data_mof_unit_56676.cif
_audit_creation_date              2012-12-10T17:09:51-0500
_audit_creation_method            fapswitch 2.2
_symmetry_space_group_name_H-M    P1
_symmetry_Int_Tables_number       1
_space_group_crystal_system       triclinic
_cell_length_a                    10.861252
_cell_length_b                    12.980958
_cell_length_c                    11.689389
_cell_angle_alpha                 99.39702
_cell_angle_beta                  93.835514
_cell_angle_gamma                 90.685756
_cell_volume                      1621.88391414

loop_
_atom_site_label
_atom_site_type_symbol
_atom_type_description
_atom_site_fract_x
_atom_site_fract_y
_atom_site_fract_z
_atom_type_partial_charge
C1    C     C_R   0.500325 0.299334 0.478985 0.829080
C2    C     C_R   0.070595 0.524896 0.612441 0.094737
C3    C     C_R   0.128347 0.514202 0.505699 -0.123586
C4    C     C_R   0.056187 0.496024 0.400235 -0.214575
C5    C     C_R   0.929298 0.486680 0.399306 -0.213777
C6    C     C_R   0.872383 0.486008 0.503042 -0.121943
C7    C     C_R   0.512245 0.813451 0.532542 -0.039909
C8    C     C_R   0.499240 0.186067 0.467095 -0.150193
C9    C     C_R   0.424791 0.018940 0.360954 -0.216755
C10   C     C_R   0.434957 0.126594 0.370079 -0.272402
C11   C     C_R   0.558711 0.136978 0.553751 0.402997
C12   C     C_R   0.262492 0.507423 0.501710 0.792836
C13   C     C_R   0.542189 0.029146 0.548180 0.075826
C14   C     C_R   0.476349 0.969965 0.450106 0.108977
C15   C     C_R   0.463058 0.862397 0.442471 -0.239108
C16   C     C_R   0.574194 0.872103 0.631310 -0.218534
C17   C     C_R   0.590038 0.979318 0.638770 -0.192469
C18   C     C_R   0.355292 0.434859 0.028916 -0.342023
C19   C     C_R   0.372997 0.436386 0.148910 0.070439
C20   C     C_R   0.564847 0.526162 0.154207 0.048807
C21   C     C_R   0.551901 0.524693 0.032424 0.022259
C22   C     C_R   0.447519 0.475097 0.968118 -0.022427
C23   C     C_R   0.503221 0.700625 0.520988 0.796991
C24   C     C_R   0.437981 0.468127 0.844804 0.575195
C25   C     C_R   0.621922 0.571093 0.853349 -0.015714
C26   C     C_R   0.639174 0.573097 0.974028 -0.349398
C27   C     C_R   0.737649 0.492491 0.499904 0.791094
C28   C     C_R   0.132086 0.565172 0.721768 -0.084425
C29   C     C_R   0.081083 0.552385 0.824877 -0.123084
C30   C     C_R   0.968022 0.500591 0.820900 -0.177776
C31   C     C_R   0.900580 0.471193 0.714683 -0.186959
C32   C     C_R   0.945914 0.493185 0.609894 0.092907
Cu1   Cu    Cu3+1 0.509250 0.507730 0.615930 0.969438
Cu2   Cu    Cu3+1 0.490750 0.492270 0.384070 0.933107
H1    H     H_    0.097657 0.489753 0.317701 0.158356
H2    H     H_    0.639647 0.022754 0.715358 0.179501
H3    H     H_    0.390194 0.163681 0.302327 0.174333
H4    H     H_    0.689239 0.609873 0.809981 0.156145
H5    H     H_    0.268707 0.403531 0.985175 0.164421
H6    H     H_    0.719764 0.613138 0.021426 0.148267
H7    H     H_    0.301979 0.403425 0.193475 0.124774
H8    H     H_    0.644247 0.565117 0.204643 0.117611
H9    H     H_    0.218249 0.608922 0.729618 0.151285
H10   H     H_    0.130815 0.580474 0.907704 0.131576
H11   H     H_    0.930897 0.485544 0.900415 0.137181
H12   H     H_    0.814999 0.428778 0.716569 0.174617
H13   H     H_    0.875761 0.479136 0.316648 0.159666
H14   H     H_    0.413960 0.816776 0.366711 0.147455
H15   H     H_    0.613108 0.834693 0.701381 0.154742
H16   H     H_    0.374256 0.974286 0.285557 0.148088
N1    N     N_R   0.523180 0.519350 0.790130 -0.213677
N2    N     N_R   0.476820 0.480650 0.209890 -0.177975
O1    O     O_R   0.506570 0.354460 0.582000 -0.534951
O2    O     O_R   0.490940 0.341410 0.386200 -0.592988
O3    O     O_R   0.327470 0.506530 0.597920 -0.541084
O4    O     O_R   0.311840 0.493480 0.402120 -0.602118
O5    O     O_R   0.509060 0.658590 0.613800 -0.593892
O6    O     O_R   0.493430 0.645540 0.418000 -0.584222
O7    O     O_R   0.688160 0.506520 0.597880 -0.600349
O8    O     O_R   0.672530 0.493470 0.402080 -0.591411
O9    O     O_3   0.629901 0.194429 0.645466 -0.600315
C33   C     C_3   0.751692 0.201479 0.611942 -0.343646
H17   H     H_    0.811381 0.238531 0.688627 0.185978
H18   H     H_    0.756766 0.251150 0.543238 0.155504
H19   H     H_    0.789648 0.123065 0.582087 0.160579
O10   O     O_3   0.339165 0.414626 0.779446 -0.571622
C34   C     C_3   0.353910 0.305486 0.771466 0.078486
H20   H     H_    0.335144 0.278135 0.853683 0.119755
H21   H     H_    0.448719 0.281617 0.750780 0.198649
C35   C     C_3   0.262028 0.249264 0.677088 -0.756913
H22   H     H_    0.274069 0.276421 0.593226 0.246150
H23   H     H_    0.276409 0.163729 0.665879 0.194765
H24   H     H_    0.166271 0.265474 0.701755 0.237644

loop_
_geom_bond_atom_site_label_1
_geom_bond_atom_site_label_2
_ccdc_geom_bond_type
Cu1   O3    S    
C23   O6    A    
C20   H8    S    
C9    C14   A    
C25   N1    A    
Cu2   O4    S    
C33   H17   S    
C17   H2    S    
C24   O10   S    
C25   H4    S    
Cu1   N1    S    
C1    C8    S    
C5    H13   S    
C9    C10   A    
C30   H11   S    
Cu2   N2    S    
C31   C32   A    
C27   O7    A    
C6    C27   S    
C13   C17   A    
C30   C31   A    
C18   H5    S    
C34   C35   S    
C21   C22   A    
C35   H24   S    
C7    C15   A    
C2    C3    A    
C4    H1    S    
C1    O2    A    
Cu1   O7    S    
C12   O4    A    
C13   C14   A    
C20   C21   A    
Cu2   O8    S    
C11   C13   A    
C26   H6    S    
C29   C30   A    
C15   H14   S    
C24   N1    A    
C8    C11   A    
C7    C23   S    
C5    C6    A    
C2    C32   A    
C8    C10   A    
C28   C29   A    
C21   C26   A    
Cu1   O5    S    
Cu2   O2    S    
C27   O8    A    
C10   H3    S    
C29   H10   S    
Cu1   O1    S    
O9    C33   S    
Cu2   O6    S    
C22   C24   A    
C12   O3    A    
C35   H23   S    
C33   H18   S    
C34   H20   S    
C19   H7    S    
C35   H22   S    
Cu1   Cu2   S    
C16   H15   S    
C20   N2    A    
C6    C32   A    
O10   C34   S    
C23   O5    A    
C1    O1    A    
C14   C15   A    
C18   C19   A    
C2    C28   A    
C3    C12   S    
C28   H9    S    
C33   H19   S    
C34   H21   S    
C25   C26   A    
C18   C22   A    
C19   N2    A    
C7    C16   A    
C9    H16   S    
C3    C4    A    
C16   C17   A    
C4    C5    A    
C11   O9    S    
C31   H12   S    
