data_mof_unit_63285.cif
_audit_creation_date              2012-12-11T17:21:39-0500
_audit_creation_method            fapswitch 2.2
_symmetry_space_group_name_H-M    P1
_symmetry_Int_Tables_number       1
_space_group_crystal_system       triclinic
_cell_length_a                    23.654337
_cell_length_b                    32.094509
_cell_length_c                    19.831684
_cell_angle_alpha                 89.99934
_cell_angle_beta                  125.910276
_cell_angle_gamma                 89.998611
_cell_volume                      12194.1647864

loop_
_atom_site_label
_atom_site_type_symbol
_atom_type_description
_atom_site_fract_x
_atom_site_fract_y
_atom_site_fract_z
_atom_type_partial_charge
C1    C     C_R   0.366691 0.102661 0.931865 0.066892
C2    C     C_R   0.565661 0.102471 0.932271 0.066282
C3    C     C_R   0.387966 0.037852 0.452318 -0.168360
C4    C     C_R   0.891333 0.462142 0.452264 -0.168709
C5    C     C_R   0.891211 0.537824 0.452175 -0.168783
C6    C     C_R   0.384899 0.000007 0.484998 0.166684
C7    C     C_R   0.894355 0.499985 0.489194 0.169603
C8    C     C_1   0.441194 0.000004 0.321623 -0.065669
C9    C     C_1   0.917233 0.499993 0.297053 -0.063974
C10   C     C_R   0.312546 0.965558 0.767368 -0.120518
C11   C     C_R   0.312524 0.034473 0.767435 -0.114233
C12   C     C_R   0.799663 0.465115 0.808779 -0.129828
C13   C     C_R   0.048034 0.386413 0.932948 0.058991
C14   C     C_R   0.799679 0.534898 0.808793 -0.128856
C15   C     C_1   0.399218 0.000006 0.565250 -0.060616
C16   C     C_1   0.914610 0.499995 0.572364 -0.061546
C17   C     C_1   0.419844 0.000004 0.636489 -0.033851
C18   C     C_1   0.936242 0.500000 0.644044 -0.030482
C19   C     C_1   0.468678 0.000004 0.286780 -0.032627
C20   C     C_1   0.942296 0.499998 0.259385 -0.032836
C21   C     C_R   0.374928 0.117594 0.002399 0.039885
C22   C     C_R   0.374844 0.882509 0.002465 0.039621
C23   C     C_R   0.908144 0.637413 0.001224 0.052210
C24   C     C_R   0.048046 0.613585 0.932950 0.058987
C25   C     C_R   0.908151 0.362587 0.001228 0.051778
C26   C     C_R   0.498821 0.000003 0.242589 0.091702
C27   C     C_R   0.975737 0.500000 0.218913 0.093460
C28   C     C_R   0.280082 0.000029 0.719729 0.080030
C29   C     C_R   0.758848 0.500014 0.788704 0.089129
C30   C     C_R   0.460080 0.034264 0.769621 -0.123795
C31   C     C_R   0.460080 0.965739 0.769620 -0.123429
C32   C     C_R   0.968555 0.534510 0.774056 -0.125828
C33   C     C_R   0.968556 0.465491 0.774057 -0.125728
C34   C     C_R   0.697634 0.965107 0.220155 -0.130471
C35   C     C_R   0.450576 0.000002 0.723014 0.088509
C36   C     C_R   0.697636 0.034885 0.220156 -0.130960
C37   C     C_R   0.195513 0.465021 0.224004 -0.123220
C38   C     C_R   0.195513 0.534972 0.224010 -0.123990
C39   C     C_1   0.315132 0.117544 0.848935 0.023780
C40   C     C_1   0.314586 0.882817 0.848909 0.020316
C41   C     C_1   0.857062 0.632173 0.850124 0.014128
C42   C     C_1   0.857056 0.367833 0.850124 0.013572
C43   C     C_1   0.076431 0.966980 0.633047 0.112273
C44   C     C_1   0.090915 0.060900 0.613176 0.100992
C45   C     C_1   0.510217 0.464815 0.704642 0.108212
C46   C     C_R   0.963553 0.500001 0.729713 0.086347
C47   C     C_1   0.531586 0.558434 0.699030 0.098876
C48   C     C_1   0.940441 0.079853 0.431292 0.051124
C49   C     C_1   0.959059 0.920475 0.431606 0.045319
C50   C     C_1   0.410339 0.579532 0.498434 0.051803
C51   C     C_1   0.433005 0.420310 0.502026 0.045354
C52   C     C_1   0.950445 0.967983 0.304497 0.073608
C53   C     C_1   0.966057 0.039459 0.322842 0.059028
C54   C     C_1   0.461238 0.469458 0.404898 0.073646
C55   C     C_1   0.472923 0.540898 0.427172 0.059962
C56   C     C_1   0.705905 0.176760 0.849136 0.058206
C57   C     C_R   0.737796 0.999993 0.258052 0.098068
C58   C     C_1   0.705862 0.823232 0.849104 0.058797
C59   C     C_1   0.068459 0.761189 0.856143 0.058675
C60   C     C_1   0.068484 0.238915 0.855958 0.059508
C61   C     C_1   0.533940 0.881635 0.849620 0.025798
C62   C     C_1   0.533917 0.118378 0.849617 0.025490
C63   C     C_1   0.002362 0.368481 0.851274 0.027774
C64   C     C_1   0.002379 0.631522 0.851277 0.027633
C65   C     C_1   0.935275 0.952243 0.516756 0.079652
C66   C     C_1   0.951919 0.040395 0.536687 0.094308
C67   C     C_1   0.379504 0.450960 0.556177 0.078959
C68   C     C_R   0.234222 0.499994 0.266286 0.094999
C69   C     C_1   0.391675 0.538810 0.580096 0.093987
C70   C     C_R   0.628977 0.115620 0.002035 0.035655
C71   C     C_R   0.628999 0.884400 0.002036 0.035680
C72   C     C_R   0.099447 0.635124 0.003125 0.039871
C73   C     C_R   0.366596 0.897427 0.931912 0.069055
C74   C     C_R   0.099420 0.364866 0.003121 0.039929
C75   C     C_3   0.054728 0.963584 0.546115 -0.215215
C76   C     C_3   0.054296 0.043850 0.527440 -0.205970
C77   C     C_3   0.510509 0.462540 0.630184 -0.215932
C78   C     C_3   0.514506 0.543033 0.618472 -0.204957
C79   C     C_3   0.972921 0.040944 0.479305 -0.010797
C80   C     C_3   0.973457 0.959439 0.479195 0.001887
C81   C     C_3   0.433779 0.540227 0.546814 -0.011194
C82   C     C_3   0.435323 0.458767 0.544813 0.003533
C83   C     C_1   0.809997 0.999999 0.318037 -0.022055
C84   C     C_R   0.887904 0.614514 0.931445 0.047328
C85   C     C_1   0.296545 0.499993 0.347256 -0.024864
C86   C     C_3   0.083708 0.000741 0.523016 0.202536
C87   C     C_3   0.550358 0.500390 0.626391 0.202248
C88   C     C_3   0.947121 0.000209 0.421542 0.056158
C89   C     C_3   0.421264 0.500072 0.491166 0.056976
C90   C     C_R   0.437762 0.896621 0.070760 -0.154657
C91   C     C_R   0.437783 0.103420 0.070729 -0.154423
C92   C     C_R   0.956646 0.385713 0.069903 -0.168509
C93   C     C_R   0.956641 0.614287 0.069900 -0.168417
C94   C     C_3   0.980006 0.000418 0.369914 0.080217
C95   C     C_R   0.887906 0.385487 0.931448 0.046985
C96   C     C_3   0.475145 0.501322 0.467050 0.075812
C97   C     C_3   0.060599 0.994231 0.432627 -0.554786
C98   C     C_3   0.549589 0.494964 0.547814 -0.547718
C99   C     C_1   0.871560 0.000059 0.365130 -0.049077
C100  C     C_1   0.350934 0.500009 0.414001 -0.048004
C101  C     C_1   0.159016 0.000381 0.580032 -0.039108
C102  C     C_1   0.623795 0.500180 0.695774 -0.037620
C103  C     C_1   0.217721 0.000112 0.639523 -0.036826
C104  C     C_1   0.685658 0.500059 0.742896 -0.040194
C105  C     C_R   0.833548 0.195577 0.079657 -0.179301
C106  C     C_R   0.634387 0.100736 0.070620 -0.149355
C107  C     C_R   0.833588 0.804458 0.079630 -0.179094
C108  C     C_R   0.212854 0.769194 0.085459 -0.183529
C109  C     C_R   0.212714 0.230760 0.085311 -0.183421
C110  C     C_R   0.776755 0.179736 0.003803 0.103760
C111  C     C_R   0.776773 0.820289 0.003778 0.103901
C112  C     C_R   0.154055 0.754631 0.009853 0.104393
C113  C     C_R   0.153957 0.245362 0.009708 0.104500
C114  C     C_R   0.763706 0.193054 0.928235 0.043437
C115  C     C_R   0.763688 0.806951 0.928203 0.043184
C116  C     C_R   0.129666 0.775333 0.934850 0.043055
C117  C     C_R   0.634401 0.899275 0.070620 -0.149021
C118  C     C_R   0.129649 0.224730 0.934665 0.042406
C119  C     C_R   0.169144 0.807822 0.935555 -0.220820
C120  C     C_R   0.169176 0.192282 0.935344 -0.220149
C121  C     C_R   0.803939 0.225190 0.929267 -0.221868
C122  C     C_R   0.803909 0.774806 0.929231 -0.221213
C123  C     C_R   0.231816 0.819229 0.010330 0.155416
C124  C     C_R   0.231815 0.180848 0.010131 0.155068
C125  C     C_R   0.856372 0.243576 0.004888 0.154647
C126  C     C_R   0.856364 0.756430 0.004856 0.154474
C127  C     C_R   0.509605 0.034591 0.210593 -0.124394
C128  C     C_R   0.116961 0.611979 0.071181 -0.149436
C129  C     C_R   0.509621 0.965413 0.210610 -0.124316
C130  C     C_R   0.994301 0.534801 0.195099 -0.125495
C131  C     C_R   0.994302 0.465198 0.195098 -0.125490
C132  C     C_R   0.251935 0.801564 0.085703 -0.169753
C133  C     C_R   0.251845 0.198432 0.085528 -0.169881
C134  C     C_R   0.873387 0.227609 0.080210 -0.170438
C135  C     C_R   0.873413 0.772416 0.080180 -0.170493
C136  C     C_1   0.726185 0.155716 0.004046 -0.042797
C137  C     C_1   0.726214 0.844314 0.004038 -0.042360
C138  C     C_1   0.130713 0.713588 0.008309 -0.044311
C139  C     C_R   0.116945 0.388012 0.071179 -0.149203
C140  C     C_1   0.130631 0.286398 0.008236 -0.044411
C141  C     C_1   0.281278 0.842803 0.007878 -0.048630
C142  C     C_1   0.281324 0.157315 0.007708 -0.048037
C143  C     C_1   0.880216 0.284065 0.004044 -0.049127
C144  C     C_1   0.880206 0.715937 0.004025 -0.048709
C145  C     C_1   0.324203 0.860743 0.005428 -0.017128
C146  C     C_1   0.324279 0.139387 0.005302 -0.016833
C147  C     C_1   0.894696 0.319589 0.002916 -0.022861
C148  C     C_1   0.894687 0.680412 0.002906 -0.022522
C149  C     C_1   0.681919 0.137436 0.003484 -0.009779
C150  C     C_R   0.565675 0.897540 0.932272 0.066151
C151  C     C_1   0.681949 0.862592 0.003484 -0.009570
C152  C     C_1   0.115598 0.677928 0.006203 -0.016345
C153  C     C_1   0.115543 0.322060 0.006179 -0.016428
C154  C     C_R   0.400929 0.037852 0.392346 -0.170235
C155  C     C_R   0.400922 0.962160 0.392341 -0.170216
C156  C     C_R   0.891352 0.537824 0.382072 -0.169638
C157  C     C_R   0.891474 0.462142 0.382161 -0.169723
C158  C     C_R   0.410723 0.000006 0.365630 0.173497
C159  C     C_R   0.894620 0.499984 0.349534 0.171484
C160  C     C_R   0.387958 0.962161 0.452313 -0.168240
H1    H     H_    0.066369 0.066741 0.495219 0.130472
H2    H     H_    0.300612 0.189632 0.143406 0.124160
H3    H     H_    0.913389 0.242220 0.138758 0.125204
H4    H     H_    0.913433 0.757813 0.138731 0.125204
H5    H     H_    0.843573 0.185499 0.137931 0.134438
H6    H     H_    0.843640 0.814551 0.137910 0.134264
H7    H     H_    0.232079 0.753069 0.143203 0.130904
H8    H     H_    0.231878 0.246833 0.143086 0.130701
H9    H     H_    0.386990 0.067198 0.478660 0.125134
H10   H     H_    0.386976 0.932815 0.478652 0.125177
H11   H     H_    0.894359 0.567174 0.481228 0.125823
H12   H     H_    0.080926 0.934629 0.546259 0.124981
H13   H     H_    0.894577 0.432797 0.481386 0.125846
H14   H     H_    0.408777 0.067197 0.371882 0.122694
H15   H     H_    0.408765 0.932815 0.371874 0.122743
H16   H     H_    0.894860 0.567173 0.357715 0.123871
H17   H     H_    0.895078 0.432795 0.357875 0.123847
H18   H     H_    0.510867 0.066356 0.228792 0.095444
H19   H     H_    0.510911 0.933651 0.228843 0.095466
H20   H     H_    0.986878 0.567003 0.204002 0.104819
H21   H     H_    0.986879 0.432996 0.204001 0.104785
H22   H     H_    0.712276 0.933325 0.241226 0.099069
H23   H     H_    0.538327 0.566614 0.600837 0.131025
H24   H     H_    0.712288 0.066666 0.241226 0.099964
H25   H     H_    0.206992 0.433188 0.246130 0.101894
H26   H     H_    0.206997 0.566803 0.246146 0.102799
H27   H     H_    0.154091 0.821884 0.877438 0.135423
H28   H     H_    0.154190 0.178277 0.877209 0.136590
H29   H     H_    0.790793 0.238086 0.871110 0.134943
H30   H     H_    0.790736 0.761896 0.871073 0.135052
H31   H     H_    0.461372 0.887805 0.134379 0.107572
H32   H     H_    0.461377 0.112233 0.134346 0.107425
H33   H     H_    0.991190 0.374206 0.133000 0.108394
H34   H     H_    0.541393 0.433950 0.640260 0.124329
H35   H     H_    0.991185 0.625793 0.132996 0.108366
H36   H     H_    0.306866 0.934701 0.742808 0.112904
H37   H     H_    0.306767 0.065357 0.742950 0.112594
H38   H     H_    0.782134 0.433312 0.798909 0.116217
H39   H     H_    0.782165 0.566704 0.798935 0.116900
H40   H     H_    0.439917 0.064795 0.744104 0.113438
H41   H     H_    0.439915 0.935210 0.744101 0.113402
H42   H     H_    0.954135 0.565782 0.749925 0.118379
H43   H     H_    0.954137 0.434221 0.749926 0.118378
H44   H     H_    0.676259 0.106946 0.134687 0.112297
H45   H     H_    0.076269 0.962311 0.427366 0.181066
H46   H     H_    0.676279 0.893067 0.134685 0.111917
H47   H     H_    0.146943 0.622572 0.135085 0.108806
H48   H     H_    0.146920 0.377415 0.135081 0.108500
H49   H     H_    0.089628 0.016015 0.419263 0.178544
H50   H     H_    0.569662 0.463234 0.549394 0.180355
H51   H     H_    0.587235 0.516957 0.549987 0.178553
H52   H     H_    0.300731 0.810337 0.143570 0.124224
N1    N     N_R   0.421250 0.077660 0.956230 -0.066360
N2    N     N_R   0.521510 0.978770 0.155860 -0.040638
N3    N     N_R   0.021510 0.521230 0.155860 -0.042681
N4    N     N_R   0.021510 0.478770 0.155860 -0.042684
N5    N     N_R   0.365020 0.978250 0.843540 -0.047097
N6    N     N_R   0.365020 0.021750 0.843540 -0.047824
N7    N     N_R   0.865020 0.478250 0.843540 -0.045282
N8    N     N_R   0.865020 0.521750 0.843540 -0.045523
N9    N     N_R   0.477750 0.021200 0.843920 -0.047470
N10   N     N_R   0.477750 0.978800 0.843920 -0.047372
N11   N     N_R   0.977750 0.521200 0.843920 -0.046781
N12   N     N_R   0.421250 0.922340 0.956230 -0.066262
N13   N     N_R   0.977750 0.478800 0.843920 -0.046769
N14   N     N_R   0.634700 0.978290 0.156680 -0.040685
N15   N     N_R   0.634700 0.021710 0.156680 -0.040737
N16   N     N_R   0.134700 0.478290 0.156680 -0.042415
N17   N     N_R   0.134700 0.521710 0.156680 -0.042433
N18   N     N_R   0.577390 0.077670 0.042970 -0.049550
N19   N     N_R   0.577390 0.922330 0.042970 -0.049574
N20   N     N_R   0.077390 0.577670 0.042970 -0.048807
N21   N     N_R   0.077390 0.422330 0.042970 -0.048807
N22   N     N_R   0.535050 0.921820 0.957630 -0.066147
N23   N     N_R   0.921250 0.577660 0.956230 -0.062574
N24   N     N_R   0.535050 0.078180 0.957630 -0.066191
N25   N     N_R   0.035050 0.421820 0.957630 -0.063988
N26   N     N_R   0.035050 0.578180 0.957630 -0.064006
N27   N     N_1   0.273373 0.130411 0.783032 -0.087532
N28   N     N_1   0.272413 0.870184 0.782946 -0.092092
N29   N     N_1   0.832023 0.646429 0.784782 -0.079440
N30   N     N_1   0.832011 0.353580 0.784778 -0.079717
N31   N     N_1   0.093480 0.969527 0.700813 -0.073031
N32   N     N_1   0.119501 0.074196 0.679869 -0.073196
N33   N     N_1   0.510037 0.466476 0.762814 -0.074122
N34   N     N_R   0.921250 0.422340 0.956230 -0.062468
N35   N     N_1   0.545008 0.570511 0.761857 -0.075092
N36   N     N_1   0.914950 0.110339 0.394271 -0.083814
N37   N     N_1   0.947929 0.889674 0.395376 -0.084472
N38   N     N_1   0.391729 0.610347 0.460948 -0.081494
N39   N     N_1   0.431060 0.389896 0.469312 -0.081401
N40   N     N_1   0.927246 0.942904 0.252780 -0.081122
N41   N     N_1   0.955353 0.069745 0.285354 -0.083408
N42   N     N_1   0.450461 0.444856 0.355947 -0.078845
N43   N     N_1   0.471649 0.571583 0.395597 -0.080539
N44   N     N_1   0.659585 0.163697 0.785814 -0.074658
N45   N     N_R   0.465280 0.921820 0.043160 -0.048982
N46   N     N_1   0.659522 0.836286 0.785782 -0.074454
N47   N     N_1   0.019434 0.749842 0.793126 -0.072770
N48   N     N_1   0.019493 0.250293 0.792941 -0.072521
N49   N     N_1   0.509355 0.868028 0.783863 -0.086251
N50   N     N_1   0.509324 0.131986 0.783858 -0.086458
N51   N     N_1   0.966048 0.353645 0.785893 -0.079044
N52   N     N_1   0.966070 0.646362 0.785898 -0.079083
N53   N     N_1   0.905409 0.946249 0.545691 -0.077103
N54   N     N_1   0.935659 0.040598 0.581552 -0.075937
N55   N     N_1   0.335912 0.444461 0.564736 -0.078140
N56   N     N_R   0.465280 0.078180 0.043160 -0.048854
N57   N     N_1   0.358914 0.538353 0.606244 -0.076315
N58   N     N_R   0.965280 0.421820 0.043160 -0.047631
N59   N     N_R   0.965280 0.578180 0.043160 -0.047625
N60   N     N_R   0.521510 0.021230 0.155860 -0.040626
Ni1   Ni    Ni4+2 0.449950 0.048980 0.900980 0.215230
Ni2   Ni    Ni4+2 0.449950 0.951020 0.900980 0.215438
Ni3   Ni    Ni4+2 0.949950 0.548980 0.900980 0.226469
Ni4   Ni    Ni4+2 0.949950 0.451020 0.900980 0.226550
Ni5   Ni    Ni4+2 0.549540 0.950500 0.099020 0.214195
Ni6   Ni    Ni4+2 0.549540 0.049500 0.099020 0.214186
Ni7   Ni    Ni4+2 0.049540 0.450500 0.099020 0.207757
Ni8   Ni    Ni4+2 0.049540 0.549500 0.099020 0.207775

loop_
_geom_bond_atom_site_label_1
_geom_bond_atom_site_label_2
_ccdc_geom_bond_type
C125  C134  A    
C78   C87   S    
C30   H40   S    
C105  C110  A    
C1    C21   A    
C68   C85   S    
C155  H15   S    
C12   C29   A    
C27   C131  A    
C135  H4    S    
C142  C146  T    
C110  C136  S    
C132  H52   S    
C76   C79   S    
C144  C148  T    
C61   C150  S    
C8    C158  S    
C133  H2    S    
C62   N50   T    
C118  C120  A    
C39   N27   T    
C136  C149  T    
C107  C111  A    
C40   C73   S    
N45   Ni5   S    
C66   C79   S    
C98   H50   S    
N1    N56   A    
C44   N32   T    
C82   C89   S    
C97   H49   S    
C30   C35   A    
N18   Ni6   S    
C11   C28   A    
C48   C79   S    
C34   N14   A    
C154  C158  A    
C33   N13   A    
C95   N34   A    
C121  H29   S    
C155  C160  A    
C123  C132  A    
C71   C150  A    
C9    C159  S    
N23   N59   A    
C31   N10   A    
C37   C68   A    
N56   Ni6   S    
C23   C93   A    
N23   Ni3   S    
C134  H3    S    
C78   H23   S    
C56   C114  S    
C129  N2    A    
C44   C76   S    
C19   C26   S    
N21   N25   A    
C79   C88   S    
C107  C135  A    
C9    C20   T    
C115  C122  A    
C6    C15   S    
C114  C121  A    
C120  C124  A    
C37   N16   A    
C71   C151  S    
C55   N43   T    
C59   C116  S    
C72   C152  S    
C96   C98   S    
C139  N21   A    
C34   C57   A    
C57   C83   S    
C60   C118  S    
C36   H24   S    
C128  H47   S    
C38   N17   A    
C51   N39   T    
C75   C80   S    
C110  C114  A    
C12   N7    A    
C54   C96   S    
C50   N38   T    
C141  C145  T    
C140  C153  T    
C27   C130  A    
C87   C98   S    
C81   C89   S    
C122  C126  A    
C3    C6    A    
C24   C64   S    
C131  N4    A    
C107  H6    S    
C65   N53   T    
C157  C159  A    
C65   C80   S    
C83   C99   T    
C92   H33   S    
N8    Ni3   S    
N20   N26   A    
C33   C46   A    
C54   N42   T    
C124  C142  S    
C76   H1    S    
C93   H35   S    
C70   C149  S    
C53   N41   T    
C4    C7    A    
C18   C46   S    
C47   N35   T    
N16   N17   A    
C122  H30   S    
C30   N9    A    
C88   C94   S    
C90   H31   S    
N16   Ni7   S    
C43   C75   S    
N5    Ni2   S    
N21   Ni7   S    
C66   N54   T    
C37   H25   S    
C8    C19   T    
C108  C132  A    
C23   C84   A    
N19   Ni5   S    
C89   C100  S    
C109  C133  A    
C42   C95   S    
C88   C99   S    
C112  C138  S    
C84   N23   A    
C36   C57   A    
C70   C106  A    
C117  N19   A    
N7    N8    A    
C5    C7    A    
C23   C148  S    
C71   C117  A    
C3    H9    S    
C13   N25   A    
C72   C128  A    
C94   C97   S    
C43   N31   T    
N5    N6    A    
C150  N22   A    
C41   C84   S    
C69   N57   T    
C42   N30   T    
C3    C154  A    
C108  C112  A    
C29   C104  S    
C41   N29   T    
N14   Ni5   S    
N58   Ni7   S    
N10   Ni2   S    
C143  C147  T    
N3    N4    A    
C11   H37   S    
C121  C125  A    
N9    N10   A    
C109  H8    S    
C10   H36   S    
C52   C94   S    
C87   C102  S    
C67   N55   T    
C22   C90   A    
C75   C86   S    
C4    C157  A    
C13   C63   S    
C22   C145  S    
C14   H39   S    
C123  C141  S    
N9    Ni1   S    
C5    H11   S    
C113  C140  S    
N2    N60   A    
C130  N3    A    
C25   C147  S    
C157  H17   S    
C47   C78   S    
C51   C82   S    
C102  C104  T    
C52   N40   T    
C11   N6    A    
C77   C87   S    
C26   C129  A    
C130  H20   S    
N34   N58   A    
C97   H45   S    
C124  C133  A    
C16   C18   T    
N59   Ni8   S    
C108  H7    S    
C58   N46   T    
C126  C135  A    
C117  H46   S    
C36   N15   A    
C119  C123  A    
C4    H13   S    
C56   N44   T    
C1    N1    A    
C58   C115  S    
C2    N24   A    
N4    Ni7   S    
C31   C35   A    
C86   C97   S    
N25   Ni4   S    
C59   N47   T    
C14   C29   A    
C45   N33   T    
N26   Ni3   S    
C76   C86   S    
C112  C116  A    
C32   N11   A    
C24   N26   A    
C111  C137  S    
C92   N58   A    
C21   C91   A    
C10   C28   A    
C15   C17   T    
N12   N45   A    
C14   N8    A    
C7    C16   S    
C25   C92   A    
N60   Ni6   S    
C74   C139  A    
C61   N49   T    
C73   N12   A    
C53   C94   S    
C127  H18   S    
C32   C46   A    
C156  C159  A    
C137  C151  T    
C38   C68   A    
C55   C96   S    
C129  H19   S    
C156  H16   S    
C6    C160  A    
N11   N13   A    
C25   C95   A    
C80   C88   S    
C20   C27   S    
C109  C113  A    
N6    Ni1   S    
C5    C156  A    
N12   Ni2   S    
C91   H32   S    
N17   Ni8   S    
N22   Ni2   S    
C116  C119  A    
C160  H10   S    
N3    Ni8   S    
C127  N60   A    
C98   H51   S    
C138  C152  T    
N18   N24   A    
C60   N48   T    
C89   C96   S    
N34   Ni4   S    
N1    Ni1   S    
C49   N37   T    
C40   N28   T    
C77   H34   S    
C38   H26   S    
C21   C146  S    
C93   N59   A    
C131  H21   S    
C28   C103  S    
N20   Ni8   S    
C77   C82   S    
C125  C143  S    
C63   N51   T    
C120  H28   S    
C126  C144  S    
N7    Ni4   S    
N13   Ni4   S    
C64   N52   T    
C105  H5    S    
C33   H43   S    
C34   H22   S    
N19   N22   A    
C26   C127  A    
C78   C81   S    
C32   H42   S    
N15   Ni6   S    
C119  H27   S    
C31   H41   S    
C24   C72   A    
C69   C81   S    
C139  H48   S    
C1    C39   S    
C106  H44   S    
C113  C118  A    
C106  N18   A    
C154  H14   S    
N11   Ni3   S    
C13   C74   A    
C74   C153  S    
C67   C82   S    
C48   N36   T    
N14   N15   A    
C128  N20   A    
N2    Ni5   S    
C75   H12   S    
C85   C100  T    
C49   C80   S    
C12   H38   S    
N24   Ni1   S    
C111  C115  A    
C17   C35   S    
C22   C73   A    
C45   C77   S    
C2    C70   A    
C90   N45   A    
C2    C62   S    
C10   N5    A    
C86   C101  S    
C91   N56   A    
C50   C81   S    
C105  C134  A    
C155  C158  A    
C101  C103  T    
