data_mof_unit_59229.cif
_audit_creation_date              2013-03-05T16:00:42-0500
_audit_creation_method            fapswitch 2.2
_symmetry_space_group_name_H-M    P1
_symmetry_Int_Tables_number       1
_space_group_crystal_system       triclinic
_cell_length_a                    20.81357
_cell_length_b                    21.442019
_cell_length_c                    14.172915
_cell_angle_alpha                 89.997434
_cell_angle_beta                  89.727595
_cell_angle_gamma                 89.998682
_cell_volume                      6325.08735729

loop_
_atom_site_label
_atom_site_type_symbol
_atom_site_description
_atom_site_fract_x
_atom_site_fract_y
_atom_site_fract_z
_atom_type_partial_charge
O1    O     O_R   0.066090 0.433930 0.580280 -0.615797
O2    O     O_R   0.933910 0.566070 0.419720 -0.626380
O3    O     O_R   0.933910 0.566070 0.580280 -0.616992
O4    O     O_R   0.066090 0.433930 0.419720 -0.627386
O5    O     O_R   0.933910 0.433930 0.419720 -0.618864
O6    O     O_R   0.066090 0.566070 0.580280 -0.629460
O7    O     O_R   0.066090 0.566070 0.419720 -0.624342
O8    O     O_R   0.933910 0.433930 0.580280 -0.635257
O9    O     O_R   0.566090 0.933930 0.580280 -0.629472
O10   O     O_R   0.433910 0.066070 0.419720 -0.618891
O11   O     O_R   0.433910 0.066070 0.580280 -0.635197
O12   O     O_R   0.566090 0.933930 0.419720 -0.624341
O13   O     O_R   0.433910 0.933930 0.419720 -0.626383
O14   O     O_R   0.566090 0.066070 0.580280 -0.615740
O15   O     O_R   0.566090 0.066070 0.419720 -0.627385
O16   O     O_R   0.433910 0.933930 0.580280 -0.617010
C1    C     C_R   0.084996 0.412351 0.499970 0.885795
C2    C     C_R   0.914931 0.587585 0.500242 0.885844
C3    C     C_R   0.915156 0.412216 0.500124 0.879929
C4    C     C_R   0.084877 0.587748 0.499870 0.880517
C5    C     C_R   0.584875 0.912252 0.499873 0.880561
C6    C     C_R   0.415147 0.087773 0.500120 0.879965
C7    C     C_R   0.414929 0.912416 0.500245 0.885772
C8    C     C_R   0.584996 0.087652 0.499969 0.885748
Zn1   Zn    Zn3+2 0.000000 0.500000 0.607200 0.931566
Zn2   Zn    Zn3+2 0.000000 0.500000 0.392800 0.931448
Zn3   Zn    Zn3+2 0.500000 0.000000 0.607200 0.931574
Zn4   Zn    Zn3+2 0.500000 1.000000 0.392800 0.931481
C9    C     C_R   0.119225 0.693282 0.448958 0.129767
C10   C     C_R   0.881022 0.306801 0.448913 0.129207
C11   C     C_R   0.879906 0.692570 0.552339 0.124190
C12   C     C_R   0.119488 0.307205 0.551592 0.123360
C13   C     C_R   0.619608 0.192691 0.551904 0.123390
C14   C     C_R   0.379903 0.807428 0.552347 0.124205
C15   C     C_R   0.381110 0.193281 0.449227 0.129190
C16   C     C_R   0.619222 0.806720 0.448966 0.129754
C17   C     C_R   0.130093 0.637786 0.500026 -0.064877
C18   C     C_R   0.870101 0.362020 0.500793 -0.064775
C19   C     C_R   0.869230 0.637194 0.500892 -0.068363
C20   C     C_R   0.130454 0.362522 0.499964 -0.068485
C21   C     C_R   0.630456 0.137484 0.499964 -0.068625
C22   C     C_R   0.369227 0.862808 0.500901 -0.068345
C23   C     C_R   0.370070 0.137944 0.500767 -0.064490
C24   C     C_R   0.630088 0.862211 0.500035 -0.064883
C25   C     C_R   0.185341 0.628475 0.552825 -0.315961
C26   C     C_R   0.814747 0.371073 0.554231 -0.315412
C27   C     C_R   0.813202 0.627115 0.450291 -0.330888
C28   C     C_R   0.186611 0.372383 0.448786 -0.329033
C29   C     C_R   0.686512 0.127725 0.448499 -0.328929
C30   C     C_R   0.313197 0.872891 0.450301 -0.330918
C31   C     C_R   0.314569 0.128741 0.553815 -0.315572
C32   C     C_R   0.685335 0.871518 0.552836 -0.315942
C33   C     C_R   0.232686 0.673278 0.554140 0.126849
C34   C     C_R   0.767236 0.326404 0.555061 0.126885
C35   C     C_R   0.765720 0.671781 0.449282 0.130811
C36   C     C_R   0.234173 0.327773 0.448058 0.130397
C37   C     C_R   0.734066 0.172340 0.447738 0.130347
C38   C     C_R   0.265717 0.828224 0.449288 0.130815
C39   C     C_R   0.267044 0.173401 0.554615 0.126979
C40   C     C_R   0.732681 0.826715 0.554149 0.126847
C41   C     C_R   0.224790 0.728310 0.501270 0.022890
C42   C     C_R   0.775143 0.271734 0.501213 0.022818
C43   C     C_R   0.773739 0.726945 0.501769 0.025316
C44   C     C_R   0.225989 0.272811 0.501126 0.024926
C45   C     C_R   0.726022 0.227160 0.501171 0.024964
C46   C     C_R   0.273738 0.773055 0.501770 0.025317
C47   C     C_R   0.275102 0.228225 0.501162 0.022787
C48   C     C_R   0.724788 0.771689 0.501274 0.022890
C49   C     C_R   0.168077 0.738648 0.448110 0.109861
C50   C     C_R   0.832038 0.261588 0.447609 0.109787
C51   C     C_R   0.830589 0.737427 0.554525 0.111266
C52   C     C_R   0.168816 0.262381 0.553945 0.111767
C53   C     C_R   0.668980 0.237463 0.554346 0.111735
C54   C     C_R   0.330589 0.762570 0.554527 0.111260
C55   C     C_R   0.332140 0.238513 0.447946 0.109828
C56   C     C_R   0.668076 0.761355 0.448113 0.109864
C57   C     C_R   0.288053 0.663210 0.607093 -0.212788
C58   C     C_R   0.711630 0.336313 0.608325 -0.213111
C59   C     C_R   0.710169 0.661510 0.396844 -0.214876
C60   C     C_R   0.290034 0.337966 0.395511 -0.214631
C61   C     C_R   0.789782 0.162289 0.394797 -0.214632
C62   C     C_R   0.210165 0.838499 0.396851 -0.214890
C63   C     C_R   0.211283 0.163339 0.607466 -0.213106
C64   C     C_R   0.788048 0.836781 0.607101 -0.212777
C65   C     C_R   0.838270 0.206485 0.394331 -0.215913
C66   C     C_R   0.161848 0.794138 0.395851 -0.216357
C67   C     C_R   0.162597 0.207328 0.607340 -0.216859
C68   C     C_R   0.836559 0.792619 0.607540 -0.217538
C69   C     C_R   0.336561 0.707372 0.607538 -0.217539
C70   C     C_R   0.662929 0.292342 0.608175 -0.216886
C71   C     C_R   0.661849 0.705871 0.395849 -0.216355
C72   C     C_R   0.338526 0.293772 0.395069 -0.215887
H1    H     H_    0.191834 0.585353 0.591874 0.149238
H2    H     H_    0.808216 0.413969 0.593922 0.149110
H3    H     H_    0.806187 0.583539 0.412740 0.152172
H4    H     H_    0.193727 0.415815 0.410780 0.151616
H5    H     H_    0.693564 0.084368 0.410288 0.151703
H6    H     H_    0.306180 0.916470 0.412751 0.152158
H7    H     H_    0.307944 0.085741 0.593224 0.148936
H8    H     H_    0.691827 0.914638 0.591886 0.149246
H9    H     H_    0.293949 0.620938 0.648140 0.145950
H10   H     H_    0.705687 0.378320 0.650051 0.145808
H11   H     H_    0.704149 0.619093 0.356187 0.146240
H12   H     H_    0.296194 0.380222 0.354419 0.145685
H13   H     H_    0.795824 0.120150 0.353400 0.145680
H14   H     H_    0.204143 0.880920 0.356197 0.146240
H15   H     H_    0.205211 0.121200 0.648858 0.145808
H16   H     H_    0.793943 0.879048 0.648150 0.145950
H17   H     H_    0.880212 0.196876 0.351450 0.161200
H18   H     H_    0.120039 0.803933 0.353372 0.161302
H19   H     H_    0.120483 0.197576 0.649787 0.161888
H20   H     H_    0.878356 0.802373 0.650065 0.161583
H21   H     H_    0.378358 0.697615 0.650063 0.161585
H22   H     H_    0.620939 0.301964 0.650952 0.161902
H23   H     H_    0.620041 0.696080 0.353368 0.161300
H24   H     H_    0.380597 0.303510 0.352526 0.161205
C73   C     C_R   0.947606 0.522423 0.799848 0.255794
C74   C     C_R   0.052348 0.477552 0.200040 0.258777
C75   C     C_R   0.051372 0.476705 0.799790 0.248198
C76   C     C_R   0.948814 0.523522 0.200040 0.250008
C77   C     C_R   0.447604 0.977583 0.799850 0.255768
C78   C     C_R   0.552349 0.022440 0.200034 0.258846
C79   C     C_R   0.551376 0.023283 0.799786 0.248224
C80   C     C_R   0.448811 0.976484 0.200043 0.250015
N1    N     N_R   0.000000 0.500000 0.750030 -0.110989
N2    N     N_R   0.000000 0.500000 0.249970 -0.110616
N3    N     N_R   0.500000 1.000000 0.750030 -0.110986
N4    N     N_R   0.500000 1.000000 0.249970 -0.110606
C81   C     C_R   0.045628 0.465649 0.898917 -0.024735
C82   C     C_R   0.954607 0.534529 0.100885 -0.024399
C83   C     C_R   0.951806 0.533007 0.899878 -0.029504
C84   C     C_R   0.048178 0.466950 0.099975 -0.029692
C85   C     C_R   0.545634 0.034340 0.898912 -0.024748
C86   C     C_R   0.454604 0.965476 0.100889 -0.024397
C87   C     C_R   0.451803 0.966998 0.899882 -0.029497
C88   C     C_R   0.548181 0.033043 0.099969 -0.029693
C89   C     C_R   0.999531 0.499916 0.949772 -0.069142
C90   C     C_R   0.000545 0.500095 0.050045 -0.069515
C91   C     C_R   0.499532 0.000083 0.949771 -0.069138
C92   C     C_R   0.500545 0.999904 0.050044 -0.069519
C93   C     C_R   0.083732 0.421382 0.948085 0.200971
C94   C     C_R   0.916685 0.578919 0.051672 0.198368
C95   C     C_R   0.912002 0.575965 0.951201 0.202055
C96   C     C_R   0.088083 0.424079 0.048617 0.200592
C97   C     C_R   0.583747 0.078600 0.948072 0.201023
C98   C     C_R   0.416678 0.921090 0.051682 0.198370
C99   C     C_R   0.411997 0.924043 0.951211 0.202060
C100  C     C_R   0.588096 0.075906 0.048604 0.200636
C101  C     C_3   0.055943 0.705419 0.399000 -0.910999
H25   H     H_    0.018533 0.670043 0.413378 0.256194
H26   H     H_    0.035328 0.750394 0.423435 0.231773
H27   H     H_    0.064071 0.707245 0.321576 0.245659
C102  C     C_3   0.944469 0.294831 0.398435 -0.909715
H28   H     H_    0.981935 0.329971 0.413313 0.256291
H29   H     H_    0.964821 0.249596 0.421973 0.231636
H30   H     H_    0.936665 0.293644 0.321017 0.245435
C103  C     C_3   0.943367 0.705038 0.601605 -0.914498
H31   H     H_    0.981114 0.670230 0.585986 0.257856
H32   H     H_    0.963261 0.750452 0.577758 0.233858
H33   H     H_    0.935720 0.706092 0.679167 0.240796
C104  C     C_3   0.055706 0.294758 0.600855 -0.916962
H34   H     H_    0.018176 0.329763 0.585603 0.257903
H35   H     H_    0.035848 0.249466 0.576674 0.234885
H36   H     H_    0.062870 0.293373 0.678387 0.240996
C105  C     C_3   0.555893 0.205095 0.601378 -0.916770
H37   H     H_    0.518269 0.170246 0.585852 0.257977
H38   H     H_    0.563114 0.206164 0.678901 0.240932
H39   H     H_    0.536124 0.250524 0.577634 0.234794
C106  C     C_3   0.443364 0.794956 0.601617 -0.914511
H40   H     H_    0.481109 0.829766 0.586004 0.257856
H41   H     H_    0.435713 0.793895 0.679178 0.240797
H42   H     H_    0.463261 0.749545 0.577766 0.233861
C107  C     C_3   0.444654 0.205340 0.399059 -0.910052
H43   H     H_    0.482029 0.170063 0.413694 0.256199
H44   H     H_    0.436965 0.206860 0.321631 0.245424
H45   H     H_    0.465048 0.250443 0.423083 0.231789
C108  C     C_3   0.555939 0.794588 0.399010 -0.910972
H46   H     H_    0.518526 0.829959 0.413399 0.256190
H47   H     H_    0.564066 0.792774 0.321584 0.245661
H48   H     H_    0.535330 0.749608 0.423437 0.231767
C109  C     C_3   0.882917 0.524215 0.752863 -0.823686
H49   H     H_    0.880386 0.491143 0.693999 0.268623
H50   H     H_    0.845074 0.508088 0.802633 0.202727
H51   H     H_    0.871416 0.571481 0.726361 0.250593
C110  C     C_3   0.117009 0.475725 0.246851 -0.835518
H52   H     H_    0.119601 0.508461 0.306179 0.274172
H53   H     H_    0.128314 0.428297 0.272521 0.245095
H54   H     H_    0.154820 0.491992 0.197129 0.206107
C111  C     C_3   0.117288 0.474773 0.754857 -0.817120
H55   H     H_    0.155035 0.482404 0.808789 0.209898
H56   H     H_    0.127250 0.429631 0.720109 0.251567
H57   H     H_    0.122985 0.512979 0.703374 0.257459
C112  C     C_3   0.883039 0.526270 0.244955 -0.828529
H58   H     H_    0.845231 0.517623 0.191464 0.211899
H59   H     H_    0.877313 0.489267 0.298436 0.264928
H60   H     H_    0.873559 0.572182 0.277338 0.245663
C113  C     C_3   0.382915 0.975793 0.752864 -0.823600
H61   H     H_    0.380380 0.008869 0.694000 0.268664
H62   H     H_    0.371417 0.928529 0.726364 0.250563
H63   H     H_    0.345072 0.991918 0.802633 0.202758
C114  C     C_3   0.617005 0.024267 0.246846 -0.835697
H64   H     H_    0.619596 0.991550 0.306202 0.274225
H65   H     H_    0.654818 0.007985 0.197137 0.206124
H66   H     H_    0.628299 0.071704 0.272473 0.245018
C115  C     C_3   0.617293 0.025199 0.754853 -0.817141
H67   H     H_    0.622984 0.986989 0.703379 0.257457
H68   H     H_    0.627265 0.070337 0.720094 0.251583
H69   H     H_    0.655038 0.017562 0.808787 0.209896
C116  C     C_3   0.383036 0.973746 0.244958 -0.828498
H70   H     H_    0.377313 0.010750 0.298434 0.264921
H71   H     H_    0.345229 0.982399 0.191465 0.211906
H72   H     H_    0.373550 0.927836 0.277346 0.245655
C117  C     C_3   0.111087 0.365804 0.895009 -0.918019
H73   H     H_    0.095153 0.321697 0.928699 0.239903
H74   H     H_    0.091935 0.361510 0.822702 0.243346
H75   H     H_    0.164351 0.368237 0.892749 0.248440
C118  C     C_3   0.890252 0.634996 0.104514 -0.912531
H76   H     H_    0.905850 0.678799 0.069597 0.240194
H77   H     H_    0.837017 0.632754 0.108443 0.247071
H78   H     H_    0.910570 0.639782 0.176111 0.245737
C119  C     C_3   0.870236 0.622817 0.898896 -0.908617
H79   H     H_    0.825947 0.600064 0.873104 0.240305
H80   H     H_    0.852682 0.662294 0.941723 0.245646
H81   H     H_    0.897869 0.644016 0.839879 0.241316
C120  C     C_3   0.129648 0.377058 0.100909 -0.905939
H82   H     H_    0.174051 0.399632 0.126683 0.238750
H83   H     H_    0.101905 0.355960 0.159899 0.244911
H84   H     H_    0.146908 0.337437 0.058137 0.245753
C121  C     C_3   0.611117 0.134167 0.894987 -0.918113
H85   H     H_    0.595194 0.178282 0.928665 0.239910
H86   H     H_    0.664381 0.131717 0.892724 0.248447
H87   H     H_    0.591965 0.138461 0.822681 0.243245
C122  C     C_3   0.390240 0.865017 0.104532 -0.912532
H88   H     H_    0.405838 0.821212 0.069626 0.240191
H89   H     H_    0.410554 0.860231 0.176132 0.245738
H90   H     H_    0.337005 0.867264 0.108455 0.247075
C123  C     C_3   0.370233 0.877193 0.898910 -0.908618
H91   H     H_    0.352681 0.837716 0.941742 0.245647
H92   H     H_    0.325943 0.899946 0.873116 0.240305
H93   H     H_    0.397865 0.855994 0.839895 0.241316
C124  C     C_3   0.629668 0.122922 0.100886 -0.905951
H94   H     H_    0.646958 0.162529 0.058099 0.245740
H95   H     H_    0.601921 0.144043 0.159852 0.244918
H96   H     H_    0.674061 0.100336 0.126687 0.238701

loop_
_geom_bond_atom_site_label_1
_geom_bond_atom_site_label_2
_geom_bond_distance
_ccdc_geom_bond_type
C84   C96   1.434915 A    
C113  H63   1.110052 S    
C63   C67   1.384359 A    
C103  H31   1.105272 S    
O8    Zn1   2.012426 S    
C17   C25   1.389349 A    
C58   H10   1.084290 S    
C106  H41   1.110223 S    
C114  H64   1.096861 S    
C57   H9    1.084267 S    
C14   C22   1.411571 A    
C88   C92   1.412568 A    
C25   H1    1.086352 S    
C52   C67   1.407807 A    
C104  H34   1.105353 S    
O15   Zn4   2.012423 S    
C45   C53   1.420513 A    
C12   C52   1.406864 A    
C117  H73   1.109456 S    
C58   C70   1.384356 A    
C118  H78   1.105959 S    
C87   C91   1.413088 A    
C72   H24   1.081148 S    
C117  H75   1.110154 S    
C79   C115  1.510375 S    
C105  H37   1.105307 S    
C7    C22   1.427002 S    
C60   H12   1.084341 S    
C76   C82   1.429518 A    
C78   C114  1.503729 S    
C19   C27   1.388861 A    
C66   H18   1.081097 S    
C39   C63   1.395109 A    
C53   C70   1.407732 A    
C77   N3    1.382595 A    
C121  H87   1.105184 S    
C65   H17   1.081137 S    
C101  H26   1.110230 S    
Zn2   N2    2.024319 S    
C73   C109  1.505416 S    
C110  H53   1.105753 S    
O6    Zn1   2.009918 S    
C81   C93   1.421510 A    
C80   C116  1.508172 S    
C41   C49   1.420754 A    
C46   C54   1.420611 A    
C109  H49   1.096417 S    
C116  H72   1.103573 S    
C29   C37   1.376515 A    
O13   C7    1.291147 A    
O3    C2    1.288357 A    
C111  H56   1.105198 S    
C124  H94   1.102885 S    
C106  H40   1.105274 S    
O14   C8    1.288530 A    
C113  H62   1.107383 S    
Zn1   N1    2.024317 S    
C16   C56   1.407160 A    
C120  H83   1.110146 S    
C28   H4    1.085606 S    
C43   C48   1.399472 A    
Zn3   N3    2.024317 S    
C41   C46   1.399490 A    
C38   C46   1.407694 A    
C10   C102  1.520721 S    
C62   H14   1.084290 S    
C71   H23   1.081098 S    
C112  H59   1.103331 S    
C35   C43   1.407696 A    
C99   C123  1.523307 S    
C36   C44   1.407932 A    
O13   Zn4   2.009920 S    
C115  H67   1.103056 S    
C64   H16   1.084267 S    
O14   Zn3   2.009918 S    
C102  H29   1.110315 S    
C15   C23   1.411604 A    
C122  H88   1.109448 S    
C15   C55   1.407095 A    
C118  H77   1.110195 S    
C59   C71   1.384360 A    
C80   N4    1.377422 A    
C39   C47   1.408065 A    
O16   C7    1.288367 A    
C24   C32   1.389342 A    
O16   Zn3   2.012426 S    
C70   H22   1.081158 S    
C98   C122  1.518368 S    
C25   C33   1.376412 A    
C105  H38   1.109902 S    
C123  H91   1.102887 S    
O1    Zn1   2.009899 S    
C8    C21   1.427232 S    
C114  H65   1.110123 S    
C42   C50   1.420652 A    
C59   H11   1.084292 S    
C111  H55   1.110856 S    
C33   C41   1.407820 A    
C73   C83   1.438852 A    
C21   C29   1.388884 A    
C10   C50   1.407077 A    
C74   C110  1.503807 S    
C120  H82   1.106846 S    
C9    C49   1.407177 A    
C107  H44   1.110230 S    
C31   H7    1.086409 S    
C86   C98   1.421472 A    
C61   H13   1.084327 S    
C30   H6    1.085537 S    
O8    C3    1.289963 A    
C15   C107  1.520736 S    
C44   C47   1.399598 A    
C64   C68   1.384248 A    
O3    Zn1   2.012356 S    
C101  H27   1.110184 S    
C93   C117  1.518599 S    
C67   H19   1.081193 S    
C110  H54   1.110108 S    
C104  H35   1.110336 S    
C34   C42   1.408018 A    
C108  H47   1.110191 S    
C118  H76   1.109449 S    
C107  H43   1.105360 S    
C9    C101  1.520767 S    
O12   C5    1.289809 A    
C32   H8    1.086352 S    
O10   C6    1.289701 A    
O5    Zn2   2.009920 S    
C124  H95   1.110175 S    
C1    C20   1.427120 S    
C30   C38   1.376309 A    
C60   C72   1.384403 A    
C111  H57   1.103055 S    
C33   C57   1.395013 A    
C2    C19   1.426961 S    
C94   C118  1.518367 S    
C95   C119  1.523301 S    
C121  H85   1.109477 S    
C83   C89   1.413091 A    
C3    C18   1.427533 S    
C5    C24   1.427170 S    
C35   C59   1.394960 A    
C85   C97   1.421512 A    
C79   N3    1.377382 A    
C6    C23   1.427411 S    
C26   H2    1.086384 S    
C69   H21   1.081114 S    
O11   Zn3   2.012356 S    
C84   C90   1.412568 A    
C108  H48   1.110229 S    
C78   C88   1.439342 A    
C12   C104  1.520594 S    
C26   C34   1.376714 A    
C116  H70   1.103328 S    
C81   C89   1.404742 A    
O2    Zn2   2.009898 S    
C88   C100  1.434935 A    
C48   C56   1.420755 A    
C77   C87   1.438849 A    
C102  H30   1.110252 S    
C122  H89   1.105953 S    
C77   C113  1.505426 S    
C11   C103  1.520689 S    
C14   C106  1.520691 S    
C55   C72   1.407896 A    
C22   C30   1.388870 A    
O5    C3    1.289749 A    
O4    C1    1.291034 A    
C75   N1    1.377389 A    
C13   C53   1.406824 A    
O15   C8    1.291083 A    
C14   C54   1.406888 A    
O7    C4    1.289819 A    
C105  H39   1.110253 S    
C87   C99   1.434633 A    
C12   C20   1.411630 A    
C123  H92   1.106618 S    
C100  C124  1.523252 S    
C114  H66   1.105704 S    
C37   C61   1.394977 A    
C96   C120  1.523214 S    
C16   C24   1.411530 A    
C47   C55   1.420687 A    
C103  H32   1.110213 S    
C120  H84   1.102840 S    
C82   C90   1.404270 A    
C104  H36   1.110023 S    
C83   C95   1.434632 A    
C97   C100  1.429296 A    
O9    Zn3   2.009899 S    
C27   C35   1.376294 A    
C98   C99   1.429168 A    
C115  H68   1.105204 S    
C115  H69   1.110860 S    
O10   Zn4   2.009898 S    
C28   C36   1.376541 A    
C97   C121  1.518585 S    
C20   C28   1.388846 A    
C116  H71   1.110884 S    
C109  H51   1.107386 S    
C42   C45   1.399571 A    
C57   C69   1.384258 A    
C13   C105  1.520579 S    
C16   C108  1.520764 S    
C75   C111  1.510369 S    
C37   C45   1.407876 A    
O2    C2    1.291140 A    
C119  H79   1.106615 S    
O4    Zn2   2.012356 S    
C91   C92   1.421420 A    
C107  H45   1.110307 S    
C85   C91   1.404744 A    
C93   C96   1.429311 A    
C54   C69   1.407665 A    
C103  H33   1.110218 S    
C119  H81   1.110152 S    
O6    C4    1.289752 A    
C89   C90   1.421424 A    
O11   C6    1.289948 A    
O1    C1    1.288521 A    
C76   C112  1.508167 S    
C36   C60   1.394984 A    
C80   C86   1.429525 A    
C119  H80   1.102888 S    
C124  H96   1.106863 S    
C13   C21   1.411614 A    
C38   C62   1.394964 A    
C117  H74   1.105211 S    
C121  H86   1.110170 S    
C62   C66   1.384367 A    
C101  H25   1.105287 S    
C112  H60   1.103571 S    
C86   C92   1.404275 A    
C4    C17   1.427212 S    
C40   C64   1.395008 A    
O9    C5    1.289741 A    
C110  H52   1.096869 S    
O7    Zn2   2.012423 S    
C23   C31   1.389376 A    
C11   C51   1.406870 A    
C75   C81   1.429229 A    
C63   H15   1.084328 S    
C76   N2    1.377415 A    
C44   C52   1.420550 A    
C78   N4    1.382825 A    
C113  H61   1.096416 S    
C82   C94   1.421469 A    
C122  H90   1.110193 S    
C18   C26   1.389378 A    
C74   C84   1.439353 A    
C40   C48   1.407823 A    
C108  H46   1.105292 S    
C56   C71   1.407788 A    
C29   H5    1.085542 S    
C51   C68   1.407664 A    
C68   H20   1.081115 S    
C109  H50   1.110055 S    
C31   C39   1.376749 A    
C79   C85   1.429223 A    
C32   C40   1.376393 A    
C112  H58   1.110883 S    
C123  H93   1.110154 S    
C9    C17   1.411539 A    
C11   C19   1.411565 A    
C27   H3    1.085537 S    
C94   C95   1.429166 A    
C106  H42   1.110213 S    
C74   N2    1.382835 A    
C10   C18   1.411629 A    
O12   Zn4   2.012356 S    
C102  H28   1.105386 S    
C50   C65   1.407882 A    
C73   N1    1.382594 A    
C43   C51   1.420611 A    
C61   C65   1.384400 A    
C49   C66   1.407789 A    
Zn4   N4    2.024319 S    
C34   C58   1.395066 A    
