data_mof_unit_40699.cif
_audit_creation_date              2012-12-11T15:06:44-0500
_audit_creation_method            fapswitch 2.2
_symmetry_space_group_name_H-M    P1
_symmetry_Int_Tables_number       1
_space_group_crystal_system       triclinic
_cell_length_a                    7.241146
_cell_length_b                    15.88935
_cell_length_c                    21.950625
_cell_angle_alpha                 90.000012
_cell_angle_beta                  90.0
_cell_angle_gamma                 89.999656
_cell_volume                      2525.57532578

loop_
_atom_site_label
_atom_site_type_symbol
_atom_type_description
_atom_site_fract_x
_atom_site_fract_y
_atom_site_fract_z
_atom_type_partial_charge
O1    O     O_R   0.390810 0.844810 0.447340 -0.527615
O2    O     O_R   0.109190 0.155190 0.947340 -0.527618
O3    O     O_R   0.890810 0.655190 0.552660 -0.527617
O4    O     O_R   0.609190 0.344810 0.052660 -0.527616
O5    O     O_R   0.720550 0.655820 0.440420 -0.530737
O6    O     O_R   0.779450 0.344180 0.940420 -0.530737
O7    O     O_R   0.220550 0.844180 0.559580 -0.530735
O8    O     O_R   0.279450 0.155820 0.059580 -0.530736
C1    C     C_R   0.553280 0.624029 0.430170 0.837249
C2    C     C_R   0.946720 0.375971 0.930170 0.837250
C3    C     C_R   0.053279 0.875971 0.569830 0.837253
C4    C     C_R   0.446721 0.124029 0.069830 0.837250
O9    O     O_R   0.720530 0.844130 0.440420 -0.523101
O10   O     O_R   0.779470 0.155870 0.940420 -0.523100
O11   O     O_R   0.220530 0.655870 0.559580 -0.523101
O12   O     O_R   0.279470 0.344130 0.059580 -0.523100
O13   O     O_R   0.890830 0.844810 0.552660 -0.546823
O14   O     O_R   0.609170 0.155190 0.052660 -0.546822
O15   O     O_R   0.390830 0.655190 0.447340 -0.546822
O16   O     O_R   0.109170 0.344810 0.947340 -0.546822
C5    C     C_R   0.552319 0.870888 0.424733 0.788878
C6    C     C_R   0.947681 0.129112 0.924733 0.788880
C7    C     C_R   0.052320 0.629111 0.575267 0.788883
C8    C     C_R   0.447680 0.370889 0.075267 0.788881
O17   O     O_3   0.557310 0.749980 0.536820 -0.379488
O18   O     O_3   0.942690 0.250020 0.036820 -0.379487
O19   O     O_3   0.057310 0.750020 0.463180 -0.379488
O20   O     O_3   0.442690 0.249980 0.963180 -0.379489
V1    V     V_3+5 0.832160 0.749980 0.493170 1.606190
V2    V     V_3+5 0.667840 0.250020 0.993170 1.606191
V3    V     V_3+5 0.332160 0.750020 0.506830 1.606193
V4    V     V_3+5 0.167840 0.249980 0.006830 1.606191
C9    C     C_R   0.834742 0.594048 0.872056 -0.044125
C10   C     C_R   0.665260 0.405952 0.372056 -0.044130
C11   C     C_R   0.334749 0.905952 0.127943 -0.044121
C12   C     C_R   0.165251 0.094048 0.627944 -0.044117
C13   C     C_R   0.948447 0.453190 0.892912 -0.135852
C14   C     C_R   0.551554 0.546810 0.392912 -0.135855
C15   C     C_R   0.448449 0.046810 0.107088 -0.135852
C16   C     C_R   0.051550 0.953190 0.607088 -0.135851
C17   C     C_R   0.128032 0.480625 0.600841 -0.063246
C18   C     C_R   0.371978 0.519377 0.100840 -0.063242
C19   C     C_R   0.628010 0.019378 0.399161 -0.063239
C20   C     C_R   0.871983 0.980623 0.899161 -0.063242
C21   C     C_R   0.150239 0.415965 0.643190 -0.126331
C22   C     C_R   0.349778 0.584037 0.143189 -0.126340
C23   C     C_R   0.650203 0.084039 0.356813 -0.126356
C24   C     C_R   0.849783 0.915963 0.856812 -0.126343
C25   C     C_R   0.097400 0.424779 0.703316 -0.159761
C26   C     C_R   0.402615 0.575224 0.203315 -0.159761
C27   C     C_R   0.597370 0.075226 0.296686 -0.159763
C28   C     C_R   0.902617 0.924776 0.796685 -0.159763
C29   C     C_R   0.020808 0.500257 0.725588 0.093657
C30   C     C_R   0.479197 0.499743 0.225587 0.093658
C31   C     C_R   0.520797 0.999744 0.274413 0.093660
C32   C     C_R   0.979197 0.000256 0.774413 0.093659
C33   C     C_R   0.990827 0.567709 0.683273 -0.000400
C34   C     C_R   0.509174 0.432290 0.183273 -0.000399
C35   C     C_R   0.490823 0.932291 0.316727 -0.000402
C36   C     C_R   0.009176 0.067709 0.816727 -0.000402
C37   C     C_R   0.972517 0.509769 0.789007 0.077903
C38   C     C_R   0.527485 0.490231 0.289007 0.077901
C39   C     C_R   0.472514 0.990232 0.210994 0.077900
C40   C     C_R   0.027483 0.009768 0.710993 0.077902
C41   C     C_R   0.881469 0.583226 0.809350 0.029253
C42   C     C_R   0.618530 0.416774 0.309350 0.029256
C43   C     C_R   0.381473 0.916774 0.190649 0.029253
C44   C     C_R   0.118527 0.083225 0.690650 0.029251
C45   C     C_R   0.845951 0.646648 0.767181 -0.195212
C46   C     C_R   0.654042 0.353350 0.267182 -0.195209
C47   C     C_R   0.345957 0.853352 0.232818 -0.195209
C48   C     C_R   0.154046 0.146647 0.732818 -0.195210
C49   C     C_R   0.902549 0.640882 0.706694 0.005535
C50   C     C_R   0.597446 0.359117 0.206694 0.005534
C51   C     C_R   0.402552 0.859117 0.293306 0.005536
C52   C     C_R   0.097450 0.140882 0.793306 0.005537
C53   C     C_R   0.013886 0.448313 0.833085 -0.187570
C54   C     C_R   0.486115 0.551686 0.333085 -0.187568
C55   C     C_R   0.513884 0.051687 0.166916 -0.187570
C56   C     C_R   0.986114 0.948313 0.666916 -0.187571
C57   C     C_R   0.865731 0.528018 0.914380 -0.107869
C58   C     C_R   0.634271 0.471983 0.414380 -0.107869
C59   C     C_R   0.365738 0.971982 0.085620 -0.107867
C60   C     C_R   0.134261 0.028018 0.585620 -0.107868
C61   C     C_R   0.049598 0.558280 0.620145 -0.155196
C62   C     C_R   0.450404 0.441720 0.120145 -0.155194
C63   C     C_R   0.549591 0.941720 0.379855 -0.155191
C64   C     C_R   0.950407 0.058280 0.879855 -0.155195
H1    H     H_    0.096960 0.395394 0.821826 0.140140
H2    H     H_    0.403038 0.604604 0.321826 0.140139
H3    H     H_    0.596958 0.104606 0.178176 0.140141
H4    H     H_    0.903041 0.895394 0.678175 0.140140
H5    H     H_    0.115484 0.369391 0.730873 0.129035
H6    H     H_    0.384540 0.630612 0.230872 0.129037
H7    H     H_    0.615439 0.130615 0.269130 0.129037
H8    H     H_    0.884540 0.869388 0.769128 0.129036
H9    H     H_    0.209347 0.356506 0.629722 0.178858
H10   H     H_    0.290679 0.643498 0.129720 0.178858
H11   H     H_    0.709293 0.143501 0.370283 0.178862
H12   H     H_    0.790684 0.856502 0.870281 0.178862
C65   C     C_2   0.819184 0.537605 0.981030 0.829402
O21   O     O_2   0.892011 0.492143 0.019038 -0.566373
O22   O     O_R   0.695654 0.599321 0.000962 -0.623307
H13   H     H_    0.686813 0.602385 0.047005 0.312642
C66   C     C_2   0.680824 0.462396 0.481030 0.829406
O23   O     O_2   0.607995 0.507858 0.519038 -0.566373
O24   O     O_R   0.804362 0.400684 0.500961 -0.623305
H14   H     H_    0.813204 0.397620 0.547004 0.312643
C67   C     C_2   0.319195 0.962394 0.018970 0.829398
O25   O     O_2   0.392024 0.007856 0.980962 -0.566374
O26   O     O_R   0.195664 0.900679 0.999037 -0.623309
H15   H     H_    0.186824 0.897615 0.952995 0.312639
C68   C     C_2   0.180804 0.037606 0.518969 0.829396
O27   O     O_2   0.107981 0.992142 0.480962 -0.566372
O28   O     O_R   0.304325 0.099325 0.499036 -0.623308
H16   H     H_    0.313166 0.102388 0.452994 0.312636
H17   H     H_    0.780075 0.704517 0.781681 0.141077
H18   H     H_    0.719913 0.295480 0.281681 0.141083
H19   H     H_    0.280083 0.795482 0.218318 0.141072
H20   H     H_    0.219924 0.204516 0.718319 0.141069
C69   C     C_2   0.759974 0.675464 0.893689 0.828118
O29   O     O_2   0.854687 0.720488 0.926321 -0.508336
O30   O     O_R   0.580349 0.699274 0.877934 -0.649146
H21   H     H_    0.542906 0.754930 0.896830 0.328614
C70   C     C_2   0.740033 0.324537 0.393689 0.828116
O31   O     O_2   0.645337 0.279518 0.426330 -0.508328
O32   O     O_R   0.919647 0.300720 0.377923 -0.649155
H22   H     H_    0.957096 0.245067 0.396820 0.328608
C71   C     C_2   0.259986 0.824536 0.106310 0.828113
O33   O     O_2   0.354706 0.779511 0.073679 -0.508337
O34   O     O_R   0.080356 0.800727 0.122062 -0.649142
H23   H     H_    0.042916 0.745072 0.103165 0.328618
C72   C     C_2   0.240013 0.175464 0.606310 0.828119
O35   O     O_2   0.145286 0.220493 0.573685 -0.508341
O36   O     O_R   0.419650 0.199268 0.622057 -0.649138
H24   H     H_    0.457090 0.254924 0.603160 0.328622
C73   C     C_2   0.184750 0.462802 0.536299 0.848444
O37   O     O_2   0.280835 0.401386 0.525003 -0.515914
O38   O     O_R   0.123459 0.513066 0.488032 -0.667014
H25   H     H_    0.169392 0.492730 0.446948 0.302058
C74   C     C_2   0.315260 0.537199 0.036298 0.848442
O39   O     O_2   0.219176 0.598615 0.025002 -0.515912
O40   O     O_R   0.376552 0.486935 0.988032 -0.667015
H26   H     H_    0.330619 0.507271 0.946948 0.302059
C75   C     C_2   0.684725 0.037199 0.463703 0.848439
O41   O     O_2   0.780810 0.098614 0.475000 -0.515905
O42   O     O_R   0.623430 0.986936 0.511969 -0.667017
H27   H     H_    0.669363 0.007270 0.553053 0.302060
C76   C     C_2   0.815270 0.962801 0.963703 0.848447
O43   O     O_2   0.719190 0.901384 0.975000 -0.515906
O44   O     O_R   0.876561 0.013066 0.011969 -0.667015
H28   H     H_    0.830631 0.992730 0.053053 0.302060
C77   C     C_2   0.877445 0.718041 0.672816 0.682370
O45   O     O_2   0.013716 0.758929 0.659609 -0.596876
O46   O     O_R   0.698744 0.747813 0.661837 -0.643659
H29   H     H_    0.695309 0.804738 0.641394 0.294523
C78   C     C_2   0.622550 0.281957 0.172816 0.682367
O47   O     O_2   0.486279 0.241070 0.159609 -0.596875
O48   O     O_R   0.801250 0.252186 0.161837 -0.643658
H30   H     H_    0.804686 0.195261 0.141394 0.294524
C79   C     C_2   0.377448 0.781958 0.327183 0.682370
O49   O     O_2   0.513719 0.741069 0.340390 -0.596875
O50   O     O_R   0.198747 0.752188 0.338162 -0.643659
H31   H     H_    0.195311 0.695263 0.358606 0.294523
C80   C     C_2   0.122555 0.218041 0.827184 0.682372
O51   O     O_2   0.986283 0.258930 0.840390 -0.596875
O52   O     O_R   0.301255 0.247812 0.838162 -0.643661
H32   H     H_    0.304691 0.304737 0.858606 0.294522

loop_
_geom_bond_atom_site_label_1
_geom_bond_atom_site_label_2
_ccdc_geom_bond_type
O17   V3    S    
C5    C63   S    
O1    C5    A    
C80   O51   D    
C31   C35   A    
O19   V1    S    
O13   V1    S    
C16   C60   A    
O3    C7    A    
O50   H31   S    
C48   C52   A    
O15   V3    S    
C12   C72   S    
C10   C42   A    
C79   O49   D    
C36   C64   A    
C9    C41   A    
O30   H21   S    
C39   C55   A    
C54   H2    S    
O7    C3    A    
C66   O24   S    
C53   H1    S    
C65   O21   D    
C2    C13   S    
C40   C44   A    
O9    V1    S    
C46   H18   S    
C71   O33   D    
C76   O44   S    
C30   C34   A    
O4    C8    A    
C25   C29   A    
O28   H16   S    
O1    V3    S    
C23   H11   S    
O2    V4    S    
C18   C22   A    
C58   C66   S    
C33   C49   A    
O3    V1    S    
O42   H27   S    
C79   O50   S    
C29   C37   A    
C1    O15   A    
C78   O47   D    
C30   C38   A    
O26   H15   S    
C37   C53   A    
C31   C39   A    
C46   C50   A    
O24   H14   S    
C59   C67   S    
C45   C49   A    
O14   V2    S    
C11   C43   A    
C77   O46   S    
C19   C23   A    
C11   C71   S    
C55   H3    S    
C44   C48   A    
C73   O37   D    
O11   C7    A    
C70   O31   D    
C22   H10   S    
O44   H28   S    
C65   O22   S    
C14   C58   A    
C9    C69   S    
C40   C56   A    
C13   C57   A    
O10   V2    S    
C34   C62   A    
C75   O42   S    
C75   O41   D    
O5    V1    S    
C24   H12   S    
C39   C43   A    
O7    V3    S    
C38   C42   A    
O8    V4    S    
O36   H24   S    
C67   O25   D    
C2    O16   A    
O52   H32   S    
C11   C59   A    
O18   V4    S    
C26   H6    S    
C23   C27   A    
C14   C54   A    
C27   C31   A    
C20   C64   A    
C13   C53   A    
C36   C52   A    
C32   C36   A    
C68   O28   S    
C15   C55   A    
C56   H4    S    
O12   C8    A    
O5    C1    A    
C19   C75   S    
C37   C41   A    
C73   O38   S    
O48   H30   S    
C21   C25   A    
O8    C4    A    
C48   H20   S    
C18   C74   S    
C16   C56   A    
O9    C5    A    
C52   C80   S    
C26   C30   A    
C69   O29   D    
C18   C62   A    
O6    V2    S    
C6    C64   S    
C72   O35   D    
C49   C77   S    
O34   H23   S    
C35   C51   A    
O22   H13   S    
C34   C50   A    
C70   O32   S    
C68   O27   D    
O16   V4    S    
C3    O13   A    
C29   C33   A    
C50   C78   S    
C17   C73   S    
C38   C54   A    
O6    C2    A    
C78   O48   S    
O38   H25   S    
C12   C44   A    
O11   V3    S    
O32   H22   S    
O12   V4    S    
C17   C61   A    
C66   O23   D    
C22   C26   A    
C20   C76   S    
C47   H19   S    
C51   C79   S    
C19   C63   A    
O2    C6    A    
C4    C15   S    
C74   O40   S    
O40   H26   S    
C15   C59   A    
C60   C68   S    
C21   H9    S    
C76   O43   D    
C47   C51   A    
C45   H17   S    
O10   C6    A    
C32   C40   A    
C42   C46   A    
C8    C62   S    
C12   C60   A    
C10   C70   S    
C41   C45   A    
C67   O26   S    
O20   V2    S    
C1    C14   S    
C33   C61   A    
C28   H8    S    
C43   C47   A    
C3    C16   S    
C35   C63   A    
C69   O30   S    
C20   C24   A    
C24   C28   A    
C80   O52   S    
C7    C61   S    
C4    O14   A    
O46   H29   S    
C72   O36   S    
C17   C21   A    
C57   C65   S    
C10   C58   A    
C25   H5    S    
C77   O45   D    
C74   O39   D    
C9    C57   A    
O4    V2    S    
C28   C32   A    
C27   H7    S    
C71   O34   S    
