data_mof_unit_36440.cif
_audit_creation_date              2012-12-11T14:49:36-0500
_audit_creation_method            fapswitch 2.2
_symmetry_space_group_name_H-M    P1
_symmetry_Int_Tables_number       1
_space_group_crystal_system       triclinic
_cell_length_a                    16.894331
_cell_length_b                    16.737383
_cell_length_c                    19.438811
_cell_angle_alpha                 117.809957
_cell_angle_beta                  62.223762
_cell_angle_gamma                 100.845746
_cell_volume                      4298.5794681

loop_
_atom_site_label
_atom_site_type_symbol
_atom_type_description
_atom_site_fract_x
_atom_site_fract_y
_atom_site_fract_z
_atom_type_partial_charge
C1    C     C_R   0.041602 0.759292 0.010008 -0.138076
C2    C     C_R   0.251718 0.520737 0.827706 -0.130991
C3    C     C_R   0.182921 0.490280 0.088202 -0.137340
C4    C     C_R   0.764139 0.418619 0.164227 -0.145101
C5    C     C_R   0.987654 0.340829 0.759474 -0.148002
C6    C     C_R   0.257019 0.540904 0.065804 0.067713
C7    C     C_R   0.938764 0.264600 0.759271 0.083600
C8    C     C_R   0.258535 0.459576 0.746038 0.074746
C9    C     C_R   0.028487 0.222464 0.003103 0.061222
C10   C     C_R   0.851335 0.132335 0.706432 -0.261518
C11   C     C_R   0.901595 0.206837 0.697528 0.114742
C12   C     C_R   0.767275 0.437201 0.240159 0.085714
C13   C     C_R   0.923015 0.221025 0.625052 -0.262865
C14   C     C_R   0.907427 0.154541 0.555962 0.143263
C15   C     C_R   0.867570 0.074288 0.560793 0.027518
C16   C     C_R   0.804713 0.560453 0.961480 -0.126239
C17   C     C_R   0.835014 0.065291 0.638011 0.143703
C18   C     C_R   0.939566 0.162963 0.478943 -0.207591
C19   C     C_R   0.941685 0.088459 0.404265 -0.205319
C20   C     C_R   0.911768 0.005298 0.406390 0.143414
C21   C     C_R   0.869631 0.999501 0.485825 0.026214
C22   C     C_R   0.838956 0.916250 0.488620 0.140858
C23   C     C_R   0.723288 0.548877 0.022489 0.059738
C24   C     C_R   0.797067 0.910944 0.567762 -0.204837
C25   C     C_R   0.795225 0.985323 0.642328 -0.207930
C26   C     C_R   0.932541 0.926230 0.329845 -0.256671
C27   C     C_R   0.914778 0.842004 0.332395 0.116935
C28   C     C_R   0.952578 0.672864 0.248856 -0.132850
C29   C     C_R   0.860101 0.838017 0.411556 -0.256549
C30   C     C_R   0.424510 0.435661 0.671616 -0.256953
C31   C     C_R   0.341430 0.415226 0.668231 0.115275
C32   C     C_R   0.338908 0.360906 0.588229 -0.256997
C33   C     C_R   0.417127 0.341091 0.511704 0.141279
C34   C     C_R   0.961177 0.759485 0.254854 0.074287
C35   C     C_R   0.498942 0.373317 0.515689 0.026033
C36   C     C_R   0.503350 0.416531 0.595724 0.141218
C37   C     C_R   0.413364 0.297988 0.431824 -0.204871
C38   C     C_R   0.488055 0.295403 0.357529 -0.207426
C39   C     C_R   0.566897 0.335903 0.362724 0.144534
C40   C     C_R   0.738376 0.483663 0.040385 -0.126649
C41   C     C_R   0.574015 0.370762 0.441007 0.028666
C42   C     C_R   0.653066 0.411559 0.446761 0.146975
C43   C     C_R   0.659631 0.445888 0.524846 -0.210283
C44   C     C_R   0.584992 0.448303 0.599119 -0.203632
C45   C     C_R   0.250034 0.569479 0.012491 -0.141495
C46   C     C_R   0.635015 0.350210 0.293674 -0.260399
C47   C     C_R   0.708677 0.401213 0.302974 0.111194
C48   C     C_R   0.720538 0.425442 0.377121 -0.277134
C49   C     C_R   0.636722 0.593001 0.058105 0.131539
C50   C     C_R   0.323704 0.568722 0.100253 0.129898
C51   C     C_R   0.402596 0.538247 0.162749 -0.223776
C52   C     C_R   0.023174 0.752981 0.173858 -0.124768
C53   C     C_R   0.327002 0.529881 0.149271 -0.175000
C54   C     C_R   0.391167 0.626303 0.075476 -0.280987
C55   C     C_R   0.469251 0.630018 0.083625 0.189330
C56   C     C_R   0.920605 0.261929 0.835417 -0.135885
C57   C     C_R   0.476383 0.582095 0.124086 0.187857
C58   C     C_R   0.559840 0.568055 0.114777 -0.276370
C59   C     C_R   0.628162 0.650798 0.027646 -0.169476
C60   C     C_R   0.544100 0.670643 0.041815 -0.226438
C61   C     C_R   0.832588 0.181762 0.145850 0.122871
C62   C     C_R   0.963589 0.863283 0.993994 0.129597
C63   C     C_R   0.889885 0.949901 0.966784 -0.226798
C64   C     C_R   0.842585 0.487285 0.240055 -0.146725
C65   C     C_R   0.929145 0.869022 0.942994 -0.177120
C66   C     C_R   0.960925 0.941313 0.067956 -0.276206
C67   C     C_R   0.172516 0.451067 0.751258 -0.132402
C68   C     C_R   0.920531 0.022495 0.092930 0.188690
C69   C     C_R   0.883552 0.026404 0.042489 0.191964
C70   C     C_R   0.839380 0.106284 0.069702 -0.287521
C71   C     C_R   0.869971 0.178413 0.195168 -0.154795
C72   C     C_R   0.913826 0.099157 0.169028 -0.230225
C73   C     C_R   0.963512 0.690272 0.933830 -0.132446
C74   C     C_R   0.991565 0.774432 0.976989 0.057907
C75   C     C_R   0.051276 0.307622 0.051662 -0.124327
C76   C     C_R   0.973138 0.238661 0.975164 -0.115686
H1    H     H_    0.084017 0.807463 0.036260 0.087670
H2    H     H_    0.958628 0.279705 0.618331 0.115951
H3    H     H_    0.968801 0.225000 0.474962 0.126514
H4    H     H_    0.723123 0.369869 0.136278 0.084588
H5    H     H_    0.972623 0.094149 0.343857 0.122931
H6    H     H_    0.969782 0.930633 0.269010 0.113816
H7    H     H_    0.841143 0.773907 0.414516 0.118495
H8    H     H_    0.771836 0.847604 0.570837 0.129320
H9    H     H_    0.768457 0.978233 0.701771 0.127493
H10   H     H_    0.428150 0.473469 0.732766 0.118856
H11   H     H_    0.275862 0.340601 0.584438 0.118609
H12   H     H_    0.873255 0.219987 0.863299 0.083653
H13   H     H_    0.351198 0.271669 0.427737 0.129650
H14   H     H_    0.482291 0.267057 0.297339 0.128132
H15   H     H_    0.626156 0.327932 0.235886 0.115336
H16   H     H_    0.815974 0.602343 0.929812 0.087312
H17   H     H_    0.778327 0.461866 0.384351 0.117015
H18   H     H_    0.720556 0.476078 0.529730 0.127173
H19   H     H_    0.589556 0.480386 0.660081 0.129483
H20   H     H_    0.564625 0.528106 0.143273 0.118195
H21   H     H_    0.686038 0.675450 0.987737 0.116295
H22   H     H_    0.406772 0.502516 0.195339 0.126704
H23   H     H_    0.152119 0.408631 0.700697 0.096445
H24   H     H_    0.539074 0.709555 0.012316 0.125968
H25   H     H_    0.274669 0.487646 0.171948 0.114289
H26   H     H_    0.388410 0.660192 0.040986 0.115822
H27   H     H_    0.809930 0.110450 0.032452 0.117158
H28   H     H_    0.910464 0.651356 0.298663 0.096205
H29   H     H_    0.864411 0.237309 0.253976 0.124695
H30   H     H_    0.862512 0.951971 0.927083 0.124529
H31   H     H_    0.941583 0.097475 0.208613 0.123465
H32   H     H_    0.930748 0.810469 0.885485 0.114911
H33   H     H_    0.985954 0.937911 0.108742 0.116205
H34   H     H_    0.091694 0.321240 0.085391 0.097204
H35   H     H_    0.690958 0.456072 0.083747 0.094819
H36   H     H_    0.049138 0.808075 0.156833 0.086695
H37   H     H_    0.873614 0.501749 0.282033 0.085027
H38   H     H_    0.933108 0.675057 0.891332 0.082175
H39   H     H_    0.288259 0.620372 0.992333 0.087014
H40   H     H_    0.940877 0.188096 0.937590 0.095851
H41   H     H_    0.304698 0.543003 0.847956 0.095863
H42   H     H_    0.159484 0.468362 0.138515 0.084176
H43   H     H_    0.002027 0.372266 0.717607 0.087223
H44   H     H_    0.831347 0.121861 0.763088 0.115820
N1    N     N_R   0.036080 0.671900 0.995420 -0.037147
N2    N     N_R   0.867430 0.509300 0.948100 -0.039126
N3    N     N_R   0.003360 0.617250 0.167070 -0.040976
N4    N     N_R   0.825450 0.461270 0.995400 -0.040809
N5    N     N_R   0.045340 0.665280 0.119770 -0.039765
N6    N     N_R   0.883740 0.497640 0.167070 -0.037703
N7    N     N_R   0.987050 0.628910 0.948110 -0.037434
N8    N     N_R   0.174550 0.538730 0.004600 -0.038616
N9    N     N_R   0.954660 0.334720 0.880230 -0.039026
N10   N     N_R   0.116260 0.502360 0.832930 -0.041909
N11   N     N_R   0.012950 0.371090 0.051890 -0.041569
N12   N     N_R   0.963920 0.328100 0.004580 -0.042475
N13   N     N_R   0.165290 0.545350 0.880240 -0.041665
N14   N     N_R   0.132570 0.490700 0.051900 -0.037866
N15   N     N_R   0.996640 0.382750 0.832930 -0.038718
N16   N     N_R   0.834710 0.454650 0.119760 -0.037702
Ni1   Ni    Ni4+2 0.104370 0.604370 0.000010 0.213420
Ni2   Ni    Ni4+2 0.895630 0.395630 0.999990 0.208493
Ni3   Ni    Ni4+2 0.991920 0.505780 0.891500 0.212551
Ni4   Ni    Ni4+2 0.008080 0.494220 0.108500 0.209466

loop_
_geom_bond_atom_site_label_1
_geom_bond_atom_site_label_2
_ccdc_geom_bond_type
C61   C70   A    
C66   C68   A    
C63   C65   A    
N13   Ni1   S    
C6    C45   A    
C27   C29   A    
C1    H1    S    
C41   C42   A    
C14   C18   A    
C35   C36   A    
N8    Ni1   S    
C3    C6    A    
C28   N3    A    
C39   C41   A    
N15   Ni3   S    
N6    Ni4   S    
C26   C27   A    
C50   C54   A    
C5    H43   S    
C1    C74   A    
N4    Ni2   S    
C22   C29   A    
N2    Ni3   S    
N1    N7    A    
N14   Ni4   S    
C30   C31   A    
C12   C64   A    
C56   H12   S    
C52   H36   S    
C10   C17   A    
N12   Ni2   S    
C23   C40   A    
C11   C13   A    
C43   H18   S    
C15   C17   A    
C18   C19   A    
C73   C74   A    
N1    Ni1   S    
C16   N2    A    
C58   H20   S    
N11   Ni4   S    
N3    N5    A    
C33   C35   A    
N9    N15   A    
N9    Ni2   S    
C63   C69   A    
C53   H25   S    
C18   H3    S    
C51   C57   A    
C9    C76   A    
C13   C14   A    
C4    C12   A    
C65   H32   S    
C56   N9    A    
C67   H23   S    
C4    N16   A    
C61   C71   A    
C51   H22   S    
C28   C34   A    
C59   C60   A    
C26   H6    S    
C21   C22   A    
N7    Ni3   S    
C7    C56   A    
C12   C47   S    
N10   Ni3   S    
C2    H41   S    
C75   N11   A    
C40   H35   S    
C27   C34   S    
C40   N4    A    
C2    N13   A    
C48   H17   S    
C62   C66   A    
C50   C53   A    
C10   H44   S    
C24   C25   A    
N16   Ni2   S    
C5    C7    A    
C70   H27   S    
C68   C69   A    
C46   H15   S    
N5    Ni1   S    
C73   N7    A    
C32   H11   S    
N3    Ni4   S    
C33   C37   A    
C73   H38   S    
C51   C53   A    
C7    C11   S    
C43   C44   A    
C37   C38   A    
C3    H42   S    
N8    N14   A    
C28   H28   S    
C47   C48   A    
C72   H31   S    
C68   C72   A    
C25   H9    S    
C42   C48   A    
C6    C50   S    
C63   H30   S    
C39   C46   A    
C4    H4    S    
C16   H16   S    
C16   C23   A    
C64   N6    A    
C71   H29   S    
C59   H21   S    
C22   C24   A    
C36   C44   A    
C67   N10   A    
C30   H10   S    
C42   C43   A    
N2    N4    A    
N11   N12   A    
C54   C55   A    
C5    N15   A    
C46   C47   A    
C75   H34   S    
C64   H37   S    
C62   C65   A    
C8    C31   S    
C54   H26   S    
C31   C32   A    
C2    C8    A    
C45   H39   S    
C60   H24   S    
C52   N5    A    
C29   H7    S    
C30   C36   A    
C9    C75   A    
C38   H14   S    
C34   C52   A    
C49   C59   A    
C49   C58   A    
C37   H13   S    
C3    N14   A    
C17   C25   A    
C32   C33   A    
C19   C20   A    
C55   C57   A    
C24   H8    S    
C71   C72   A    
C44   H19   S    
C19   H5    S    
C76   N12   A    
C57   C58   A    
C38   C39   A    
C20   C26   A    
C76   H40   S    
C66   H33   S    
C69   C70   A    
C35   C41   A    
C1    N1    A    
C23   C49   S    
C10   C11   A    
C13   H2    S    
N6    N16   A    
N10   N13   A    
C15   C21   A    
C20   C21   A    
C8    C67   A    
C14   C15   A    
C62   C74   S    
C45   N8    A    
C55   C60   A    
