data_mof_unit_36233.cif
_audit_creation_date              2012-12-11T15:33:44-0500
_audit_creation_method            fapswitch 2.2
_symmetry_space_group_name_H-M    P1
_symmetry_Int_Tables_number       1
_space_group_crystal_system       triclinic
_cell_length_a                    27.083307
_cell_length_b                    7.20117
_cell_length_c                    22.758636
_cell_angle_alpha                 89.926704
_cell_angle_beta                  101.207295
_cell_angle_gamma                 89.904859
_cell_volume                      4353.99583889

loop_
_atom_site_label
_atom_site_type_symbol
_atom_type_description
_atom_site_fract_x
_atom_site_fract_y
_atom_site_fract_z
_atom_type_partial_charge
O1    O     O_R   0.207310 0.594030 0.676830 -0.523219
O2    O     O_R   0.792690 0.405970 0.323170 -0.523221
O3    O     O_R   0.292690 0.094030 0.823170 -0.526370
O4    O     O_R   0.707310 0.905970 0.176830 -0.526370
O5    O     O_R   0.197320 0.262370 0.795700 -0.544401
O6    O     O_R   0.802680 0.737630 0.204300 -0.544402
O7    O     O_R   0.302680 0.762370 0.704300 -0.543068
O8    O     O_R   0.697320 0.237630 0.295700 -0.543068
C1    C     C_R   0.184716 0.432527 0.812011 0.699221
C2    C     C_R   0.815283 0.567473 0.187989 0.699221
C3    C     C_R   0.315283 0.932471 0.687979 0.691562
C4    C     C_R   0.684716 0.067529 0.312021 0.691563
O9    O     O_R   0.201410 0.264250 0.675590 -0.549066
O10   O     O_R   0.798590 0.735750 0.324410 -0.549065
O11   O     O_R   0.298590 0.764250 0.824410 -0.540849
O12   O     O_R   0.701410 0.235750 0.175590 -0.540847
O13   O     O_R   0.296810 0.094940 0.702210 -0.539764
O14   O     O_R   0.703190 0.905060 0.297790 -0.539764
O15   O     O_R   0.203190 0.594940 0.797790 -0.535557
O16   O     O_R   0.796810 0.405060 0.202210 -0.535557
C5    C     C_R   0.189770 0.432910 0.653464 0.846893
C6    C     C_R   0.810230 0.567090 0.346536 0.846899
C7    C     C_R   0.310246 0.932440 0.846532 0.856460
C8    C     C_R   0.689754 0.067560 0.153468 0.856456
O17   O     O_3   0.281300 0.427390 0.758870 -0.376950
O18   O     O_3   0.718700 0.572610 0.241130 -0.376950
O19   O     O_3   0.218700 0.927390 0.741130 -0.378387
O20   O     O_3   0.781300 0.072610 0.258870 -0.378388
V1    V     V_3+5 0.244190 0.152150 0.748350 1.479702
V2    V     V_3+5 0.755810 0.847850 0.251650 1.479705
V3    V     V_3+5 0.255810 0.652150 0.751650 1.495416
V4    V     V_3+5 0.744190 0.347850 0.248350 1.495415
C9    C     C_R   0.655029 0.061924 0.094757 -0.221028
C10   C     C_R   0.344970 0.938077 0.905243 -0.221025
C11   C     C_R   0.844769 0.559081 0.405398 -0.237431
C12   C     C_R   0.155230 0.440918 0.594602 -0.237436
C13   C     C_R   0.641127 0.083138 0.986578 0.621239
C14   C     C_R   0.358871 0.916891 0.013423 0.621238
C15   C     C_R   0.857720 0.549851 0.513758 0.630154
C16   C     C_R   0.142279 0.450131 0.486242 0.630158
C17   C     C_R   0.673350 0.099121 0.042450 0.004493
C18   C     C_R   0.326648 0.900903 0.957550 0.004495
C19   C     C_R   0.825415 0.576391 0.458085 0.022248
C20   C     C_R   0.174584 0.423592 0.541915 0.022250
C21   C     C_R   0.603590 0.022253 0.090963 0.492760
C22   C     C_R   0.396410 0.977739 0.909037 0.492755
C23   C     C_R   0.896722 0.530456 0.408881 0.499062
C24   C     C_R   0.103278 0.469553 0.591119 0.499064
C25   C     C_R   0.569002 0.033492 0.035169 -0.107634
C26   C     C_R   0.430998 0.966507 0.964831 -0.107631
C27   C     C_R   0.930809 0.531390 0.465097 -0.110455
C28   C     C_R   0.069190 0.468615 0.534903 -0.110454
C29   C     C_R   0.589735 0.043561 0.982759 -0.150118
C30   C     C_R   0.410264 0.956452 0.017241 -0.150119
C31   C     C_R   0.909597 0.520149 0.517099 -0.153114
C32   C     C_R   0.090402 0.479846 0.482902 -0.153114
C33   C     C_R   0.515125 0.022197 0.028839 0.043889
C34   C     C_R   0.484875 0.977801 0.971162 0.043885
C35   C     C_R   0.984812 0.528527 0.471807 0.045729
C36   C     C_R   0.015188 0.471481 0.528195 0.045733
C37   C     C_R   0.510230 0.941929 0.922945 0.248299
C38   C     C_R   0.489771 0.058073 0.077056 0.248297
C39   C     C_R   0.989888 0.415391 0.574700 0.247225
C40   C     C_R   0.010112 0.584616 0.425302 0.247232
C41   C     C_R   0.560156 0.996257 0.927589 -0.071763
C42   C     C_R   0.439844 0.003755 0.072411 -0.071764
C43   C     C_R   0.939390 0.461079 0.570953 -0.069590
C44   C     C_R   0.060609 0.538919 0.429047 -0.069590
H1    H     H_    0.577458 0.980039 0.888746 0.200162
H2    H     H_    0.422542 0.019981 0.111254 0.200165
H3    H     H_    0.922043 0.428822 0.608846 0.201100
H4    H     H_    0.077956 0.571171 0.391154 0.201097
C45   C     C_R   0.630703 0.881980 0.369179 -0.134715
C46   C     C_R   0.369297 0.118020 0.630821 -0.134714
C47   C     C_R   0.869468 0.381854 0.131000 -0.125902
C48   C     C_R   0.130532 0.618146 0.869000 -0.125901
H5    H     H_    0.646674 0.754477 0.355852 0.131978
H6    H     H_    0.353326 0.245523 0.644148 0.131978
H7    H     H_    0.853626 0.254359 0.144459 0.132211
H8    H     H_    0.146373 0.745641 0.855541 0.132211
C49   C     C_R   0.594808 0.869015 0.405709 -0.122488
C50   C     C_R   0.405192 0.130985 0.594291 -0.122487
C51   C     C_R   0.905364 0.368898 0.094464 -0.125052
C52   C     C_R   0.094636 0.631102 0.905536 -0.125053
H9    H     H_    0.584412 0.732445 0.419088 0.138102
H10   H     H_    0.415588 0.267555 0.580912 0.138102
H11   H     H_    0.915887 0.232337 0.081201 0.137377
H12   H     H_    0.084112 0.767663 0.918799 0.137377
C53   C     C_R   0.572813 0.029427 0.424783 0.016531
C54   C     C_R   0.427187 0.970573 0.575217 0.016531
C55   C     C_R   0.927198 0.529319 0.075238 0.017483
C56   C     C_R   0.072802 0.470681 0.924762 0.017483
C57   C     C_R   0.587736 0.203595 0.406037 -0.117130
C58   C     C_R   0.412264 0.796405 0.593963 -0.117129
C59   C     C_R   0.912121 0.703473 0.093840 -0.118139
C60   C     C_R   0.087879 0.296526 0.906160 -0.118139
H13   H     H_    0.571686 0.330369 0.419779 0.143293
H14   H     H_    0.428314 0.669631 0.580221 0.143293
H15   H     H_    0.928047 0.830251 0.079982 0.143341
H16   H     H_    0.071953 0.169749 0.920019 0.143342
C61   C     C_R   0.623734 0.216708 0.369361 -0.136323
C62   C     C_R   0.376266 0.783292 0.630639 -0.136322
C63   C     C_R   0.876125 0.716575 0.130517 -0.145989
C64   C     C_R   0.123875 0.283425 0.869483 -0.145991
H17   H     H_    0.634313 0.353152 0.356089 0.127737
H18   H     H_    0.365687 0.646848 0.643911 0.127736
H19   H     H_    0.865422 0.853022 0.143668 0.126712
H20   H     H_    0.134578 0.146978 0.856332 0.126713
C65   C     C_R   0.645817 0.055932 0.350401 -0.040531
C66   C     C_R   0.354183 0.944068 0.649599 -0.040532
C67   C     C_R   0.854194 0.555803 0.149623 -0.039500
C68   C     C_R   0.145806 0.444197 0.850377 -0.039501
N1    N     N_R   0.513380 0.168438 0.482925 -0.268289
N2    N     N_R   0.486620 0.831562 0.517075 -0.268289
N3    N     N_R   0.986469 0.668408 0.016951 -0.268746
N4    N     N_R   0.013531 0.331592 0.983049 -0.268746
N5    N     N_R   0.479436 0.154420 0.518054 -0.273734
N6    N     N_R   0.520563 0.845580 0.481946 -0.273734
N7    N     N_R   0.020408 0.654448 0.981811 -0.273803
N8    N     N_R   0.979592 0.345552 0.018189 -0.273803
C69   C     C_R   0.465252 0.985708 0.535971 0.527302
C70   C     C_R   0.534748 0.014292 0.464029 0.527302
C71   C     C_R   0.034742 0.485767 0.964018 0.527164
C72   C     C_R   0.965258 0.514233 0.035982 0.527163
F1    F     F_    0.410967 0.044013 0.859280 -0.705646
F2    F     F_    0.589033 0.955971 0.140719 -0.705642
F3    F     F_    0.087585 0.517732 0.642089 -0.705311
F4    F     F_    0.912416 0.482289 0.357911 -0.705314
N9    N     N_3   0.274517 0.857164 0.953903 -0.655224
H21   H     H_    0.272326 0.728889 0.974807 0.271048
H22   H     H_    0.258738 0.957714 0.977809 0.271900
N10   N     N_3   0.725480 0.142887 0.046098 -0.655221
H23   H     H_    0.727666 0.271182 0.025204 0.271036
H24   H     H_    0.741261 0.042368 0.022183 0.271910
N11   N     N_3   0.227614 0.391463 0.545911 -0.646139
H25   H     H_    0.235487 0.256904 0.562453 0.224940
H26   H     H_    0.237253 0.394873 0.503661 0.303608
N12   N     N_3   0.772383 0.608503 0.454089 -0.646145
H27   H     H_    0.764509 0.743069 0.437554 0.224944
H28   H     H_    0.762743 0.605063 0.496338 0.303609
F5    F     F_    0.660330 0.103182 0.936004 -0.662968
F6    F     F_    0.339668 0.896868 0.063996 -0.662968
F7    F     F_    0.838524 0.549123 0.564713 -0.666295
F8    F     F_    0.161474 0.450847 0.435287 -0.666293
N13   N     N_3   0.490477 0.821805 0.873573 -0.632163
H29   H     H_    0.459750 0.744328 0.881092 0.257786
H30   H     H_    0.481535 0.899475 0.834114 0.296470
N14   N     N_3   0.509526 0.178195 0.126427 -0.632166
H31   H     H_    0.518467 0.100525 0.165887 0.296469
H32   H     H_    0.540252 0.255669 0.118908 0.257783
N15   N     N_3   0.010623 0.284168 0.620606 -0.632392
H33   H     H_    0.042240 0.215688 0.611352 0.257404
H34   H     H_    0.018537 0.350682 0.662141 0.297236
N16   N     N_3   0.989378 0.715847 0.379397 -0.632389
H35   H     H_    0.981465 0.649340 0.337862 0.297234
H36   H     H_    0.957761 0.784325 0.388652 0.257407

loop_
_geom_bond_atom_site_label_1
_geom_bond_atom_site_label_2
_ccdc_geom_bond_type
O17   V3    S    
C51   H11   S    
C25   C29   A    
O1    C5    A    
N4    C71   A    
O19   V1    S    
C9    C21   A    
C22   F1    S    
O3    C7    A    
C10   C18   A    
C56   C60   A    
O15   V3    S    
C48   C52   A    
N13   H29   S    
C25   C33   A    
N11   H25   S    
C5    C12   S    
O7    C3    A    
C6    C11   S    
C35   C40   A    
C26   C30   A    
C13   F5    S    
C36   C39   A    
C40   C44   A    
O9    V1    S    
N14   H32   S    
C14   C18   A    
O4    C8    A    
C59   H15   S    
C43   H3    S    
C53   C70   S    
C58   H14   S    
C61   C65   A    
C40   N16   S    
O1    V3    S    
O13   V1    S    
C19   N12   S    
O2    V4    S    
N6    C70   A    
O3    V1    S    
N5    C69   A    
C37   N13   S    
C28   C36   A    
N2    C69   A    
C1    O15   A    
C15   C31   A    
N1    C70   A    
C2    O16   A    
N10   H23   S    
C16   C32   A    
O2    C6    A    
N15   H33   S    
C12   C24   A    
C10   C22   A    
C11   C19   A    
C16   C20   A    
N16   H36   S    
C48   C68   A    
C13   C29   A    
C34   C37   A    
O11   C7    A    
C11   C23   A    
C35   C36   A    
O12   C8    A    
C38   N14   S    
C3    C66   S    
C53   C57   A    
C14   F6    S    
O10   V2    S    
C45   C49   A    
C4    C65   S    
N13   H30   S    
C59   C63   A    
C54   C58   A    
O5    V1    S    
C61   H17   S    
C39   C43   A    
C20   N11   S    
O7    V3    S    
C38   C42   A    
C26   C34   A    
C52   H12   S    
C33   C38   A    
N14   H31   S    
C56   C71   S    
C57   C61   A    
C64   C68   A    
O18   V4    S    
C15   C19   A    
C50   H10   S    
O4    V2    S    
N4    N8    A    
C44   H4    S    
O8    V4    S    
O5    C1    A    
C31   C43   A    
C14   C30   A    
C21   C25   A    
C21   F2    S    
O8    C4    A    
C7    C10   S    
O9    C5    A    
C2    C67   S    
O11   V3    S    
C39   N15   S    
N16   H35   S    
N2    N6    A    
N12   H28   S    
N1    N5    A    
O6    V2    S    
C15   F7    S    
N3    N7    A    
C55   C72   S    
C16   F8    S    
O14   V2    S    
C54   C69   S    
C12   C20   A    
C27   C35   A    
C57   H13   S    
C64   H20   S    
C29   C41   A    
N9    H21   S    
O16   V4    S    
N11   H26   S    
C3    O13   A    
N3    C72   A    
C48   H8    S    
O6    C2    A    
C17   N10   S    
C23   C27   A    
C45   C65   A    
C30   C42   A    
C63   C67   A    
N7    C71   A    
O12   V4    S    
C51   C55   A    
C22   C26   A    
C47   C67   A    
C8    C9    S    
C50   C54   A    
C9    C17   A    
O10   C6    A    
C60   C64   A    
C49   C53   A    
C32   C44   A    
C24   F3    S    
C47   C51   A    
C33   C34   A    
C42   H2    S    
C28   C32   A    
C1    C68   S    
C41   H1    S    
C60   H16   S    
O20   V2    S    
C62   H18   S    
C18   N9    S    
C27   C31   A    
N15   H34   S    
C13   C17   A    
C49   H9    S    
C62   C66   A    
N12   H27   S    
C55   C59   A    
C37   C41   A    
C24   C28   A    
C58   C62   A    
N10   H24   S    
C46   H6    S    
C4    O14   A    
C45   H5    S    
C63   H19   S    
C23   F4    S    
C52   C56   A    
C46   C66   A    
C47   H7    S    
C46   C50   A    
N8    C72   A    
N9    H22   S    
