data_mof_unit_38710.cif
_audit_creation_date              2012-12-11T15:08:49-0500
_audit_creation_method            fapswitch 2.2
_symmetry_space_group_name_H-M    P1
_symmetry_Int_Tables_number       1
_space_group_crystal_system       triclinic
_cell_length_a                    19.411331
_cell_length_b                    11.269321
_cell_length_c                    18.719943
_cell_angle_alpha                 90.000021
_cell_angle_beta                  90.318627
_cell_angle_gamma                 90.0
_cell_volume                      4094.97138614

loop_
_atom_site_label
_atom_site_type_symbol
_atom_type_description
_atom_site_fract_x
_atom_site_fract_y
_atom_site_fract_z
_atom_type_partial_charge
Br1   Br    Br    0.593881 0.136769 0.039149 -0.553105
Br2   Br    Br    0.406119 0.136768 0.960851 -0.553106
Br3   Br    Br    0.093881 0.636769 0.039149 -0.553105
Br4   Br    Br    0.906119 0.636769 0.960851 -0.553105
C1    C     C_R   0.272355 0.044742 0.853891 0.528466
C2    C     C_3   0.689424 0.526736 0.956237 -0.256464
C3    C     C_R   0.226925 0.543327 0.354280 0.533790
C4    C     C_R   0.468620 0.823150 0.645292 0.539485
C5    C     C_R   0.531380 0.823150 0.354708 0.539486
C6    C     C_R   0.968620 0.323150 0.645292 0.539485
C7    C     C_R   0.031380 0.323150 0.354708 0.539486
C8    C     C_R   0.260944 0.640166 0.643545 0.539330
C9    C     C_R   0.739056 0.640166 0.356455 0.539330
C10   C     C_R   0.760944 0.140166 0.643545 0.539330
C11   C     C_R   0.239056 0.140166 0.356455 0.539330
C12   C     C_3   0.479697 0.912306 0.035643 -0.042065
C13   C     C_3   0.810576 0.026736 0.043763 -0.256465
C14   C     C_3   0.520302 0.912307 0.964358 -0.042065
C15   C     C_3   0.979698 0.412306 0.035642 -0.042065
C16   C     C_3   0.020303 0.412306 0.964358 -0.042067
C17   C     C_3   0.431677 0.814686 0.006238 -0.166460
C18   C     C_3   0.568323 0.814687 0.993762 -0.166459
C19   C     C_3   0.931678 0.314687 0.006237 -0.166458
C20   C     C_3   0.068323 0.314686 0.993762 -0.166460
C21   C     C_3   0.472142 0.816643 0.935973 0.048849
C22   C     C_3   0.527858 0.816642 0.064027 0.048850
C23   C     C_3   0.972143 0.316643 0.935972 0.048850
C24   C     C_3   0.189424 0.026737 0.956237 -0.256464
C25   C     C_3   0.027858 0.316642 0.064027 0.048849
C26   C     C_3   0.320743 0.549297 0.963337 -0.241764
C27   C     C_3   0.679257 0.549297 0.036663 -0.241764
C28   C     C_3   0.820743 0.049297 0.963337 -0.241764
C29   C     C_3   0.179257 0.049297 0.036663 -0.241764
C30   C     C_3   0.176622 0.535715 0.025624 0.043482
C31   C     C_3   0.823377 0.535714 0.974376 0.043481
C32   C     C_3   0.676622 0.035715 0.025624 0.043481
C33   C     C_R   0.727645 0.044742 0.146109 0.528465
C34   C     C_3   0.323377 0.035714 0.974376 0.043482
C35   C     C_3   0.247359 0.712039 0.057556 -0.232998
C36   C     C_3   0.752641 0.712039 0.942444 -0.232998
C37   C     C_3   0.747360 0.212039 0.057556 -0.232999
C38   C     C_3   0.252641 0.212039 0.942444 -0.232998
C39   C     C_3   0.240969 0.578846 0.070586 0.064698
C40   C     C_3   0.759031 0.578846 0.929414 0.064699
C41   C     C_3   0.740970 0.078846 0.070586 0.064698
C42   C     C_3   0.259031 0.078846 0.929414 0.064699
C43   C     C_3   0.256295 0.612043 0.932555 0.032886
C44   C     C_R   0.772355 0.544742 0.853891 0.528466
C45   C     C_3   0.743706 0.612043 0.067445 0.032886
C46   C     C_3   0.756295 0.112043 0.932555 0.032887
C47   C     C_3   0.243706 0.112043 0.067445 0.032886
C48   C     C_3   0.193643 0.531767 0.945464 -0.224576
C49   C     C_3   0.806357 0.531767 0.054536 -0.224577
C50   C     C_3   0.693643 0.031767 0.945464 -0.224577
C51   C     C_3   0.306357 0.031766 0.054536 -0.224577
C52   C     C_3   0.244937 0.729649 0.975117 -0.212736
C53   C     C_3   0.755063 0.729648 0.024884 -0.212735
C54   C     C_3   0.744937 0.229649 0.975116 -0.212735
C55   C     C_R   0.227645 0.544742 0.146109 0.528466
C56   C     C_3   0.255063 0.229648 0.024884 -0.212735
C57   C     C_3   0.503764 0.701088 0.460356 -0.227467
C58   C     C_3   0.496236 0.701088 0.539644 -0.227469
C59   C     C_3   0.003764 0.201088 0.460356 -0.227467
C60   C     C_3   0.996236 0.201088 0.539644 -0.227469
C61   C     C_R   0.444000 0.816594 0.862401 0.540331
C62   C     C_R   0.556000 0.816594 0.137599 0.540331
C63   C     C_R   0.944001 0.316594 0.862401 0.540334
C64   C     C_R   0.056000 0.316594 0.137599 0.540332
C65   C     C_3   0.564581 0.905317 0.473883 -0.216904
C66   C     C_3   0.519847 0.718559 0.964580 -0.120257
C67   C     C_3   0.435419 0.905318 0.526117 -0.216904
C68   C     C_3   0.064581 0.405317 0.473883 -0.216904
C69   C     C_3   0.935419 0.405318 0.526117 -0.216904
C70   C     C_3   0.440988 0.887562 0.444207 -0.263006
C71   C     C_3   0.559012 0.887560 0.555793 -0.263007
C72   C     C_3   0.940988 0.387562 0.444207 -0.263006
C73   C     C_3   0.059012 0.387560 0.555793 -0.263007
C74   C     C_3   0.510683 0.829354 0.430940 0.062388
C75   C     C_3   0.489318 0.829354 0.569060 0.062388
C76   C     C_3   0.010682 0.329354 0.430940 0.062388
C77   C     C_3   0.480153 0.718559 0.035419 -0.120256
C78   C     C_3   0.989318 0.329354 0.569060 0.062388
C79   C     C_3   0.179722 0.647056 0.459188 -0.227889
C80   C     C_3   0.820278 0.647055 0.540812 -0.227889
C81   C     C_3   0.679722 0.147056 0.459188 -0.227889
C82   C     C_3   0.320278 0.147055 0.540812 -0.227889
C83   C     C_3   0.184477 0.659646 0.538404 -0.227549
C84   C     C_3   0.815523 0.659646 0.461596 -0.227549
C85   C     C_3   0.684477 0.159646 0.538404 -0.227549
C86   C     C_3   0.315523 0.159646 0.461596 -0.227549
C87   C     C_3   0.252517 0.454516 0.473038 -0.215281
C88   C     C_3   0.019848 0.218559 0.964580 -0.120257
C89   C     C_3   0.747483 0.454517 0.526962 -0.215281
C90   C     C_3   0.752517 0.954516 0.473038 -0.215281
C91   C     C_3   0.247483 0.954517 0.526962 -0.215281
C92   C     C_3   0.304708 0.647890 0.442703 -0.264064
C93   C     C_3   0.695292 0.647891 0.557297 -0.264064
C94   C     C_3   0.804708 0.147890 0.442703 -0.264064
C95   C     C_3   0.195292 0.147891 0.557297 -0.264064
C96   C     C_3   0.240622 0.572485 0.430023 0.065795
C97   C     C_3   0.759378 0.572485 0.569976 0.065795
C98   C     C_3   0.740622 0.072485 0.430023 0.065795
C99   C     C_3   0.980153 0.218559 0.035419 -0.120257
C100  C     C_3   0.259378 0.072485 0.569976 0.065795
C101  C     C_3   0.252787 0.606012 0.567595 0.064130
C102  C     C_3   0.747213 0.606012 0.432405 0.064130
C103  C     C_3   0.752787 0.106012 0.567595 0.064130
C104  C     C_3   0.247213 0.106012 0.432405 0.064130
C105  C     C_3   0.247246 0.472734 0.554747 -0.264429
C106  C     C_3   0.752753 0.472734 0.445253 -0.264429
C107  C     C_3   0.747246 0.972734 0.554747 -0.264429
C108  C     C_3   0.252754 0.972734 0.445253 -0.264429
C109  C     C_R   0.262661 0.642984 0.855349 0.532975
C110  C     C_3   0.310576 0.526736 0.043763 -0.256465
C111  C     C_R   0.737339 0.642983 0.144651 0.532975
C112  C     C_R   0.762661 0.142984 0.855349 0.532975
C113  C     C_R   0.237339 0.142983 0.144651 0.532975
C114  C     C_3   0.317378 0.648436 0.524432 -0.217236
C115  C     C_3   0.682622 0.648437 0.475569 -0.217236
C116  C     C_3   0.817377 0.148436 0.524432 -0.217236
C117  C     C_3   0.182622 0.148437 0.475569 -0.217236
C118  C     C_R   0.273075 0.043327 0.645720 0.533790
C119  C     C_R   0.726925 0.043327 0.354280 0.533790
C120  C     C_R   0.773075 0.543327 0.645720 0.533790
Cr1   Cr    Cr6+3 0.229620 0.836040 0.749110 1.004306
Cr2   Cr    Cr6+3 0.613980 0.676590 0.250790 1.005245
Cr3   Cr    Cr6+3 0.886020 0.176590 0.749210 1.005245
Cr4   Cr    Cr6+3 0.113980 0.176590 0.250790 1.005245
Cr5   Cr    Cr6+3 0.770380 0.836040 0.250890 1.004306
Cr6   Cr    Cr6+3 0.729620 0.336040 0.749110 1.004306
Cr7   Cr    Cr6+3 0.270380 0.336040 0.250890 1.004306
Cr8   Cr    Cr6+3 0.387630 0.990680 0.750730 1.039340
Cr9   Cr    Cr6+3 0.612370 0.990680 0.249270 1.039340
Cr10  Cr    Cr6+3 0.887630 0.490680 0.750730 1.039340
Cr11  Cr    Cr6+3 0.112370 0.490680 0.249270 1.039340
Cr12  Cr    Cr6+3 0.386020 0.676590 0.749210 1.005245
H1    H     H_    0.376830 0.805971 0.015737 0.089975
H2    H     H_    0.704326 0.744614 0.917883 0.090743
H3    H     H_    0.193509 0.928992 0.537400 0.119410
H4    H     H_    0.289509 0.425454 0.583017 0.110488
H5    H     H_    0.710489 0.425455 0.416983 0.110488
H6    H     H_    0.789509 0.925454 0.583017 0.110488
H7    H     H_    0.210489 0.925455 0.416983 0.110488
H8    H     H_    0.314734 0.433154 0.055619 0.141741
H9    H     H_    0.685265 0.433154 0.944381 0.141741
H10   H     H_    0.814733 0.933154 0.055618 0.141740
H11   H     H_    0.185266 0.933155 0.944381 0.141741
H12   H     H_    0.353893 0.567239 0.074126 0.121447
H13   H     H_    0.795675 0.244614 0.082117 0.090744
H14   H     H_    0.646107 0.567241 0.925875 0.121445
H15   H     H_    0.853892 0.067239 0.074126 0.121447
H16   H     H_    0.146107 0.067241 0.925874 0.121445
H17   H     H_    0.367103 0.605306 0.955253 0.148025
H18   H     H_    0.632897 0.605307 0.044747 0.148026
H19   H     H_    0.867103 0.105307 0.955254 0.148026
H20   H     H_    0.132897 0.105307 0.044747 0.148025
H21   H     H_    0.329929 0.463939 0.935250 0.141390
H22   H     H_    0.670071 0.463939 0.064750 0.141391
H23   H     H_    0.829929 0.963939 0.935250 0.141391
H24   H     H_    0.204326 0.244615 0.917883 0.090743
H25   H     H_    0.170070 0.963939 0.064750 0.141391
H26   H     H_    0.660379 0.949593 0.045614 0.114540
H27   H     H_    0.339620 0.949592 0.954386 0.114540
H28   H     H_    0.160379 0.449593 0.045614 0.114540
H29   H     H_    0.839621 0.449592 0.954385 0.114541
H30   H     H_    0.705404 0.940358 0.928462 0.079431
H31   H     H_    0.294595 0.940357 0.071538 0.079431
H32   H     H_    0.205404 0.440358 0.928461 0.079431
H33   H     H_    0.794595 0.440357 0.071538 0.079431
H34   H     H_    0.280630 0.797813 0.957178 0.082770
H35   H     H_    0.719371 0.797813 0.042822 0.082770
H36   H     H_    0.780630 0.297814 0.957178 0.082770
H37   H     H_    0.219371 0.297814 0.042822 0.082771
H38   H     H_    0.192220 0.758102 0.961533 0.185581
H39   H     H_    0.807781 0.758101 0.038468 0.185582
H40   H     H_    0.692220 0.258102 0.961533 0.185581
H41   H     H_    0.623171 0.805974 0.984261 0.089974
H42   H     H_    0.307781 0.258101 0.038468 0.185582
H43   H     H_    0.148712 0.561134 0.912998 0.167915
H44   H     H_    0.851288 0.561133 0.087002 0.167914
H45   H     H_    0.648712 0.061134 0.912998 0.167915
H46   H     H_    0.351288 0.061133 0.087002 0.167914
H47   H     H_    0.546884 0.644122 0.446378 0.136266
H48   H     H_    0.453116 0.644123 0.553622 0.136267
H49   H     H_    0.046884 0.144122 0.446378 0.136266
H50   H     H_    0.953116 0.144123 0.553622 0.136267
H51   H     H_    0.458796 0.656243 0.435493 0.115590
H52   H     H_    0.876830 0.305971 0.015736 0.089974
H53   H     H_    0.541203 0.656241 0.564507 0.115590
H54   H     H_    0.958796 0.156243 0.435493 0.115590
H55   H     H_    0.041203 0.156241 0.564507 0.115590
H56   H     H_    0.616604 0.896815 0.454116 0.112069
H57   H     H_    0.383397 0.896815 0.545884 0.112069
H58   H     H_    0.116604 0.396815 0.454116 0.112069
H59   H     H_    0.883397 0.396815 0.545884 0.112069
H60   H     H_    0.601023 0.830937 0.576365 0.109660
H61   H     H_    0.398977 0.830940 0.423635 0.109660
H62   H     H_    0.101023 0.330937 0.576365 0.109660
H63   H     H_    0.123171 0.305971 0.984263 0.089975
H64   H     H_    0.898977 0.330940 0.423635 0.109660
H65   H     H_    0.464349 0.990056 0.068045 0.192641
H66   H     H_    0.535651 0.990057 0.931955 0.192642
H67   H     H_    0.964349 0.490056 0.068045 0.192642
H68   H     H_    0.035652 0.490056 0.931955 0.192641
H69   H     H_    0.437918 0.973862 0.415808 0.111011
H70   H     H_    0.562083 0.973860 0.584193 0.111011
H71   H     H_    0.937918 0.473862 0.415808 0.111011
H72   H     H_    0.062083 0.473860 0.584193 0.111011
H73   H     H_    0.449678 0.998662 0.536269 0.118174
H74   H     H_    0.205762 0.763232 0.083816 0.171670
H75   H     H_    0.550323 0.998661 0.463732 0.118174
H76   H     H_    0.949678 0.498662 0.536269 0.118174
H77   H     H_    0.050323 0.498661 0.463732 0.118174
H78   H     H_    0.129477 0.610569 0.445467 0.135586
H79   H     H_    0.870523 0.610567 0.554532 0.135585
H80   H     H_    0.629477 0.110569 0.445467 0.135585
H81   H     H_    0.370523 0.110567 0.554532 0.135585
H82   H     H_    0.179245 0.736172 0.433971 0.115423
H83   H     H_    0.820755 0.736171 0.566029 0.115424
H84   H     H_    0.679245 0.236172 0.433971 0.115423
H85   H     H_    0.794238 0.763231 0.916184 0.171670
H86   H     H_    0.320756 0.236171 0.566029 0.115424
H87   H     H_    0.177987 0.752905 0.551904 0.135414
H88   H     H_    0.822013 0.752904 0.448096 0.135414
H89   H     H_    0.677987 0.252905 0.551904 0.135414
H90   H     H_    0.322013 0.252904 0.448096 0.135414
H91   H     H_    0.139681 0.615653 0.563669 0.116294
H92   H     H_    0.860319 0.615653 0.436331 0.116294
H93   H     H_    0.639681 0.115653 0.563669 0.116294
H94   H     H_    0.360319 0.115653 0.436331 0.116294
H95   H     H_    0.722068 0.880642 0.453621 0.113112
H96   H     H_    0.705763 0.263232 0.083816 0.171670
H97   H     H_    0.277933 0.880643 0.546378 0.113112
H98   H     H_    0.222068 0.380642 0.453621 0.113112
H99   H     H_    0.777933 0.380643 0.546378 0.113112
H100  H     H_    0.698027 0.938442 0.575508 0.109491
H101  H     H_    0.301972 0.938442 0.424491 0.109490
H102  H     H_    0.198027 0.438442 0.575508 0.109491
H103  H     H_    0.801972 0.438442 0.424491 0.109490
H104  H     H_    0.349341 0.609141 0.414172 0.110814
H105  H     H_    0.650659 0.609143 0.585829 0.110815
H106  H     H_    0.849341 0.109141 0.414172 0.110814
H107  H     H_    0.294238 0.263231 0.916184 0.171670
H108  H     H_    0.150659 0.109143 0.585829 0.110815
H109  H     H_    0.296795 0.738643 0.421982 0.108720
H110  H     H_    0.703206 0.738645 0.578017 0.108721
H111  H     H_    0.796795 0.238643 0.421982 0.108720
H112  H     H_    0.203206 0.238645 0.578017 0.108721
H113  H     H_    0.535150 0.637345 0.935298 0.138012
H114  H     H_    0.464851 0.637343 0.064701 0.138012
H115  H     H_    0.035150 0.137344 0.935299 0.138011
H116  H     H_    0.964851 0.137344 0.064701 0.138012
H117  H     H_    0.338921 0.731039 0.543691 0.112476
H118  H     H_    0.295675 0.744614 0.082117 0.090744
H119  H     H_    0.661078 0.731039 0.456309 0.112476
H120  H     H_    0.838921 0.231039 0.543691 0.112476
H121  H     H_    0.161078 0.231039 0.456309 0.112476
H122  H     H_    0.357486 0.580955 0.534540 0.118646
H123  H     H_    0.642513 0.580956 0.465460 0.118645
H124  H     H_    0.857486 0.080955 0.534540 0.118646
H125  H     H_    0.142513 0.080957 0.465460 0.118645
H126  H     H_    0.306491 0.428992 0.462601 0.119409
H127  H     H_    0.693509 0.428992 0.537400 0.119410
H128  H     H_    0.806491 0.928992 0.462601 0.119409
O1    O     O_R   0.214130 0.708570 0.829890 -0.518183
O2    O     O_R   0.542830 0.717300 0.331620 -0.530475
O3    O     O_R   0.957170 0.217300 0.668380 -0.530475
O4    O     O_R   0.042830 0.217300 0.331620 -0.530475
O5    O     O_R   0.320870 0.624890 0.673130 -0.510314
O6    O     O_R   0.679130 0.624890 0.326870 -0.510314
O7    O     O_R   0.820870 0.124890 0.673130 -0.510314
O8    O     O_R   0.179130 0.124890 0.326870 -0.510314
O9    O     O_3   0.334430 0.834430 0.749680 -0.292715
O10   O     O_3   0.665570 0.834430 0.250320 -0.292716
O11   O     O_3   0.834430 0.334430 0.749680 -0.292715
O12   O     O_R   0.785870 0.708570 0.170110 -0.518183
O13   O     O_3   0.165570 0.334430 0.250320 -0.292715
O14   O     O_R   0.236050 0.959150 0.825270 -0.522018
O15   O     O_R   0.763950 0.959150 0.174730 -0.522018
O16   O     O_R   0.736050 0.459150 0.825270 -0.522018
O17   O     O_R   0.263950 0.459150 0.174730 -0.522018
O18   O     O_R   0.332100 0.076650 0.832310 -0.470343
O19   O     O_R   0.667900 0.076650 0.167690 -0.470343
O20   O     O_R   0.832100 0.576650 0.832310 -0.470343
O21   O     O_R   0.167900 0.576650 0.167690 -0.470343
O22   O     O_R   0.446500 0.918620 0.826240 -0.476544
O23   O     O_R   0.714130 0.208570 0.829890 -0.518183
O24   O     O_R   0.553500 0.918620 0.173760 -0.476544
O25   O     O_R   0.946500 0.418620 0.826240 -0.476545
O26   O     O_R   0.053500 0.418620 0.173760 -0.476544
O27   O     O_R   0.457310 0.715830 0.831280 -0.524368
O28   O     O_R   0.542690 0.715830 0.168720 -0.524368
O29   O     O_R   0.957310 0.215830 0.831280 -0.524369
O30   O     O_R   0.042690 0.215830 0.168720 -0.524368
O31   O     O_R   0.321000 0.623520 0.824130 -0.515185
O32   O     O_R   0.679000 0.623520 0.175870 -0.515185
O33   O     O_R   0.821000 0.123520 0.824130 -0.515185
O34   O     O_R   0.285870 0.208570 0.170110 -0.518183
O35   O     O_R   0.179000 0.123520 0.175870 -0.515185
O36   O     O_R   0.213990 0.710040 0.667000 -0.530919
O37   O     O_R   0.786010 0.710040 0.333000 -0.530919
O38   O     O_R   0.713990 0.210040 0.667000 -0.530919
O39   O     O_R   0.286010 0.210040 0.333000 -0.530919
O40   O     O_R   0.235920 0.960520 0.674260 -0.512351
O41   O     O_R   0.764080 0.960520 0.325740 -0.512351
O42   O     O_R   0.735920 0.460520 0.674260 -0.512351
O43   O     O_R   0.264080 0.460520 0.325740 -0.512351
O44   O     O_R   0.331960 0.078120 0.669410 -0.533995
O45   O     O_R   0.446360 0.919990 0.675230 -0.508360
O46   O     O_R   0.668040 0.078120 0.330590 -0.533994
O47   O     O_R   0.831960 0.578120 0.669410 -0.533995
O48   O     O_R   0.168040 0.578120 0.330590 -0.533994
O49   O     O_R   0.553640 0.919990 0.324770 -0.508360
O50   O     O_R   0.946360 0.419990 0.675230 -0.508360
O51   O     O_R   0.053640 0.419990 0.324770 -0.508360
O52   O     O_R   0.457170 0.717300 0.668380 -0.530475

loop_
_geom_bond_atom_site_label_1
_geom_bond_atom_site_label_2
_ccdc_geom_bond_type
C90   H128  S    
C31   C49   S    
Cr9   O46   S    
C69   H76   S    
C79   C83   S    
C15   C16   S    
C17   H1    S    
C44   O20   A    
C29   H20   S    
Cr1   O9    S    
Cr4   O30   S    
C87   H98   S    
Cr3   O3    S    
C118  O40   A    
C68   H58   S    
C19   H52   S    
C37   H13   S    
C90   C107  S    
C107  H6    S    
Cr1   O40   S    
Cr5   O41   S    
C19   C99   S    
C34   C51   S    
C36   H2    S    
Cr11  O21   S    
Cr9   O49   S    
C87   C96   S    
C77   H114  S    
C89   C106  S    
C95   C117  S    
C68   H77   S    
C32   C50   S    
C2    C40   S    
C4    O52   A    
Cr5   O10   S    
C13   H15   S    
C14   C21   S    
Cr2   O6    S    
Cr2   O32   S    
C44   O16   A    
C8    O5    A    
C82   C86   S    
C89   C97   S    
C79   H82   S    
C10   O7    A    
Cr6   O42   S    
Br3   C30   S    
C116  H124  S    
C6    C78   S    
C52   H38   S    
C83   H87   S    
C11   C104  S    
C29   H25   S    
C25   C64   S    
C26   C43   S    
C35   C52   S    
C15   H67   S    
C107  H100  S    
C10   O38   A    
C89   H127  S    
C66   H113  S    
Cr11  O51   S    
C10   C103  S    
C45   C111  S    
C24   C29   S    
C22   C77   S    
C79   C96   S    
C101  C114  S    
C33   C41   S    
C98   C119  S    
C92   H109  S    
C113  O35   A    
C24   H11   S    
Cr1   O1    S    
C86   H90   S    
C80   C84   S    
Cr3   O11   S    
C9    C102  S    
Cr12  O27   S    
C94   C116  S    
C43   C48   S    
C114  H122  S    
C1    C42   S    
C63   O25   A    
C91   H3    S    
C36   H85   S    
C62   O24   A    
C13   H10   S    
C3    O48   A    
C45   C49   S    
C119  O46   A    
C47   C51   S    
C94   H106  S    
C90   C98   S    
C13   C28   S    
C37   C41   S    
Cr5   O12   S    
C71   C75   S    
C60   H50   S    
C40   C44   S    
C12   C17   S    
C120  O42   A    
Cr12  O9    S    
Cr10  O25   S    
C82   C100  S    
C67   C75   S    
C103  C116  S    
C55   O21   A    
C24   C42   S    
C73   C78   S    
Cr7   O39   S    
C80   H83   S    
C13   C41   S    
C37   C54   S    
C30   H28   S    
C100  C118  S    
Cr1   O14   S    
C45   C53   S    
C120  O47   A    
C95   H108  S    
C53   H39   S    
C67   H73   S    
C7    O4    A    
C84   H88   S    
Cr7   O34   S    
Cr8   O45   S    
C73   H62   S    
C39   C55   S    
Cr3   O29   S    
C71   H60   S    
Cr2   O10   S    
C3    O43   A    
Cr3   O7    S    
C118  O44   A    
Cr10  O11   S    
Cr4   O8    S    
C18   H41   S    
C20   C88   S    
C5    O49   A    
C59   C76   S    
C97   C120  S    
C1    O18   A    
C22   C62   S    
C32   C41   S    
Cr1   O36   S    
Cr10  O20   S    
C93   C115  S    
C106  H5    S    
C114  H117  S    
Br2   C34   S    
C83   C101  S    
C11   O39   A    
Cr9   O24   S    
C60   C78   S    
C50   H45   S    
C65   H75   S    
C34   H27   S    
C112  O33   A    
C70   C74   S    
Cr2   O28   S    
C11   O8    A    
Cr7   O17   S    
C27   H18   S    
Cr7   O43   S    
C52   H34   S    
C14   C18   S    
C103  C107  S    
C38   H24   S    
C1    O14   A    
C72   C76   S    
C59   H54   S    
C48   H43   S    
C86   C104  S    
C68   C76   S    
C84   H92   S    
Cr8   O9    S    
C92   C96   S    
C47   C113  S    
C51   H46   S    
C95   C100  S    
C57   C58   S    
C34   C42   S    
C23   C63   S    
C58   H48   S    
C59   C60   S    
C36   C40   S    
C86   H94   S    
C47   C56   S    
C18   C66   S    
C81   C98   S    
Br1   C32   S    
C117  H121  S    
C43   C52   S    
C70   H69   S    
C109  O31   A    
C26   H21   S    
C115  H123  S    
C64   O26   A    
C102  C115  S    
C51   H31   S    
C104  C117  S    
C79   H78   S    
C105  H102  S    
Cr5   O37   S    
C46   C50   S    
C105  H4    S    
C108  H7    S    
C81   H84   S    
C50   H30   S    
C91   C108  S    
C39   C110  S    
C8    C101  S    
C67   H57   S    
C56   H42   S    
C38   H107  S    
C57   H51   S    
C112  O23   A    
C38   C42   S    
C20   C25   S    
C17   C21   S    
C111  O12   A    
C59   H49   S    
C4    C75   S    
Cr12  O5    S    
C33   O19   A    
C80   H79   S    
C49   H33   S    
Cr10  O47   S    
C28   H23   S    
C2    C27   S    
C55   O17   A    
Br4   C31   S    
Cr6   O38   S    
C32   H26   S    
C56   H37   S    
C92   H104  S    
Cr8   O44   S    
C65   H56   S    
C58   H53   S    
C12   C22   S    
C54   H40   S    
C3    C96   S    
C30   C39   S    
C46   C54   S    
C16   H68   S    
C81   H80   S    
C93   H110  S    
C2    H9    S    
C81   C85   S    
Cr10  O50   S    
C113  O34   A    
Cr12  O52   S    
C104  C108  S    
C35   H74   S    
C61   O22   A    
C110  H8    S    
C54   H36   S    
C94   C98   S    
Cr3   O33   S    
C37   H96   S    
C85   C103  S    
Cr4   O4    S    
C14   H66   S    
Cr11  O48   S    
C33   O15   A    
C6    O50   A    
C83   H91   S    
C69   H59   S    
C69   C72   S    
C12   H65   S    
C15   C25   S    
C69   C78   S    
C60   H55   S    
Cr4   O35   S    
C26   C110  S    
C43   C109  S    
C36   C53   S    
Cr11  O13   S    
C85   H89   S    
Cr6   O23   S    
C115  H119  S    
C67   C70   S    
C16   C23   S    
C29   C47   S    
C5    O2    A    
C30   C48   S    
C110  H12   S    
Cr9   O19   S    
C101  C105  S    
C65   C71   S    
C5    C74   S    
Cr6   O16   S    
Cr11  O26   S    
Cr7   O13   S    
C27   H22   S    
C7    C76   S    
C93   H105  S    
C2    H14   S    
C108  H101  S    
C18   C22   S    
C21   C66   S    
C15   C19   S    
C27   C45   S    
C35   H118  S    
C89   H99   S    
C99   H116  S    
C92   C114  S    
C71   H70   S    
C25   C99   S    
C66   C77   S    
C88   C99   S    
C117  H125  S    
C26   H17   S    
Cr8   O22   S    
C16   C20   S    
C20   H63   S    
C64   O30   A    
C4    O45   A    
C19   C23   S    
C72   H71   S    
C61   O27   A    
C62   O28   A    
C8    O36   A    
C9    O37   A    
C80   C97   S    
C65   C74   S    
C90   H95   S    
C57   H47   S    
C6    O3    A    
C58   C75   S    
C21   C61   S    
C72   H64   S    
C73   H72   S    
C38   C56   S    
C106  H103  S    
C35   C39   S    
C82   H81   S    
C116  H120  S    
C68   C73   S    
Cr12  O31   S    
C28   H19   S    
C84   C102  S    
C70   H61   S    
C57   C74   S    
C63   O29   A    
C23   C88   S    
C31   C40   S    
C28   C46   S    
C87   H126  S    
C17   C77   S    
C24   H16   S    
C49   H44   S    
Cr4   O13   S    
C91   C100  S    
C102  C106  S    
C88   H115  S    
Cr9   O10   S    
C111  O32   A    
Cr2   O2    S    
C82   H86   S    
C119  O41   A    
C87   C105  S    
C95   H112  S    
C94   H111  S    
C9    O6    A    
C48   H32   S    
C7    O51   A    
C31   H29   S    
Cr5   O15   S    
C46   C112  S    
Cr8   O18   S    
C109  O1    A    
C12   C14   S    
C91   H97   S    
C85   H93   S    
Cr6   O11   S    
C93   C97   S    
C53   H35   S    
