data_mof_unit_8366.cif
_audit_creation_date              2012-12-10T18:15:31-0500
_audit_creation_method            fapswitch 2.2
_symmetry_space_group_name_H-M    P1
_symmetry_Int_Tables_number       1
_space_group_crystal_system       triclinic
_cell_length_a                    18.361736
_cell_length_b                    18.361889
_cell_length_c                    39.529197
_cell_angle_alpha                 89.997057
_cell_angle_beta                  89.997139
_cell_angle_gamma                 90.195664
_cell_volume                      13327.4344528

loop_
_atom_site_label
_atom_site_type_symbol
_atom_type_description
_atom_site_fract_x
_atom_site_fract_y
_atom_site_fract_z
_atom_type_partial_charge
C1    C     C_R   0.971945 0.561217 0.431032 -0.157005
C2    C     C_R   0.526661 0.062941 0.069153 -0.157954
C3    C     C_R   0.286986 0.767296 0.719686 0.333281
C4    C     C_R   0.241333 0.294431 0.278666 0.307279
C5    C     C_R   0.762451 0.708513 0.720515 0.332132
C6    C     C_R   0.290415 0.762710 0.279631 0.300028
C7    C     C_R   0.711018 0.234958 0.720041 0.335830
C8    C     C_R   0.195385 0.696667 0.250104 -0.361267
C9    C     C_R   0.803045 0.304056 0.750135 -0.353159
C10   C     C_R   0.303904 0.196093 0.250001 -0.371756
C11   C     C_R   0.696483 0.803534 0.749996 -0.358537
C12   C     C_R   0.803330 0.304619 0.249894 -0.361263
C13   C     C_R   0.937049 0.473360 0.930846 -0.157956
C14   C     C_R   0.195950 0.696950 0.749867 -0.353191
C15   C     C_R   0.696452 0.803551 0.250001 -0.399054
C16   C     C_R   0.303870 0.196132 0.750001 -0.386157
C17   C     C_R   0.196452 0.303550 0.750000 -0.399060
C18   C     C_R   0.803870 0.696131 0.250001 -0.386154
C19   C     C_R   0.303334 0.804615 0.749896 -0.361258
C20   C     C_R   0.695945 0.196954 0.249865 -0.353180
C21   C     C_R   0.803910 0.696098 0.749997 -0.371817
C22   C     C_R   0.196473 0.303526 0.250000 -0.358421
C23   C     C_R   0.695384 0.196668 0.750106 -0.361257
C24   C     C_R   0.938774 0.528086 0.068971 -0.157011
C25   C     C_R   0.303049 0.804052 0.250133 -0.353191
C26   C     C_R   0.000095 0.500771 0.378001 -0.114622
C27   C     C_R   0.999884 0.501140 0.622040 -0.118252
C28   C     C_R   0.498855 0.000117 0.377960 -0.118250
C29   C     C_R   0.499223 0.999906 0.621999 -0.114631
C30   C     C_R   0.500092 0.000775 0.878001 -0.114652
C31   C     C_R   0.499882 0.001143 0.122040 -0.118249
C32   C     C_R   0.998856 0.500119 0.877960 -0.118246
C33   C     C_R   0.999223 0.499907 0.121998 -0.114637
C34   C     C_3   0.220045 0.885587 0.188047 0.145503
C35   C     C_R   0.529696 0.942830 0.931453 -0.157137
C36   C     C_3   0.242317 0.938495 0.160027 -0.320872
C37   C     C_3   0.186909 0.999691 0.156097 -0.948503
C38   C     C_3   0.653065 0.207518 0.825190 0.146633
C39   C     C_3   0.672300 0.272707 0.847718 -0.341959
C40   C     C_3   0.605958 0.298852 0.867471 -1.001196
C41   C     C_3   0.109574 0.213862 0.191221 0.146686
C42   C     C_3   0.053675 0.233924 0.164170 -0.307717
C43   C     C_3   0.993107 0.177014 0.161962 -0.968081
C44   C     C_3   0.803602 0.665786 0.826846 0.149927
C45   C     C_3   0.749440 0.690834 0.853855 -0.338071
C46   C     C_R   0.473601 0.941965 0.068492 -0.155612
C47   C     C_3   0.728024 0.628198 0.877248 -1.002938
C48   C     C_3   0.779820 0.120966 0.185247 0.157415
C49   C     C_3   0.760559 0.073600 0.154765 -0.328985
C50   C     C_3   0.822923 0.022388 0.145770 -0.988865
C51   C     C_3   0.341935 0.795900 0.825778 0.146748
C52   C     C_3   0.319399 0.738252 0.851774 -0.334680
C53   C     C_3   0.384221 0.714209 0.873145 -1.001854
C54   C     C_3   0.925803 0.815322 0.241403 0.133891
C55   C     C_3   0.001631 0.827339 0.226451 -0.290294
C56   C     C_3   0.052893 0.861846 0.252334 -1.018334
C57   C     C_R   0.058041 0.526384 0.931507 -0.155612
C58   C     C_3   0.148394 0.265699 0.824248 0.151997
C59   C     C_3   0.184827 0.211234 0.848239 -0.342273
C60   C     C_3   0.193544 0.243091 0.883662 -0.993148
C61   C     C_3   0.184679 0.074200 0.758606 0.133902
C62   C     C_3   0.172661 0.998377 0.773562 -0.290285
C63   C     C_3   0.138152 0.947110 0.747682 -1.018338
C64   C     C_3   0.734318 0.851615 0.175755 0.152004
C65   C     C_3   0.788789 0.815178 0.151767 -0.342271
C66   C     C_3   0.756944 0.806472 0.116340 -0.993160
C67   C     C_3   0.114427 0.779937 0.811963 0.145501
C68   C     C_R   0.057164 0.470298 0.068546 -0.157137
C69   C     C_3   0.061529 0.757657 0.839985 -0.320983
C70   C     C_3   0.000335 0.813064 0.843925 -0.948312
C71   C     C_3   0.792498 0.346915 0.174807 0.146524
C72   C     C_3   0.727333 0.327665 0.152268 -0.341937
C73   C     C_3   0.701182 0.394004 0.132514 -1.001168
C74   C     C_3   0.786123 0.890535 0.808709 0.146907
C75   C     C_3   0.766248 0.946241 0.835878 -0.307504
C76   C     C_3   0.822945 0.007037 0.837939 -0.967550
C77   C     C_3   0.334268 0.196452 0.173157 0.149817
C78   C     C_3   0.309238 0.250625 0.146149 -0.338160
C79   C     C_R   0.971008 0.561705 0.395486 0.128812
C80   C     C_3   0.371894 0.272066 0.122772 -1.002888
C81   C     C_3   0.879008 0.220228 0.814773 0.157391
C82   C     C_3   0.926388 0.239534 0.845244 -0.328990
C83   C     C_3   0.977598 0.177181 0.854256 -0.988873
C84   C     C_3   0.204090 0.658078 0.174221 0.146763
C85   C     C_3   0.261681 0.680631 0.148201 -0.334635
C86   C     C_3   0.285741 0.615803 0.126837 -1.001821
C87   C     C_3   0.720058 0.385570 0.688039 0.145512
C88   C     C_3   0.742332 0.438471 0.660017 -0.320869
C89   C     C_3   0.686920 0.499661 0.656079 -0.948553
C90   C     C_R   0.026584 0.563504 0.604706 0.113770
C91   C     C_3   0.153096 0.707498 0.325193 0.146497
C92   C     C_3   0.172354 0.772658 0.347735 -0.341928
C93   C     C_3   0.106018 0.798813 0.367490 -1.001163
C94   C     C_3   0.609590 0.713850 0.691209 0.146683
C95   C     C_3   0.553636 0.733964 0.664189 -0.307709
C96   C     C_3   0.493136 0.676990 0.661941 -0.968107
C97   C     C_3   0.303522 0.165714 0.326842 0.149781
C98   C     C_3   0.249303 0.190731 0.353833 -0.338161
C99   C     C_3   0.227849 0.128073 0.377206 -1.002864
C100  C     C_3   0.279824 0.620966 0.685248 0.157403
C101  C     C_R   0.436490 0.973413 0.395292 0.113765
C102  C     C_3   0.260567 0.573604 0.654765 -0.329004
C103  C     C_3   0.322929 0.522389 0.645771 -0.988875
C104  C     C_3   0.841906 0.295903 0.325780 0.146761
C105  C     C_3   0.819334 0.238322 0.351802 -0.334597
C106  C     C_3   0.884155 0.214247 0.373168 -1.001790
C107  C     C_3   0.425808 0.315310 0.741402 0.133924
C108  C     C_3   0.501625 0.327353 0.726444 -0.290327
C109  C     C_3   0.552896 0.361842 0.752327 -1.018325
C110  C     C_3   0.648395 0.765693 0.324248 0.151993
C111  C     C_3   0.684857 0.711233 0.348234 -0.342262
C112  C     C_R   0.026671 0.562930 0.569152 -0.157952
C113  C     C_R   0.438298 0.029025 0.604517 0.128809
C114  C     C_3   0.693570 0.743083 0.383659 -0.993149
C115  C     C_3   0.684678 0.574202 0.258599 0.133893
C116  C     C_3   0.672658 0.498375 0.273551 -0.290286
C117  C     C_3   0.638153 0.447114 0.247667 -1.018316
C118  C     C_3   0.234317 0.351615 0.675753 0.152002
C119  C     C_3   0.288786 0.315172 0.651765 -0.342263
C120  C     C_3   0.256942 0.306471 0.616338 -0.993138
C121  C     C_3   0.614406 0.279959 0.311950 0.145495
C122  C     C_3   0.561496 0.257688 0.339969 -0.320851
C123  C     C_3   0.500300 0.313095 0.343899 -0.948539
C124  C     C_R   0.029518 0.440608 0.395916 0.115895
C125  C     C_3   0.292492 0.846918 0.674810 0.146486
C126  C     C_3   0.227335 0.827666 0.652266 -0.341919
C127  C     C_3   0.201180 0.894007 0.632515 -1.001160
C128  C     C_3   0.286134 0.390405 0.308794 0.146672
C129  C     C_3   0.266029 0.446333 0.335825 -0.307686
C130  C     C_3   0.322974 0.506864 0.338062 -0.968009
C131  C     C_3   0.834273 0.696445 0.673157 0.149821
C132  C     C_3   0.809265 0.750669 0.646166 -0.338255
C133  C     C_3   0.871926 0.772111 0.622793 -1.002883
C134  C     C_3   0.379045 0.720168 0.314747 0.157420
C135  C     C_R   0.972882 0.439853 0.604019 0.117318
C136  C     C_3   0.426417 0.739426 0.345227 -0.328983
C137  C     C_3   0.477632 0.677062 0.354218 -0.988851
C138  C     C_3   0.704117 0.158053 0.674227 0.146744
C139  C     C_3   0.761720 0.180598 0.648211 -0.334631
C140  C     C_3   0.785792 0.115762 0.626855 -1.001826
C141  C     C_3   0.940748 0.626199 0.375552 -0.384024
C142  C     C_3   0.915788 0.691727 0.396395 -0.911608
C143  C     C_3   0.052742 0.629651 0.624843 -0.380785
C144  C     C_3   0.076367 0.696050 0.604161 -0.904440
C145  C     C_3   0.370349 0.947243 0.375154 -0.380761
C146  C     C_R   0.560136 0.027129 0.395983 0.117323
C147  C     C_3   0.303946 0.923621 0.395834 -0.904450
C148  C     C_3   0.373815 0.059312 0.624452 -0.383976
C149  C     C_3   0.308286 0.084280 0.603611 -0.911647
C150  C     C_3   0.058744 0.374998 0.376450 -0.375328
C151  C     C_3   0.082393 0.309708 0.397773 -0.906571
C152  C     C_3   0.945202 0.373269 0.623390 -0.375355
C153  C     C_3   0.920891 0.308237 0.601953 -0.904511
C154  C     C_3   0.626721 0.054813 0.376613 -0.375348
C155  C     C_3   0.691751 0.079125 0.398052 -0.904533
C156  C     C_3   0.624968 0.941185 0.623545 -0.375258
C157  C     C_R   0.559370 0.970452 0.604081 0.115849
C158  C     C_3   0.690241 0.917482 0.602219 -0.906455
C159  C     C_3   0.440726 0.126199 0.875547 -0.383996
C160  C     C_3   0.415768 0.191731 0.896388 -0.911636
C161  C     C_3   0.552745 0.129653 0.124845 -0.380780
C162  C     C_3   0.576369 0.196054 0.104165 -0.904447
C163  C     C_3   0.870328 0.447300 0.875154 -0.380814
C164  C     C_3   0.803923 0.423686 0.895833 -0.904432
C165  C     C_3   0.873804 0.559285 0.124453 -0.383993
C166  C     C_3   0.808272 0.584246 0.103612 -0.911641
C167  C     C_3   0.558776 0.875011 0.876456 -0.375270
C168  C     C_R   0.470991 0.061708 0.895483 0.128834
C169  C     C_3   0.582459 0.809733 0.897783 -0.906432
C170  C     C_3   0.445193 0.873276 0.123388 -0.375354
C171  C     C_3   0.420880 0.808245 0.101950 -0.904514
C172  C     C_3   0.126737 0.554777 0.876612 -0.375384
C173  C     C_3   0.191768 0.579092 0.898050 -0.904504
C174  C     C_3   0.124980 0.441207 0.123543 -0.375278
C175  C     C_3   0.190251 0.417507 0.102216 -0.906458
C176  C     C_R   0.526581 0.063509 0.104707 0.113762
C177  C     C_R   0.936481 0.473440 0.895292 0.113766
C178  C     C_R   0.938292 0.529015 0.104517 0.128823
C179  C     C_R   0.529525 0.940618 0.895919 0.115849
C180  C     C_R   0.437058 0.973330 0.430847 -0.157955
C181  C     C_R   0.472873 0.939861 0.104018 0.117321
C182  C     C_R   0.060146 0.527112 0.895982 0.117324
C183  C     C_R   0.059376 0.470467 0.104080 0.115850
C184  C     C_R   0.001107 0.502448 0.448650 0.041847
C185  C     C_R   0.000471 0.502731 0.551411 0.042296
C186  C     C_R   0.497252 0.999540 0.448589 0.042297
C187  C     C_R   0.497535 0.998905 0.551349 0.041863
C188  C     C_R   0.501088 0.002462 0.948651 0.041858
C189  C     C_R   0.500455 0.002745 0.051411 0.042298
C190  C     C_R   0.997253 0.499548 0.948589 0.042295
C191  C     C_R   0.438780 0.028093 0.568970 -0.157012
C192  C     C_R   0.997535 0.498913 0.051349 0.041859
C193  C     C_1   0.001170 0.503057 0.484852 -0.043378
C194  C     C_1   0.000979 0.503192 0.515210 -0.044467
C195  C     C_1   0.496786 0.999035 0.484790 -0.044468
C196  C     C_1   0.496922 0.998844 0.515147 -0.043379
C197  C     C_1   0.501148 0.003074 0.984853 -0.043383
C198  C     C_1   0.500958 0.003210 0.015210 -0.044470
C199  C     C_1   0.996787 0.499044 0.984790 -0.044468
C200  C     C_1   0.996923 0.498853 0.015147 -0.043381
C201  C     C_R   0.499848 0.000021 0.340870 0.756266
C202  C     C_R   0.029699 0.442816 0.431450 -0.157140
C203  C     C_R   0.499901 0.999992 0.659115 0.749415
C204  C     C_R   0.000008 0.500099 0.340885 0.749411
C205  C     C_R   0.999978 0.500152 0.659130 0.756266
C206  C     C_R   0.999848 0.500022 0.840870 0.756269
C207  C     C_R   0.999902 0.499992 0.159115 0.749405
C208  C     C_R   0.500008 0.000098 0.840885 0.749376
C209  C     C_R   0.499978 0.000152 0.159130 0.756268
C210  C     C_R   0.359909 0.140090 0.250000 0.874586
C211  C     C_R   0.640243 0.859760 0.749999 0.925031
C212  C     C_R   0.859890 0.360044 0.250006 0.875208
C213  C     C_R   0.973616 0.441952 0.568493 -0.155610
C214  C     C_R   0.140098 0.640308 0.749957 0.933261
C215  C     C_R   0.640243 0.859758 0.250000 0.887786
C216  C     C_R   0.359875 0.140125 0.750000 0.884235
C217  C     C_R   0.139957 0.640109 0.249994 0.875213
C218  C     C_R   0.859690 0.359904 0.750044 0.933281
C219  C     C_R   0.359890 0.860044 0.750006 0.875220
C220  C     C_R   0.640097 0.140309 0.249956 0.933250
C221  C     C_R   0.859911 0.640091 0.749999 0.874556
C222  C     C_R   0.140241 0.359759 0.250000 0.925178
C223  C     C_R   0.639957 0.140110 0.749994 0.875152
C224  C     C_R   0.558031 0.026399 0.431508 -0.155611
C225  C     C_R   0.359691 0.859902 0.250043 0.933249
C226  C     C_R   0.140242 0.359758 0.750000 0.887791
C227  C     C_R   0.859875 0.640125 0.250000 0.884252
C228  C     C_R   0.261076 0.792174 0.220747 0.303898
C229  C     C_R   0.732695 0.213025 0.780317 0.333118
C230  C     C_R   0.205565 0.258663 0.221336 0.307264
C231  C     C_R   0.791505 0.737565 0.779476 0.332253
C232  C     C_R   0.737284 0.209591 0.220367 0.300028
C233  C     C_R   0.265040 0.788983 0.779960 0.335802
C234  C     C_R   0.815817 0.762283 0.232786 0.314055
C235  C     C_R   0.557158 0.970280 0.568547 -0.157142
C236  C     C_R   0.188728 0.241172 0.770696 0.339544
C237  C     C_R   0.237720 0.184187 0.767217 0.314056
C238  C     C_R   0.758833 0.811276 0.229306 0.339537
C239  C     C_R   0.207833 0.738916 0.779255 0.303887
C240  C     C_R   0.786985 0.267296 0.219685 0.333247
C241  C     C_R   0.741362 0.794453 0.778656 0.307121
C242  C     C_R   0.262452 0.208514 0.220518 0.332135
C243  C     C_R   0.790397 0.262731 0.779636 0.300046
C244  C     C_R   0.211009 0.734966 0.220042 0.335790
C245  C     C_R   0.761083 0.292167 0.720746 0.303885
C246  C     C_R   0.471920 0.061225 0.931029 -0.157012
C247  C     C_R   0.232710 0.713010 0.280313 0.333268
C248  C     C_R   0.705565 0.758665 0.721333 0.307364
C249  C     C_R   0.291481 0.237543 0.279484 0.332140
C250  C     C_R   0.237286 0.709590 0.720368 0.300028
C251  C     C_R   0.765028 0.288995 0.279956 0.335790
C252  C     C_R   0.315816 0.262282 0.732785 0.314044
C253  C     C_R   0.688728 0.741171 0.270696 0.339547
C254  C     C_R   0.737718 0.684186 0.267216 0.314047
C255  C     C_R   0.258832 0.311274 0.729305 0.339553
C256  C     C_R   0.707821 0.238928 0.279252 0.303889
H1    H     H_    0.950253 0.606193 0.445486 0.156265
H2    H     H_    0.546736 0.108968 0.054807 0.156433
H3    H     H_    0.745088 0.414398 0.115623 0.273785
H4    H     H_    0.791611 0.919634 0.784028 0.126335
H5    H     H_    0.839329 0.865611 0.815405 0.165138
H6    H     H_    0.712400 0.970505 0.829874 0.264694
H7    H     H_    0.762264 0.918589 0.860839 0.212243
H8    H     H_    0.877051 0.984412 0.844741 0.257214
H9    H     H_    0.806614 0.046990 0.857596 0.277240
H10   H     H_    0.827074 0.035716 0.813262 0.267979
H11   H     H_    0.361023 0.149688 0.160412 0.167697
H12   H     H_    0.376594 0.222156 0.189603 0.085169
H13   H     H_    0.891015 0.453300 0.945192 0.156433
H14   H     H_    0.264811 0.225858 0.130839 0.242080
H15   H     H_    0.287918 0.300402 0.158609 0.235023
H16   H     H_    0.416937 0.297134 0.137543 0.269021
H17   H     H_    0.352390 0.312175 0.103833 0.273033
H18   H     H_    0.392707 0.223448 0.109173 0.274684
H19   H     H_    0.915085 0.212226 0.792378 0.139315
H20   H     H_    0.850008 0.168382 0.820325 0.173507
H21   H     H_    0.959032 0.289014 0.839388 0.241442
H22   H     H_    0.891028 0.251500 0.867378 0.223853
H23   H     H_    0.012873 0.163556 0.832342 0.289248
H24   H     H_    0.893800 0.549794 0.054518 0.156261
H25   H     H_    0.945840 0.128111 0.861666 0.269488
H26   H     H_    0.012696 0.193548 0.875843 0.268750
H27   H     H_    0.158889 0.629791 0.160848 0.166186
H28   H     H_    0.227510 0.617600 0.192239 0.082453
H29   H     H_    0.239086 0.723335 0.131292 0.244059
H30   H     H_    0.309927 0.703443 0.161494 0.233650
H31   H     H_    0.308797 0.572474 0.143226 0.267208
H32   H     H_    0.328181 0.633603 0.108584 0.271822
H33   H     H_    0.238805 0.593342 0.112447 0.274728
H34   H     H_    0.713466 0.417329 0.711910 0.131790
H35   H     H_    0.551720 0.898481 0.946219 0.156321
H36   H     H_    0.666978 0.360148 0.681155 0.169118
H37   H     H_    0.796155 0.462811 0.666216 0.263445
H38   H     H_    0.747235 0.408496 0.635693 0.214000
H39   H     H_    0.682224 0.530874 0.680046 0.276650
H40   H     H_    0.632718 0.477020 0.649225 0.253937
H41   H     H_    0.704934 0.537421 0.635767 0.274483
H42   H     H_    0.127993 0.664404 0.341173 0.162539
H43   H     H_    0.110940 0.723309 0.306304 0.085080
H44   H     H_    0.215904 0.756896 0.365822 0.244297
H45   H     H_    0.192819 0.818231 0.331836 0.231847
H46   H     H_    0.453669 0.896638 0.053635 0.156067
H47   H     H_    0.061929 0.815240 0.349846 0.265249
H48   H     H_    0.121354 0.846527 0.383240 0.272332
H49   H     H_    0.085619 0.754906 0.384379 0.273786
H50   H     H_    0.580670 0.707956 0.715913 0.125894
H51   H     H_    0.634591 0.660807 0.684315 0.165772
H52   H     H_    0.529117 0.787543 0.670456 0.265156
H53   H     H_    0.581128 0.738607 0.639220 0.212460
H54   H     H_    0.515999 0.623211 0.654790 0.257481
H55   H     H_    0.452900 0.693588 0.642463 0.277468
H56   H     H_    0.464723 0.672051 0.686647 0.267583
H57   H     H_    0.103374 0.546303 0.946365 0.156067
H58   H     H_    0.350276 0.138974 0.339602 0.167691
H59   H     H_    0.277855 0.123379 0.310390 0.085185
H60   H     H_    0.274033 0.235168 0.369148 0.242103
H61   H     H_    0.199535 0.212031 0.341357 0.235003
H62   H     H_    0.202829 0.083013 0.362429 0.269012
H63   H     H_    0.187697 0.147563 0.396128 0.273032
H64   H     H_    0.276454 0.107287 0.390825 0.274675
H65   H     H_    0.287784 0.584878 0.707642 0.139334
H66   H     H_    0.331684 0.649965 0.679720 0.173484
H67   H     H_    0.211071 0.540966 0.660597 0.241391
H68   H     H_    0.101511 0.448270 0.053780 0.156324
H69   H     H_    0.248646 0.608976 0.632630 0.223860
H70   H     H_    0.336512 0.487104 0.667687 0.289268
H71   H     H_    0.372016 0.554143 0.638382 0.269539
H72   H     H_    0.306595 0.487302 0.624176 0.268752
H73   H     H_    0.870202 0.341101 0.339154 0.166173
H74   H     H_    0.882384 0.272472 0.307765 0.082449
H75   H     H_    0.776634 0.260931 0.368710 0.244042
H76   H     H_    0.796509 0.190080 0.338510 0.233669
H77   H     H_    0.927478 0.191171 0.356780 0.267203
H78   H     H_    0.866339 0.171818 0.391424 0.271814
H79   H     H_    0.213458 0.917338 0.211920 0.131786
H80   H     H_    0.906632 0.261181 0.387556 0.274729
H81   H     H_    0.431539 0.282877 0.765133 0.108416
H82   H     H_    0.401692 0.369323 0.747588 0.142363
H83   H     H_    0.524478 0.274330 0.718210 0.273065
H84   H     H_    0.497671 0.363412 0.703933 0.212448
H85   H     H_    0.532698 0.416424 0.759872 0.266099
H86   H     H_    0.607932 0.368009 0.741183 0.255225
H87   H     H_    0.557304 0.326808 0.775120 0.259668
H88   H     H_    0.596597 0.784141 0.335866 0.177234
H89   H     H_    0.683007 0.815532 0.321596 0.097840
H90   H     H_    0.166963 0.860168 0.181163 0.169118
H91   H     H_    0.651490 0.660723 0.349715 0.248052
H92   H     H_    0.739695 0.696931 0.338484 0.240852
H93   H     H_    0.727754 0.793086 0.382788 0.265958
H94   H     H_    0.720520 0.702623 0.400319 0.275279
H95   H     H_    0.639497 0.756570 0.394548 0.268230
H96   H     H_    0.717094 0.568487 0.234862 0.108393
H97   H     H_    0.630656 0.598314 0.252425 0.142388
H98   H     H_    0.725693 0.475525 0.281772 0.273078
H99   H     H_    0.636617 0.502311 0.296069 0.212445
H100  H     H_    0.583553 0.467302 0.240140 0.266087
H101  H     H_    0.296144 0.962828 0.166225 0.263456
H102  H     H_    0.632017 0.392068 0.258804 0.255226
H103  H     H_    0.673162 0.442735 0.224863 0.259655
H104  H     H_    0.215860 0.403414 0.664139 0.177242
H105  H     H_    0.184484 0.316992 0.678402 0.097826
H106  H     H_    0.339292 0.348548 0.650289 0.248042
H107  H     H_    0.303096 0.260332 0.661510 0.240867
H108  H     H_    0.206946 0.272273 0.617205 0.265959
H109  H     H_    0.297411 0.279539 0.599676 0.275275
H110  H     H_    0.243444 0.360545 0.605455 0.268230
H111  H     H_    0.582655 0.286544 0.288076 0.131788
H112  H     H_    0.046745 0.608956 0.554805 0.156431
H113  H     H_    0.247211 0.908528 0.135701 0.213991
H114  H     H_    0.639824 0.333041 0.318834 0.169118
H115  H     H_    0.537163 0.203861 0.333772 0.263460
H116  H     H_    0.591462 0.252794 0.364296 0.213985
H117  H     H_    0.469096 0.317783 0.319929 0.276639
H118  H     H_    0.522934 0.367300 0.350752 0.253926
H119  H     H_    0.462532 0.295083 0.364208 0.274495
H120  H     H_    0.335587 0.872028 0.658833 0.162538
H121  H     H_    0.276678 0.889067 0.693702 0.085070
H122  H     H_    0.243100 0.784122 0.634177 0.244291
H123  H     H_    0.181761 0.807194 0.668162 0.231847
H124  H     H_    0.182220 0.030895 0.180067 0.276648
H125  H     H_    0.184751 0.938089 0.650161 0.265246
H126  H     H_    0.153468 0.878674 0.616762 0.272332
H127  H     H_    0.245089 0.914413 0.615628 0.273781
H128  H     H_    0.292006 0.419345 0.284093 0.125937
H129  H     H_    0.339189 0.365409 0.315675 0.165722
H130  H     H_    0.212425 0.470827 0.329578 0.265130
H131  H     H_    0.261436 0.418823 0.360793 0.212430
H132  H     H_    0.376784 0.484025 0.345185 0.257446
H133  H     H_    0.306389 0.547072 0.357555 0.277449
H134  H     H_    0.327847 0.535305 0.313360 0.267618
H135  H     H_    0.132704 0.977056 0.149244 0.253924
H136  H     H_    0.860999 0.649684 0.660395 0.167705
H137  H     H_    0.876618 0.722102 0.689606 0.085191
H138  H     H_    0.764822 0.725947 0.630851 0.242116
H139  H     H_    0.787974 0.800439 0.658642 0.234985
H140  H     H_    0.916988 0.797126 0.637569 0.269021
H141  H     H_    0.852442 0.812264 0.603870 0.273035
H142  H     H_    0.892705 0.723504 0.609175 0.274686
H143  H     H_    0.415126 0.712208 0.292350 0.139317
H144  H     H_    0.350046 0.668308 0.320278 0.173473
H145  H     H_    0.459056 0.788921 0.339392 0.241391
H146  H     H_    0.204921 0.037457 0.135787 0.274492
H147  H     H_    0.391051 0.751349 0.367365 0.223850
H148  H     H_    0.512911 0.663479 0.332300 0.289279
H149  H     H_    0.445876 0.627976 0.361608 0.269524
H150  H     H_    0.512724 0.693395 0.375812 0.268746
H151  H     H_    0.658922 0.129762 0.660850 0.166176
H152  H     H_    0.727528 0.117580 0.692250 0.082427
H153  H     H_    0.739132 0.223295 0.631295 0.244059
H154  H     H_    0.809958 0.203416 0.661506 0.233645
H155  H     H_    0.808843 0.072442 0.643250 0.267200
H156  H     H_    0.828240 0.133556 0.608604 0.271821
H157  H     H_    0.627974 0.164433 0.841179 0.162557
H158  H     H_    0.738864 0.093293 0.612462 0.274726
H159  H     H_    0.869492 0.676358 0.413044 0.263044
H160  H     H_    0.961536 0.713651 0.411741 0.260635
H161  H     H_    0.896941 0.735398 0.379068 0.255317
H162  H     H_    0.983400 0.645756 0.357733 0.182285
H163  H     H_    0.893368 0.607351 0.360392 0.236591
H164  H     H_    0.124216 0.682646 0.588167 0.258220
H165  H     H_    0.030749 0.715744 0.588183 0.261329
H166  H     H_    0.092355 0.740700 0.621619 0.262209
H167  H     H_    0.008099 0.647262 0.641964 0.188205
H168  H     H_    0.610906 0.223295 0.806297 0.085044
H169  H     H_    0.099694 0.613386 0.640795 0.237747
H170  H     H_    0.317349 0.875776 0.411831 0.258220
H171  H     H_    0.284247 0.969242 0.411809 0.261327
H172  H     H_    0.259300 0.907628 0.378375 0.262212
H173  H     H_    0.352738 0.991880 0.358029 0.188200
H174  H     H_    0.386621 0.900288 0.359206 0.237749
H175  H     H_    0.323661 0.130570 0.586960 0.263048
H176  H     H_    0.286351 0.038533 0.588267 0.260642
H177  H     H_    0.264622 0.103137 0.620940 0.255320
H178  H     H_    0.354249 0.016671 0.642275 0.182292
H179  H     H_    0.715861 0.256981 0.865806 0.244332
H180  H     H_    0.392679 0.106694 0.639608 0.236608
H181  H     H_    0.129604 0.324433 0.413979 0.259741
H182  H     H_    0.036494 0.289784 0.413600 0.260051
H183  H     H_    0.099343 0.264745 0.380762 0.260884
H184  H     H_    0.015744 0.355549 0.358791 0.186749
H185  H     H_    0.106365 0.392539 0.361121 0.237711
H186  H     H_    0.873815 0.323263 0.585778 0.259333
H187  H     H_    0.966619 0.288316 0.586098 0.258840
H188  H     H_    0.903464 0.263185 0.618884 0.260039
H189  H     H_    0.989127 0.354163 0.640557 0.191032
H190  H     H_    0.692741 0.318274 0.831810 0.231836
H191  H     H_    0.898135 0.389628 0.639249 0.234404
H192  H     H_    0.676724 0.126202 0.414226 0.259337
H193  H     H_    0.711669 0.033398 0.413908 0.258846
H194  H     H_    0.736807 0.096549 0.381122 0.260035
H195  H     H_    0.645831 0.010891 0.359446 0.191030
H196  H     H_    0.610362 0.101881 0.360754 0.234408
H197  H     H_    0.675467 0.870291 0.586007 0.259713
H198  H     H_    0.710210 0.963376 0.586398 0.260034
H199  H     H_    0.735192 0.900476 0.619228 0.260871
H200  H     H_    0.644454 0.984176 0.641202 0.186741
H201  H     H_    0.561855 0.315234 0.849827 0.265256
H202  H     H_    0.607397 0.893575 0.638875 0.237722
H203  H     H_    0.369470 0.176365 0.913037 0.263049
H204  H     H_    0.461516 0.213654 0.911734 0.260639
H205  H     H_    0.396925 0.235400 0.879059 0.255319
H206  H     H_    0.483377 0.145755 0.857727 0.182285
H207  H     H_    0.393345 0.107348 0.860388 0.236597
H208  H     H_    0.624215 0.182650 0.088169 0.258220
H209  H     H_    0.530749 0.215751 0.088188 0.261330
H210  H     H_    0.592361 0.240700 0.121623 0.262213
H211  H     H_    0.508105 0.147264 0.141968 0.188203
H212  H     H_    0.621276 0.346592 0.883208 0.272335
H213  H     H_    0.599699 0.113384 0.140795 0.237748
H214  H     H_    0.817319 0.375836 0.911828 0.258219
H215  H     H_    0.784234 0.469308 0.911811 0.261340
H216  H     H_    0.759273 0.407704 0.878374 0.262208
H217  H     H_    0.852728 0.491950 0.858034 0.188212
H218  H     H_    0.886584 0.400349 0.859200 0.237730
H219  H     H_    0.823640 0.630542 0.086963 0.263049
H220  H     H_    0.786345 0.538499 0.088266 0.260641
H221  H     H_    0.764603 0.603092 0.120941 0.255317
H222  H     H_    0.854245 0.516637 0.142274 0.182288
H223  H     H_    0.391032 0.953252 0.445192 0.156433
H224  H     H_    0.585588 0.254955 0.884373 0.273790
H225  H     H_    0.892659 0.606666 0.139611 0.236600
H226  H     H_    0.629652 0.824496 0.913997 0.259714
H227  H     H_    0.536559 0.789775 0.913603 0.260037
H228  H     H_    0.599458 0.764779 0.880775 0.260846
H229  H     H_    0.515780 0.855536 0.858799 0.186745
H230  H     H_    0.606391 0.892567 0.861127 0.237652
H231  H     H_    0.373802 0.823272 0.085777 0.259335
H232  H     H_    0.466607 0.788327 0.086094 0.258842
H233  H     H_    0.403456 0.763191 0.118880 0.260035
H234  H     H_    0.489117 0.854167 0.140554 0.191030
H235  H     H_    0.080614 0.208048 0.215919 0.126008
H236  H     H_    0.398126 0.889634 0.139248 0.234410
H237  H     H_    0.176740 0.626171 0.914221 0.259338
H238  H     H_    0.211684 0.533367 0.913907 0.258839
H239  H     H_    0.236823 0.596513 0.881119 0.260043
H240  H     H_    0.145843 0.510844 0.859449 0.191032
H241  H     H_    0.110387 0.601839 0.860747 0.234409
H242  H     H_    0.175476 0.370317 0.086004 0.259717
H243  H     H_    0.210219 0.463400 0.086395 0.260038
H244  H     H_    0.235203 0.400500 0.119224 0.260866
H245  H     H_    0.144464 0.484202 0.141199 0.186748
H246  H     H_    0.134561 0.160788 0.184369 0.165655
H247  H     H_    0.107415 0.393598 0.138875 0.237707
H248  H     H_    0.029215 0.287560 0.170379 0.265076
H249  H     H_    0.081203 0.238422 0.139204 0.212430
H250  H     H_    0.015914 0.123165 0.154891 0.257443
H251  H     H_    0.952937 0.193550 0.142444 0.277433
H252  H     H_    0.964632 0.172260 0.186658 0.267700
H253  H     H_    0.850377 0.639044 0.839592 0.167690
H254  H     H_    0.777895 0.623444 0.810411 0.085120
H255  H     H_    0.393810 0.049809 0.554518 0.156264
H256  H     H_    0.774207 0.735281 0.869153 0.242085
H257  H     H_    0.699651 0.712133 0.841396 0.235008
H258  H     H_    0.702964 0.583131 0.862489 0.269027
H259  H     H_    0.687917 0.647713 0.896185 0.273041
H260  H     H_    0.776655 0.607411 0.890849 0.274681
H261  H     H_    0.787785 0.084881 0.207642 0.139324
H262  H     H_    0.831680 0.149966 0.179715 0.173483
H263  H     H_    0.711065 0.040959 0.160601 0.241387
H264  H     H_    0.748631 0.108969 0.132629 0.223854
H265  H     H_    0.836510 0.987105 0.167687 0.289262
H266  H     H_    0.051720 0.398464 0.446214 0.156329
H267  H     H_    0.872008 0.054144 0.138380 0.269524
H268  H     H_    0.806587 0.987300 0.124176 0.268753
H269  H     H_    0.370192 0.841091 0.839172 0.166205
H270  H     H_    0.382435 0.772535 0.807756 0.082462
H271  H     H_    0.276659 0.760785 0.868680 0.244116
H272  H     H_    0.296640 0.690010 0.838460 0.233597
H273  H     H_    0.427594 0.691233 0.856760 0.267222
H274  H     H_    0.366441 0.671714 0.891374 0.271821
H275  H     H_    0.406616 0.761134 0.887563 0.274734
H276  H     H_    0.931516 0.782908 0.265141 0.108392
H277  H     H_    0.953689 0.396622 0.553636 0.156067
H278  H     H_    0.901692 0.869345 0.247577 0.142399
H279  H     H_    0.024480 0.774304 0.218232 0.273079
H280  H     H_    0.997696 0.863377 0.203932 0.212446
H281  H     H_    0.032708 0.916448 0.259858 0.266092
H282  H     H_    0.107941 0.867975 0.241199 0.255227
H283  H     H_    0.057267 0.826842 0.275140 0.259657
H284  H     H_    0.096597 0.284168 0.835860 0.177248
H285  H     H_    0.183024 0.315525 0.821597 0.097826
H286  H     H_    0.151440 0.160738 0.849722 0.248029
H287  H     H_    0.239662 0.196904 0.838493 0.240889
H288  H     H_    0.603356 0.046334 0.446366 0.156069
H289  H     H_    0.227756 0.293075 0.882790 0.265962
H290  H     H_    0.220467 0.202623 0.900328 0.275276
H291  H     H_    0.139476 0.256612 0.894546 0.268227
H292  H     H_    0.217092 0.068481 0.734869 0.108395
H293  H     H_    0.130656 0.098311 0.752432 0.142395
H294  H     H_    0.225697 0.975529 0.781782 0.273076
H295  H     H_    0.136625 0.002318 0.796081 0.212434
H296  H     H_    0.083551 0.967296 0.740156 0.266084
H297  H     H_    0.132018 0.892067 0.758822 0.255229
H298  H     H_    0.173157 0.942726 0.724877 0.259659
H299  H     H_    0.601500 0.948241 0.553782 0.156326
H300  H     H_    0.715856 0.903414 0.164141 0.177240
H301  H     H_    0.684488 0.816989 0.178403 0.097830
H302  H     H_    0.839290 0.848558 0.150290 0.248042
H303  H     H_    0.803106 0.760340 0.161512 0.240879
H304  H     H_    0.706954 0.772268 0.117207 0.265965
H305  H     H_    0.797416 0.779547 0.099677 0.275277
H306  H     H_    0.743436 0.860544 0.105458 0.268230
H307  H     H_    0.082668 0.786530 0.788092 0.131789
H308  H     H_    0.139848 0.833016 0.818849 0.169121
H309  H     H_    0.037192 0.703833 0.833786 0.263458
H310  H     H_    0.450215 0.106201 0.945482 0.156261
H311  H     H_    0.091504 0.752753 0.864309 0.214004
H312  H     H_    0.969119 0.817760 0.819958 0.276672
H313  H     H_    0.022973 0.867266 0.850779 0.253899
H314  H     H_    0.962577 0.795046 0.864237 0.274500
H315  H     H_    0.835591 0.372017 0.158827 0.162545
H316  H     H_    0.776693 0.389070 0.193698 0.085072
H317  H     H_    0.743088 0.284114 0.134180 0.244302
H318  H     H_    0.681760 0.307203 0.168167 0.231842
H319  H     H_    0.684764 0.438094 0.150159 0.265249
H320  H     H_    0.653463 0.378673 0.116766 0.272334
O1    O     O_3   0.500000 1.000000 0.250000 -0.488630
O2    O     O_R   0.500000 0.939240 0.675070 -0.656525
O3    O     O_R   0.939240 0.500000 0.324930 -0.641980
O4    O     O_R   0.060760 0.500000 0.675070 -0.659740
O5    O     O_R   0.000000 0.439240 0.824930 -0.659766
O6    O     O_R   0.000000 0.560760 0.175070 -0.641988
O7    O     O_R   0.560760 1.000000 0.824930 -0.656387
O8    O     O_R   0.439240 0.000000 0.175070 -0.659431
O9    O     O_R   0.000000 0.560760 0.824930 -0.659448
O10   O     O_R   0.000000 0.439240 0.175070 -0.656489
O11   O     O_R   0.439240 1.000000 0.824930 -0.641987
O12   O     O_3   0.500000 0.000000 0.750000 -0.493241
O13   O     O_R   0.560760 0.000000 0.175070 -0.659745
O14   O     O_R   0.414510 0.146130 0.269710 -0.621244
O15   O     O_R   0.585490 0.853870 0.730290 -0.630633
O16   O     O_R   0.853870 0.414510 0.269710 -0.627420
O17   O     O_R   0.146130 0.585490 0.730290 -0.625050
O18   O     O_R   0.585490 0.853870 0.269710 -0.622166
O19   O     O_R   0.414510 0.146130 0.730290 -0.612024
O20   O     O_R   0.146130 0.585490 0.269710 -0.622066
O21   O     O_R   0.853870 0.414510 0.730290 -0.632994
O22   O     O_R   0.414510 0.853870 0.730290 -0.622078
O23   O     O_3   0.000000 0.500000 0.250000 -0.493236
O24   O     O_R   0.585490 0.146130 0.269710 -0.632985
O25   O     O_R   0.853870 0.585490 0.730290 -0.621237
O26   O     O_R   0.146130 0.414510 0.269710 -0.630672
O27   O     O_R   0.585490 0.146130 0.730290 -0.627404
O28   O     O_R   0.414510 0.853870 0.269710 -0.625046
O29   O     O_R   0.146130 0.414510 0.730290 -0.622168
O30   O     O_R   0.853870 0.585490 0.269710 -0.612023
O31   O     O_R   0.914510 0.646130 0.769710 -0.621263
O32   O     O_R   0.085490 0.353870 0.230290 -0.630661
O33   O     O_R   0.353870 0.914510 0.769710 -0.627428
O34   O     O_3   0.000000 0.500000 0.750000 -0.488625
O35   O     O_R   0.646130 0.085490 0.230290 -0.625054
O36   O     O_R   0.085490 0.353870 0.769710 -0.622170
O37   O     O_R   0.914510 0.646130 0.230290 -0.612020
O38   O     O_R   0.646130 0.085490 0.769710 -0.621990
O39   O     O_R   0.353870 0.914510 0.230290 -0.632991
O40   O     O_R   0.914510 0.353870 0.230290 -0.622052
O41   O     O_R   0.085490 0.646130 0.769710 -0.632989
O42   O     O_R   0.353870 0.085490 0.230290 -0.621252
O43   O     O_R   0.646130 0.914510 0.769710 -0.630646
O44   O     O_R   0.085490 0.646130 0.230290 -0.627428
O45   O     O_R   0.500000 0.939240 0.324930 -0.659745
O46   O     O_R   0.914510 0.353870 0.769710 -0.625071
O47   O     O_R   0.646130 0.914510 0.230290 -0.622170
O48   O     O_R   0.353870 0.085490 0.769710 -0.612024
O49   O     O_3   0.274327 0.831641 0.191496 -0.619996
O50   O     O_3   0.716472 0.177517 0.810378 -0.616658
O51   O     O_3   0.163464 0.268954 0.192669 -0.619078
O52   O     O_3   0.831486 0.726386 0.808766 -0.615329
O53   O     O_3   0.722846 0.171051 0.190975 -0.621834
O54   O     O_3   0.279714 0.825751 0.809837 -0.615064
O55   O     O_3   0.881898 0.778168 0.217600 -0.596128
O56   O     O_R   0.500000 0.060760 0.675070 -0.641985
O57   O     O_3   0.130890 0.232542 0.792840 -0.603633
O58   O     O_3   0.221836 0.118110 0.782407 -0.596128
O59   O     O_3   0.767467 0.869116 0.207165 -0.603644
O60   O     O_3   0.168373 0.725657 0.808507 -0.619990
O61   O     O_3   0.822499 0.283513 0.189625 -0.616599
O62   O     O_3   0.731105 0.836563 0.807321 -0.619022
O63   O     O_3   0.273656 0.168552 0.191224 -0.615453
O64   O     O_3   0.828920 0.277192 0.809030 -0.621856
O65   O     O_3   0.174237 0.720295 0.190166 -0.615057
O66   O     O_3   0.774340 0.331627 0.691494 -0.620004
O67   O     O_R   0.060760 0.500000 0.324930 -0.656509
O68   O     O_3   0.216494 0.677494 0.310373 -0.616595
O69   O     O_3   0.663461 0.768960 0.692668 -0.619087
O70   O     O_3   0.331432 0.226329 0.308781 -0.615464
O71   O     O_3   0.222849 0.671050 0.690976 -0.621832
O72   O     O_3   0.779699 0.325767 0.309832 -0.615057
O73   O     O_3   0.381896 0.278168 0.717598 -0.596127
O74   O     O_3   0.630890 0.732540 0.292839 -0.603642
O75   O     O_3   0.721832 0.618107 0.282403 -0.596120
O76   O     O_3   0.267466 0.369115 0.707164 -0.603634
O77   O     O_3   0.668352 0.225678 0.308502 -0.620010
O78   O     O_R   0.939240 0.500000 0.675070 -0.659431
O79   O     O_3   0.322497 0.783516 0.689626 -0.616587
O80   O     O_3   0.231033 0.336527 0.307333 -0.619091
O81   O     O_3   0.773654 0.668551 0.691221 -0.615485
O82   O     O_3   0.328959 0.777144 0.309022 -0.621832
O83   O     O_3   0.674257 0.220275 0.690164 -0.615052
O84   O     O_R   0.500000 0.060760 0.324930 -0.659420
Zn1   Zn    Zn3+2 0.413200 1.000000 0.222070 0.943728
Zn2   Zn    Zn3+2 0.086800 0.500000 0.277930 0.940139
Zn3   Zn    Zn3+2 0.500000 0.913200 0.722070 0.940123
Zn4   Zn    Zn3+2 0.500000 0.086800 0.277930 0.943736
Zn5   Zn    Zn3+2 0.086800 0.500000 0.722070 0.946951
Zn6   Zn    Zn3+2 0.913200 0.500000 0.277930 0.952539
Zn7   Zn    Zn3+2 0.500000 0.086800 0.722070 0.952535
Zn8   Zn    Zn3+2 0.500000 0.913200 0.277930 0.946943
Zn9   Zn    Zn3+2 0.586800 1.000000 0.777930 0.940272
Zn10  Zn    Zn3+2 0.000000 0.413200 0.222070 0.940165
Zn11  Zn    Zn3+2 0.000000 0.586800 0.777930 0.943719
Zn12  Zn    Zn3+2 0.586800 1.000000 0.222070 0.946941
Zn13  Zn    Zn3+2 0.413200 1.000000 0.777930 0.952534
Zn14  Zn    Zn3+2 1.000000 0.586800 0.222070 0.952532
Zn15  Zn    Zn3+2 0.000000 0.413200 0.777930 0.946929
Zn16  Zn    Zn3+2 0.913200 0.500000 0.722070 0.943741

loop_
_geom_bond_atom_site_label_1
_geom_bond_atom_site_label_2
_ccdc_geom_bond_type
C9    C218  S    
C106  H78   S    
C130  H132  S    
C122  H115  S    
C131  H137  S    
O24   Zn4   S    
C3    C250  A    
C55   C56   S    
C67   O60   S    
C158  H199  S    
C16   C252  A    
C169  H228  S    
C89   H41   S    
C221  O31   A    
C225  O39   A    
O48   Zn13  S    
C118  H105  S    
C143  H167  S    
C126  C127  S    
C21   C221  S    
C98   H61   S    
C154  H195  S    
C46   C181  A    
C221  O25   A    
C231  C241  A    
O1    Zn8   S    
C61   H293  S    
C114  H93   S    
C14   C239  A    
C92   H45   S    
C137  H150  S    
C130  H133  S    
C70   H314  S    
C116  H99   S    
C184  C193  S    
C166  H220  S    
C108  C109  S    
C27   C90   A    
C129  H130  S    
C171  H233  S    
C110  C111  S    
C57   C182  A    
C241  O62   S    
C162  H208  S    
O23   Zn2   S    
C39   H179  S    
C117  H100  S    
C45   H257  S    
C61   H292  S    
C119  H106  S    
C133  H141  S    
C90   C143  S    
C77   O63   S    
C149  H176  S    
C227  O30   A    
C199  C200  T    
C103  H71   S    
C100  H65   S    
C31   C181  A    
C112  H112  S    
C97   O70   S    
C41   O51   S    
C134  O82   S    
C37   H146  S    
C104  C105  S    
C190  C199  S    
C220  O24   A    
C7    O83   S    
C45   C47   S    
C233  O54   S    
C75   H7    S    
C80   H18   S    
C5    O81   S    
C111  H92   S    
C218  O46   A    
C45   H256  S    
C134  H144  S    
C51   C52   S    
C60   H291  S    
C145  H174  S    
C220  O35   A    
C133  H140  S    
C15   C215  S    
C74   C75   S    
C110  H89   S    
C205  O78   A    
C157  C235  A    
C24   H24   S    
O12   Zn3   S    
C244  O65   S    
C174  H245  S    
C71   H315  S    
C27   C205  S    
C175  H242  S    
C75   C76   S    
C163  H218  S    
C55   H279  S    
C107  H81   S    
C249  O70   S    
C202  H266  S    
C22   C230  A    
C142  H159  S    
O46   Zn15  S    
C156  H202  S    
C209  O8    A    
C73   H3    S    
C87   H36   S    
O23   Zn6   S    
C67   H307  S    
C78   H15   S    
C120  H108  S    
C99   H63   S    
C154  C155  S    
C211  O43   A    
O4    Zn5   S    
C210  O42   A    
C24   C178  A    
C1    C79   A    
C52   H271  S    
C153  H186  S    
C32   C206  S    
C112  C185  A    
C158  H197  S    
C180  H223  S    
C56   H282  S    
C121  H114  S    
C29   C113  A    
C43   H252  S    
C117  H103  S    
C47   H259  S    
C72   C73   S    
C64   H300  S    
C139  C140  S    
C18   C234  A    
O16   Zn6   S    
C48   O53   S    
C74   H4    S    
C234  O55   S    
C127  H126  S    
C71   H316  S    
O12   Zn7   S    
C83   H23   S    
C156  C158  S    
C233  C239  A    
C68   H68   S    
C207  O6    A    
O22   Zn3   S    
C64   C65   S    
C6    C25   A    
C251  C256  A    
C74   O62   S    
C125  O79   S    
O23   Zn10  S    
C36   H113  S    
C25   C225  S    
C147  H171  S    
C151  H181  S    
C192  C200  S    
O1    Zn1   S    
C69   C70   S    
C59   H286  S    
C63   H297  S    
C18   C227  S    
O13   Zn12  S    
C30   C168  A    
C195  C196  T    
C73   H320  S    
C74   H5    S    
C12   C240  A    
C5    C21   A    
C88   C89   S    
C98   C99   S    
C94   H50   S    
C55   H280  S    
O21   Zn16  S    
C8    C244  A    
C173  H238  S    
O67   Zn2   S    
C230  O51   S    
C81   H19   S    
C170  H236  S    
C143  C144  S    
C144  H166  S    
O20   Zn2   S    
O32   Zn10  S    
C34   H90   S    
C152  H189  S    
C155  H193  S    
C76   H10   S    
C253  O74   S    
C212  O16   A    
C251  O72   S    
O26   Zn2   S    
C128  C129  S    
C149  H177  S    
C97   C98   S    
C225  O28   A    
C167  C169  S    
C156  H200  S    
C85   C86   S    
C18   C254  A    
C34   O49   S    
O27   Zn7   S    
C101  C145  S    
C12   C251  A    
O3    Zn6   S    
C28   C201  S    
C113  C148  S    
C36   C37   S    
C224  H288  S    
C205  O4    A    
C172  H241  S    
C141  H163  S    
C219  O22   A    
C165  H222  S    
C253  C254  A    
C6    O82   S    
C78   C80   S    
O19   Zn7   S    
C170  C171  S    
C135  C152  S    
C87   H34   S    
O17   Zn5   S    
C236  C237  A    
C167  H230  S    
C123  H117  S    
C88   H37   S    
C174  C175  S    
C211  O15   A    
C8    C217  S    
C64   H301  S    
C171  H232  S    
C10   C210  S    
C35   H35   S    
C8    C247  A    
C69   H309  S    
C35   C188  A    
C160  H204  S    
C107  C108  S    
C131  O81   S    
C162  H209  S    
C238  O59   S    
C111  C114  S    
C40   H212  S    
O18   Zn8   S    
C76   H8    S    
O34   Zn5   S    
C219  O33   A    
C222  O32   A    
C66   H306  S    
C43   H250  S    
C44   H254  S    
O12   Zn13  S    
C82   H22   S    
C142  H161  S    
O1    Zn12  S    
O38   Zn9   S    
C119  H107  S    
C63   H296  S    
C227  O37   A    
C226  O36   A    
C31   C176  A    
C35   C179  A    
C84   H27   S    
C149  H175  S    
O12   Zn9   S    
C105  H75   S    
C85   H30   S    
C167  H229  S    
C203  O2    A    
C121  O77   S    
C72   H317  S    
C110  O74   S    
C108  H83   S    
C3    O79   S    
C40   H201  S    
C248  O69   S    
C255  O76   S    
C51   H270  S    
C91   C92   S    
C161  C176  S    
O39   Zn1   S    
C175  H243  S    
C91   O68   S    
C96   H55   S    
C91   H42   S    
C164  H216  S    
C13   C190  A    
C118  H104  S    
C107  O73   S    
C60   H290  S    
C201  O45   A    
C230  C242  A    
C13   H13   S    
C146  C224  A    
C256  O77   S    
C231  O52   S    
C49   H263  S    
C24   C192  A    
C3    C19   A    
C170  H234  S    
C23   C229  A    
C180  C186  A    
C40   H224  S    
C252  C255  A    
C217  O44   A    
C23   C223  S    
C193  C194  T    
C152  H191  S    
O33   Zn13  S    
C81   O64   S    
C97   H58   S    
C138  H151  S    
C46   C189  A    
C9    C243  A    
C48   H261  S    
C52   C53   S    
C129  C130  S    
C15   C253  A    
C17   C236  A    
C186  C224  A    
C54   C55   S    
C33   C207  S    
C122  H116  S    
C160  H205  S    
C109  H85   S    
O84   Zn4   S    
C115  O75   S    
C136  C137  S    
C4    O80   S    
O34   Zn16  S    
C228  C244  A    
C169  H227  S    
C89   H40   S    
C64   O59   S    
C153  H187  S    
C7    C245  A    
C28   C146  A    
C136  H145  S    
C77   H12   S    
C81   H20   S    
C164  H214  S    
O2    Zn3   S    
C101  C180  A    
C114  H94   S    
C245  O66   S    
C137  H149  S    
C130  H134  S    
C41   H246  S    
C69   H311  S    
C7    C23   A    
C166  H221  S    
C80   H17   S    
C185  C213  A    
C217  O20   A    
C34   C36   S    
C164  H215  S    
C102  C103  S    
C254  O75   S    
C237  O58   S    
C39   C40   S    
C59   C60   S    
O34   Zn11  S    
C143  H169  S    
C49   C50   S    
C39   H190  S    
C150  C151  S    
C71   O61   S    
C5    C248  A    
C139  H154  S    
C59   H287  S    
C84   O65   S    
C96   H54   S    
C109  H87   S    
C216  O48   A    
C167  C179  S    
C87   C88   S    
C204  O3    A    
C100  H66   S    
C187  C196  S    
C37   H124  S    
C41   C42   S    
C93   H48   S    
C57   H57   S    
C206  O9    A    
C185  C194  S    
C207  O10   A    
C161  C162  S    
C79   C141  S    
C235  H299  S    
C77   C78   S    
C86   H31   S    
C22   C222  S    
C111  H91   S    
C140  H156  S    
C29   C203  S    
C11   C248  A    
O37   Zn14  S    
C145  H173  S    
C4    C249  A    
O78   Zn16  S    
C215  O18   A    
C214  O17   A    
C171  H231  S    
C226  O29   A    
C115  H96   S    
C14   C214  S    
C159  H206  S    
C234  C238  A    
C102  H69   S    
C16   C216  S    
C161  H213  S    
C50   H267  S    
C95   H53   S    
C145  C147  S    
C28   C101  A    
C243  O64   S    
C95   C96   S    
C142  H160  S    
C58   O57   S    
C163  C177  S    
C223  O27   A    
C223  O38   A    
O34   Zn15  S    
C65   H302  S    
C9    C245  A    
C120  H109  S    
C126  H122  S    
C106  H77   S    
C4    C22   A    
C86   H33   S    
C54   O55   S    
C104  H73   S    
C52   H272  S    
C26   C124  A    
C212  O40   A    
O6    Zn14  S    
C125  H121  S    
C158  H198  S    
C62   H295  S    
C1    H1    S    
C31   C209  S    
O7    Zn9   S    
C204  O67   A    
C214  O41   A    
O10   Zn10  S    
C136  H147  S    
C43   H251  S    
C117  H102  S    
C84   C85   S    
O40   Zn10  S    
C29   C157  A    
C140  H155  S    
C70   H313  S    
C58   C59   S    
C127  H125  S    
C166  H219  S    
C82   C83   S    
O56   Zn7   S    
C228  O49   S    
C124  C202  A    
C61   O58   S    
C129  H131  S    
C26   C204  S    
O47   Zn12  S    
C62   C63   S    
C6    C247  A    
C159  C160  S    
C91   H43   S    
C138  O83   S    
C30   C208  S    
C128  H129  S    
C150  H185  S    
C161  H211  S    
C132  H139  S    
C66   H304  S    
C121  C122  S    
C96   H56   S    
C48   C49   S    
C128  H128  S    
C94   H51   S    
C153  H188  S    
C125  C126  S    
C173  H237  S    
C32   C177  A    
C208  O11   A    
C42   C43   S    
C131  C132  S    
C163  H217  S    
C95   H52   S    
C44   C45   S    
C72   H318  S    
C124  C150  S    
C53   H274  S    
C104  O72   S    
C140  H158  S    
C134  H143  S    
C42   H249  S    
C120  H110  S    
C126  H123  S    
C216  O19   A    
C104  H74   S    
C174  C183  S    
C110  H88   S    
C119  C120  S    
C37   H135  S    
C14   C250  A    
C105  C106  S    
C26   C79   A    
O11   Zn13  S    
C236  O57   S    
C102  H67   S    
O29   Zn5   S    
C247  O68   S    
C50   H265  S    
C27   C135  A    
C141  H162  S    
C54   H278  S    
C107  H82   S    
C144  H164  S    
C38   C39   S    
C188  C197  S    
C13   C177  A    
C92   C93   S    
C116  C117  S    
C115  H97   S    
O36   Zn15  S    
C88   H38   S    
C67   H308  S    
C78   H14   S    
C99   H64   S    
C154  H196  S    
C215  O47   A    
C138  C139  S    
C203  O56   A    
C172  C182  S    
C71   C72   S    
C131  H136  S    
C83   H26   S    
C38   O50   S    
C162  H210  S    
C80   H16   S    
C208  O7    A    
C218  O21   A    
C115  C116  S    
C56   H281  S    
C189  C198  S    
C168  C246  A    
C68   C183  A    
C165  C166  S    
C20   C232  A    
C34   H79   S    
C123  H118  S    
C163  C164  S    
C10   C242  A    
C2    C189  A    
C90   C112  A    
C47   H260  S    
C51   O54   S    
C165  H225  S    
C81   C82   S    
O14   Zn4   S    
C73   H319  S    
C159  C168  S    
C229  O50   S    
C84   H28   S    
C15   C238  A    
C85   H29   S    
C92   H44   S    
O31   Zn11  S    
C172  H240  S    
C87   O66   S    
C32   C182  A    
C156  C157  S    
C108  H84   S    
C51   H269  S    
C229  C243  A    
C20   C256  A    
C127  H127  S    
C250  O71   S    
C68   C192  A    
C53   H273  S    
C21   C231  A    
C222  O26   A    
C94   O69   S    
C232  C240  A    
C147  H172  S    
C151  H182  S    
C209  O13   A    
O45   Zn8   S    
C118  C119  S    
C63   H298  S    
C148  H178  S    
C11   C211  S    
C38   H157  S    
C132  C133  S    
C125  H120  S    
C103  H70   S    
C146  C154  S    
C33   C183  A    
C30   C179  A    
C173  H239  S    
C159  H207  S    
C206  O5    A    
O43   Zn9   S    
O25   Zn16  S    
C187  C191  A    
C100  O71   S    
C144  H165  S    
C2    C176  A    
C75   H6    S    
C155  H194  S    
C11   C241  A    
C76   H9    S    
C165  C178  S    
C20   C220  S    
C61   C62   S    
C58   H284  S    
C118  O76   S    
C19   C233  A    
C48   H262  S    
C201  O84   A    
C1    C184  A    
C50   H268  S    
C106  H80   S    
C113  C191  A    
C184  C202  A    
C155  H192  S    
C186  C195  S    
C53   H275  S    
C148  C149  S    
C12   C212  S    
C54   H276  S    
C232  O53   S    
C116  H98   S    
C36   H101  S    
C169  H226  S    
C89   H39   S    
C134  C136  S    
C239  O60   S    
O44   Zn14  S    
C65   H303  S    
C77   H11   S    
C67   C69   S    
C58   H285  S    
C99   H62   S    
C38   H168  S    
C46   H46   S    
C83   H25   S    
C114  H95   S    
C17   C226  S    
C137  H148  S    
C197  C198  T    
O30   Zn6   S    
C42   H248  S    
C160  H203  S    
C100  C102  S    
C133  H142  S    
C94   C95   S    
O28   Zn8   S    
C152  C153  S    
C188  C246  A    
C242  O63   S    
C44   O52   S    
C56   H283  S    
C2    H2    S    
C16   C237  A    
O8    Zn1   S    
C170  C181  S    
C66   H305  S    
C44   H253  S    
C82   H21   S    
C19   C219  S    
C139  H153  S    
C47   H258  S    
C132  H138  S    
C252  O73   S    
C210  O14   A    
C172  C173  S    
O15   Zn3   S    
C109  H86   S    
C128  O80   S    
C93   H49   S    
C17   C255  A    
C105  H76   S    
C33   C178  A    
C121  H111  S    
C86   H32   S    
C93   H47   S    
O5    Zn15  S    
C240  O61   S    
C62   H294  S    
C150  H184  S    
O9    Zn11  S    
C25   C228  A    
C147  H170  S    
C103  H72   S    
C10   C249  A    
C187  C235  A    
O1    Zn4   S    
C60   H289  S    
O41   Zn11  S    
C57   C190  A    
C148  H180  S    
C141  C142  S    
O42   Zn1   S    
C135  C213  A    
C70   H312  S    
C49   H264  S    
C174  H247  S    
C151  H183  S    
C246  H310  S    
C175  H244  S    
C213  H277  S    
O23   Zn14  S    
C65   C66   S    
C97   H59   S    
C123  H119  S    
C98   H60   S    
C41   H235  S    
C138  H152  S    
C122  C123  S    
O35   Zn12  S    
C191  H255  S    
