data_mof_unit_63861.cif
_audit_creation_date              2012-10-26T17:37:59-0400
_audit_creation_method            fapswitch 2.2
_symmetry_space_group_name_H-M    P1
_symmetry_Int_Tables_number       1
_space_group_crystal_system       monoclinic
_cell_length_a                    29.407408
_cell_length_b                    29.407408
_cell_length_c                    38.976361
_cell_angle_alpha                 90.0
_cell_angle_beta                  90.0
_cell_angle_gamma                 89.999986
_cell_volume                      33706.5872616

loop_
_atom_site_label
_atom_site_type_symbol
_atom_type_description
_atom_site_fract_x
_atom_site_fract_y
_atom_site_fract_z
_atom_type_partial_charge
C1    C     C_R   0.500000 0.914396 0.000000 0.553599
C2    C     C_1   0.229268 0.500000 0.000000 0.017503
C3    C     C_R   0.000000 0.500000 0.895178 -0.013187
C4    C     C_R   0.000000 0.500000 0.604822 -0.013187
C5    C     C_R   0.500000 1.000000 0.604822 -0.013188
C6    C     C_R   0.000000 0.500000 0.395178 -0.013188
C7    C     C_R   0.500000 0.000000 0.395178 -0.013187
C8    C     C_R   0.500000 0.000000 0.284841 0.351100
C9    C     C_R   0.000000 0.500000 0.284841 0.351100
C10   C     C_R   0.500000 1.000000 0.715159 0.351100
C11   C     C_R   0.000000 0.500000 0.715159 0.351101
C12   C     C_R   0.000000 0.500000 0.784841 0.351100
C13   C     C_1   0.500000 0.229268 0.000000 0.017503
C14   C     C_R   0.500000 1.000000 0.784841 0.351100
C15   C     C_R   0.000000 0.500000 0.215159 0.351100
C16   C     C_R   0.500000 0.000000 0.215159 0.351101
C17   C     C_1   0.500000 0.863304 0.000000 -0.018016
C18   C     C_1   0.136696 0.500000 0.000000 -0.018016
C19   C     C_1   0.500000 0.136696 0.000000 -0.018016
C20   C     C_1   0.863304 0.500000 0.000000 -0.018016
C21   C     C_1   0.000000 0.363303 0.500000 -0.018016
C22   C     C_1   0.636696 0.000000 0.500000 -0.018016
C23   C     C_1   1.000000 0.636696 0.500000 -0.018016
C24   C     C_1   0.770732 0.500000 0.000000 0.017503
C25   C     C_1   0.363304 1.000000 0.500000 -0.018016
C26   C     C_1   0.500000 0.820946 0.000000 -0.015890
C27   C     C_1   0.179054 0.500000 0.000000 -0.015890
C28   C     C_1   0.500000 0.179054 0.000000 -0.015890
C29   C     C_1   0.820946 0.500000 0.000000 -0.015890
C30   C     C_1   0.000000 0.320946 0.500000 -0.015890
C31   C     C_1   0.679054 1.000000 0.500000 -0.015890
C32   C     C_1   1.000000 0.679054 0.500000 -0.015890
C33   C     C_1   0.320946 1.000000 0.500000 -0.015890
C34   C     C_1   0.436603 0.943425 0.105947 0.219248
C35   C     C_1   1.000000 0.270732 0.500000 0.017503
C36   C     C_1   0.056572 0.436601 0.105947 0.219249
C37   C     C_1   0.563397 0.056575 0.105947 0.219247
C38   C     C_1   0.943428 0.563399 0.105947 0.219249
C39   C     C_1   0.563399 0.943427 0.894053 0.219249
C40   C     C_1   0.943425 0.436603 0.894053 0.219248
C41   C     C_1   0.436601 0.056572 0.894053 0.219249
C42   C     C_1   0.056575 0.563397 0.894053 0.219247
C43   C     C_1   0.936603 0.443425 0.605947 0.219248
C44   C     C_1   0.556572 0.936600 0.605947 0.219249
C45   C     C_1   0.063397 0.556575 0.605947 0.219247
C46   C     C_1   0.729268 0.000000 0.500000 0.017503
C47   C     C_1   0.443427 0.063399 0.605947 0.219249
C48   C     C_1   0.063399 0.443427 0.394053 0.219249
C49   C     C_1   0.443425 0.936603 0.394053 0.219248
C50   C     C_1   0.936600 0.556572 0.394053 0.219249
C51   C     C_1   0.556575 0.063397 0.394053 0.219247
C52   C     C_1   0.000000 0.729268 0.500000 0.017503
C53   C     C_1   0.270732 1.000000 0.500000 0.017503
C54   C     C_1   0.500000 0.728373 0.000000 0.015505
C55   C     C_1   0.271627 0.500000 0.000000 0.015505
C56   C     C_1   0.500000 0.271627 0.000000 0.015505
C57   C     C_R   0.085604 0.500000 0.000000 0.553598
C58   C     C_1   0.728373 0.500000 0.000000 0.015505
C59   C     C_1   0.000000 0.228373 0.500000 0.015505
C60   C     C_1   0.771627 0.000000 0.500000 0.015505
C61   C     C_1   0.000000 0.771627 0.500000 0.015505
C62   C     C_1   0.228373 1.000000 0.500000 0.015505
C63   C     C_1   0.500000 0.678158 0.000000 -0.021907
C64   C     C_1   0.321842 0.500000 0.000000 -0.021907
C65   C     C_1   0.500000 0.321842 0.000000 -0.021907
C66   C     C_1   0.678158 0.500000 0.000000 -0.021907
C67   C     C_1   0.000000 0.178158 0.500000 -0.021907
C68   C     C_R   0.500000 0.085604 0.000000 0.553598
C69   C     C_1   0.821842 0.000000 0.500000 -0.021907
C70   C     C_1   0.000000 0.821842 0.500000 -0.021907
C71   C     C_1   0.178158 1.000000 0.500000 -0.021907
C72   C     C_1   0.500000 0.635798 0.000000 -0.025897
C73   C     C_1   0.364202 0.500000 0.000000 -0.025897
C74   C     C_1   0.500000 0.364202 0.000000 -0.025897
C75   C     C_1   0.635798 0.500000 0.000000 -0.025897
C76   C     C_1   1.000000 0.135798 0.500000 -0.025897
C77   C     C_1   0.864202 0.000000 0.500000 -0.025897
C78   C     C_1   0.000000 0.864202 0.500000 -0.025897
C79   C     C_R   0.914396 0.500000 0.000000 0.553599
C80   C     C_1   0.135798 1.000000 0.500000 -0.025897
C81   C     C_R   0.415301 0.500000 0.000000 0.540644
C82   C     C_R   0.500000 0.415301 0.000000 0.540644
C83   C     C_R   0.584699 0.500000 0.000000 0.540644
C84   C     C_R   0.500000 0.584699 0.000000 0.540644
C85   C     C_R   0.915301 0.000000 0.500000 0.540644
C86   C     C_R   0.000000 0.915301 0.500000 0.540644
C87   C     C_R   0.084699 1.000000 0.500000 0.540644
C88   C     C_R   1.000000 0.084699 0.500000 0.540644
C89   C     C_R   0.500000 0.000000 0.066929 0.553964
C90   C     C_R   0.000000 0.414396 0.500000 0.553599
C91   C     C_R   1.000000 0.500000 0.066929 0.553963
C92   C     C_R   0.500000 1.000000 0.933071 0.553964
C93   C     C_R   0.000000 0.500000 0.933071 0.553964
C94   C     C_R   0.000000 0.500000 0.566928 0.553964
C95   C     C_R   0.500000 1.000000 0.566928 0.553963
C96   C     C_R   0.000000 0.500000 0.433071 0.553964
C97   C     C_R   0.500000 0.000000 0.433071 0.553964
C98   C     C_R   0.468568 0.972944 0.123195 -0.036564
C99   C     C_R   0.027055 0.468567 0.123195 -0.036564
C100  C     C_R   0.531432 0.027056 0.123195 -0.036564
C101  C     C_R   0.585604 0.000000 0.500000 0.553598
C102  C     C_R   0.972945 0.531433 0.123195 -0.036564
C103  C     C_R   0.531433 0.972945 0.876805 -0.036564
C104  C     C_R   0.972944 0.468568 0.876805 -0.036564
C105  C     C_R   0.468567 0.027055 0.876805 -0.036564
C106  C     C_R   0.027056 0.531432 0.876805 -0.036564
C107  C     C_R   0.968568 0.472944 0.623195 -0.036564
C108  C     C_R   0.527055 0.968567 0.623195 -0.036564
C109  C     C_R   0.031432 0.527056 0.623195 -0.036564
C110  C     C_R   0.472945 0.031433 0.623195 -0.036564
C111  C     C_R   0.031433 0.472945 0.376805 -0.036564
C112  C     C_R   1.000000 0.585604 0.500000 0.553598
C113  C     C_R   0.472944 0.968568 0.376805 -0.036564
C114  C     C_R   0.968567 0.527055 0.376805 -0.036564
C115  C     C_R   0.527056 0.031432 0.376805 -0.036564
C116  C     C_R   0.468851 0.973115 0.159044 -0.117975
C117  C     C_R   0.026883 0.468850 0.159044 -0.117975
C118  C     C_R   0.531149 0.026884 0.159044 -0.117975
C119  C     C_R   0.973117 0.531150 0.159044 -0.117975
C120  C     C_R   0.531150 0.973117 0.840956 -0.117975
C121  C     C_R   0.973116 0.468851 0.840956 -0.117975
C122  C     C_R   0.468850 0.026883 0.840956 -0.117975
C123  C     C_R   0.414396 1.000000 0.500000 0.553599
C124  C     C_R   0.026884 0.531149 0.840956 -0.117975
C125  C     C_R   0.968851 0.473115 0.659044 -0.117975
C126  C     C_R   0.526883 0.968850 0.659044 -0.117975
C127  C     C_R   0.031149 0.526884 0.659044 -0.117975
C128  C     C_R   0.473117 0.031150 0.659044 -0.117975
C129  C     C_R   0.031150 0.473117 0.340956 -0.117975
C130  C     C_R   0.473116 0.968851 0.340956 -0.117975
C131  C     C_R   0.968850 0.526883 0.340956 -0.117975
C132  C     C_R   0.526884 0.031149 0.340956 -0.117975
C133  C     C_R   0.500000 0.000000 0.177253 0.006887
C134  C     C_1   0.500000 0.770732 0.000000 0.017503
C135  C     C_R   0.000000 0.500000 0.177253 0.006888
C136  C     C_R   0.500000 1.000000 0.822747 0.006888
C137  C     C_R   0.000000 0.500000 0.822747 0.006887
C138  C     C_R   0.000000 0.500000 0.677253 0.006887
C139  C     C_R   0.500000 0.000000 0.677253 0.006888
C140  C     C_R   0.000000 0.500000 0.322747 0.006888
C141  C     C_R   0.500000 0.000000 0.322747 0.006887
C142  C     C_R   0.500000 0.000000 0.104822 -0.013187
C143  C     C_R   0.000000 0.500000 0.104822 -0.013188
C144  C     C_R   0.500000 1.000000 0.895178 -0.013188
Cu1   Cu    Cu3+1 0.542440 0.000000 0.000000 1.024166
Cu2   Cu    Cu3+1 0.500000 0.500000 0.965730 0.978789
Cu3   Cu    Cu3+1 0.000000 1.000000 0.534270 0.978788
Cu4   Cu    Cu3+1 0.000000 1.000000 0.465730 0.978789
Cu5   Cu    Cu3+1 1.000000 0.542440 0.000000 1.024166
Cu6   Cu    Cu3+1 0.457560 0.000000 0.000000 1.024166
Cu7   Cu    Cu3+1 0.000000 0.457560 0.000000 1.024166
Cu8   Cu    Cu3+1 0.042440 0.500000 0.500000 1.024166
Cu9   Cu    Cu3+1 0.500000 0.042440 0.500000 1.024166
Cu10  Cu    Cu3+1 0.957560 0.500000 0.500000 1.024166
Cu11  Cu    Cu3+1 0.500000 0.957560 0.500000 1.024166
Cu12  Cu    Cu3+1 0.500000 0.500000 0.034270 0.978788
H1    H     H_    0.444651 0.952020 0.172718 0.150094
H2    H     H_    0.547978 0.944649 0.672718 0.150094
H3    H     H_    0.055349 0.547980 0.672718 0.150094
H4    H     H_    0.452022 0.055351 0.672718 0.150094
H5    H     H_    0.055351 0.452022 0.327282 0.150094
H6    H     H_    0.452020 0.944651 0.327282 0.150094
H7    H     H_    0.944649 0.547978 0.327282 0.150094
H8    H     H_    0.547980 0.055349 0.327282 0.150094
H9    H     H_    0.047978 0.444649 0.172718 0.150094
H10   H     H_    0.555349 0.047980 0.172718 0.150094
H11   H     H_    0.952022 0.555351 0.172718 0.150094
H12   H     H_    0.555351 0.952022 0.827282 0.150094
H13   H     H_    0.952020 0.444651 0.827282 0.150094
H14   H     H_    0.444649 0.047978 0.827282 0.150094
H15   H     H_    0.047980 0.555349 0.827282 0.150094
H16   H     H_    0.944651 0.452020 0.672718 0.150094
N1    N     N_R   0.528080 0.028062 0.232934 -0.220299
N2    N     N_R   0.471938 0.028080 0.732934 -0.220299
N3    N     N_R   0.971920 0.471938 0.732934 -0.220299
N4    N     N_R   0.528062 0.971920 0.732934 -0.220299
N5    N     N_R   0.971920 0.528062 0.267066 -0.220299
N6    N     N_R   0.528062 0.028080 0.267066 -0.220299
N7    N     N_R   0.028080 0.471938 0.267066 -0.220299
N8    N     N_R   0.471938 0.971920 0.267066 -0.220299
N9    N     N_1   0.411027 0.919759 0.092144 -0.268368
N10   N     N_1   0.080237 0.411023 0.092145 -0.268368
N11   N     N_1   0.588973 0.080241 0.092144 -0.268368
N12   N     N_R   0.971938 0.528080 0.232934 -0.220299
N13   N     N_1   0.919762 0.588976 0.092145 -0.268368
N14   N     N_1   0.588976 0.919762 0.907855 -0.268368
N15   N     N_1   0.919759 0.411027 0.907856 -0.268368
N16   N     N_1   0.411023 0.080237 0.907855 -0.268368
N17   N     N_1   0.080241 0.588973 0.907856 -0.268368
N18   N     N_1   0.911027 0.419759 0.592144 -0.268368
N19   N     N_1   0.580237 0.911023 0.592145 -0.268368
N20   N     N_1   0.088973 0.580241 0.592144 -0.268368
N21   N     N_1   0.419762 0.088976 0.592145 -0.268368
N22   N     N_1   0.088976 0.419762 0.407855 -0.268368
N23   N     N_R   0.471920 0.971938 0.232934 -0.220299
N24   N     N_1   0.419759 0.911027 0.407855 -0.268368
N25   N     N_1   0.911023 0.580237 0.407855 -0.268368
N26   N     N_1   0.580241 0.088973 0.407855 -0.268368
N27   N     N_R   0.028062 0.471920 0.232934 -0.220299
N28   N     N_R   0.471920 0.028062 0.767066 -0.220299
N29   N     N_R   0.028062 0.528080 0.767066 -0.220299
N30   N     N_R   0.528080 0.971938 0.767066 -0.220299
N31   N     N_R   0.971938 0.471920 0.767066 -0.220299
N32   N     N_R   0.028080 0.528062 0.732934 -0.220299
O1    O     O_R   0.535830 0.937970 0.000040 -0.482057
O2    O     O_R   0.562030 0.035830 0.500040 -0.482057
O3    O     O_R   0.964170 0.562030 0.500040 -0.482057
O4    O     O_R   0.437970 0.964170 0.500040 -0.482057
O5    O     O_R   0.964170 0.437970 0.499960 -0.482057
O6    O     O_R   0.437970 0.035830 0.499960 -0.482057
O7    O     O_R   0.035830 0.562030 0.499960 -0.482057
O8    O     O_R   0.562030 0.964170 0.499960 -0.482057
O9    O     O_R   0.535830 0.999940 0.049970 -0.491214
O10   O     O_R   0.000060 0.535830 0.049970 -0.491214
O11   O     O_R   0.464170 0.000060 0.049970 -0.491213
O12   O     O_R   0.062030 0.535830 0.000040 -0.482057
O13   O     O_R   0.999940 0.464170 0.049970 -0.491213
O14   O     O_R   0.464170 0.999940 0.950030 -0.491213
O15   O     O_R   0.999940 0.535830 0.950030 -0.491214
O16   O     O_R   0.535830 0.000060 0.950030 -0.491213
O17   O     O_R   0.000060 0.464170 0.950030 -0.491213
O18   O     O_R   0.035830 0.499940 0.549970 -0.491214
O19   O     O_R   0.500060 0.035830 0.549970 -0.491214
O20   O     O_R   0.964170 0.500060 0.549970 -0.491213
O21   O     O_R   0.499940 0.964170 0.549970 -0.491213
O22   O     O_R   0.964170 0.499940 0.450030 -0.491213
O23   O     O_R   0.464170 0.062030 0.000040 -0.482057
O24   O     O_R   0.499940 0.035830 0.450030 -0.491214
O25   O     O_R   0.035830 0.500060 0.450030 -0.491213
O26   O     O_R   0.500060 0.964170 0.450030 -0.491213
O27   O     O_R   0.437960 0.499970 0.028950 -0.481798
O28   O     O_R   0.500030 0.437960 0.028950 -0.481798
O29   O     O_R   0.562040 0.500030 0.028950 -0.481798
O30   O     O_R   0.499970 0.562040 0.028950 -0.481798
O31   O     O_R   0.562040 0.499970 0.971050 -0.481798
O32   O     O_R   0.499970 0.437960 0.971050 -0.481797
O33   O     O_R   0.437960 0.500030 0.971050 -0.481797
O34   O     O_R   0.937970 0.464170 0.000040 -0.482057
O35   O     O_R   0.500030 0.562040 0.971050 -0.481798
O36   O     O_R   0.937960 0.999970 0.528950 -0.481798
O37   O     O_R   0.000030 0.937960 0.528950 -0.481798
O38   O     O_R   0.062040 0.000030 0.528950 -0.481798
O39   O     O_R   0.999970 0.062040 0.528950 -0.481798
O40   O     O_R   0.062040 0.999970 0.471050 -0.481798
O41   O     O_R   0.999970 0.937960 0.471050 -0.481797
O42   O     O_R   0.937960 0.000030 0.471050 -0.481797
O43   O     O_R   0.000030 0.062040 0.471050 -0.481798
O44   O     O_R   0.464170 0.937970 0.999960 -0.482057
O45   O     O_R   0.937970 0.535830 0.999960 -0.482057
O46   O     O_R   0.535830 0.062030 0.999960 -0.482057
O47   O     O_R   0.062030 0.464170 0.999960 -0.482057
O48   O     O_R   0.035830 0.437970 0.500040 -0.482057

loop_
_geom_bond_atom_site_label_1
_geom_bond_atom_site_label_2
_ccdc_geom_bond_type
C16   N1    A    
C61   C70   S    
C121  H13   S    
C4    C109  A    
C54   C63   S    
C10   N2    A    
C79   O34   A    
Cu8   O18   S    
C70   C78   T    
C33   C53   S    
C48   N22   T    
C114  C131  A    
Cu9   O24   S    
C49   C113  S    
C103  C120  A    
C42   N17   T    
C111  C129  A    
C75   C83   S    
C103  C144  A    
C88   O39   A    
Cu1   O1    S    
C68   O23   A    
C40   N15   T    
Cu3   O36   S    
Cu6   O44   S    
C23   C112  S    
C124  H15   S    
C128  H4    S    
C22   C101  S    
C41   C105  S    
C30   C35   S    
Cu10  O22   S    
C17   C26   T    
N1    N6    A    
C99   C143  A    
Cu11  O8    S    
C11   C138  S    
Cu9   O19   S    
Cu10  O5    S    
C82   O32   A    
C52   C61   T    
Cu5   Cu7   S    
C44   N19   T    
Cu9   O6    S    
C9    C140  S    
C45   C109  S    
C15   C135  S    
C5    C110  A    
Cu3   O37   S    
C121  C137  A    
C56   C65   S    
C37   N11   T    
C123  O6    A    
C119  C135  A    
C34   N9    T    
C35   C59   T    
Cu5   O15   S    
C12   N31   A    
C7    C115  A    
C123  O4    A    
C92   O16   A    
C130  C141  A    
Cu12  O28   S    
C24   C29   S    
C32   C52   S    
C131  C140  A    
C18   C57   S    
Cu3   Cu4   S    
C59   C67   S    
Cu5   O10   S    
C39   N14   T    
C69   C77   T    
C58   C66   S    
C6    C111  A    
C6    C114  A    
C83   O29   A    
C43   N18   T    
Cu12  O30   S    
C122  H14   S    
C31   C46   S    
C105  C122  A    
C64   C73   T    
Cu7   O13   S    
C13   C28   S    
C2    C27   S    
C127  C138  A    
C131  H7    S    
C57   O47   A    
C1    O1    A    
C76   C88   S    
Cu10  O3    S    
C9    N7    A    
C89   O11   A    
C13   C56   T    
C118  C133  A    
C130  H6    S    
C126  H2    S    
C77   C85   S    
C3    C106  A    
C47   C110  S    
C98   C142  A    
C94   O20   A    
C79   O45   A    
C74   C82   S    
C3    C104  A    
C16   C133  S    
C73   C81   S    
C71   C80   T    
C5    C95   S    
C50   N25   T    
C109  C127  A    
C91   C143  S    
C20   C29   T    
C44   C108  S    
C101  O8    A    
Cu5   O45   S    
C4    C107  A    
Cu2   O32   S    
C126  C139  A    
C10   N4    A    
C113  C130  A    
C115  C132  A    
C112  O7    A    
N4    N30   A    
C124  C137  A    
C107  C125  A    
Cu11  O4    S    
C22   C31   T    
C117  H9    S    
C54   C134  T    
C87   O38   A    
Cu7   O47   S    
C104  C121  A    
Cu3   O38   S    
C12   N29   A    
C14   N28   A    
C118  H10   S    
Cu4   O43   S    
C95   O19   A    
C65   C74   T    
Cu7   O17   S    
C41   N16   T    
C120  C136  A    
C96   O22   A    
C91   O13   A    
C84   O30   A    
C132  H8    S    
C26   C134  S    
C51   N26   T    
C99   C117  A    
C15   N27   A    
C53   C62   T    
C8    N8    A    
C45   N20   T    
C98   C116  A    
C97   O26   A    
Cu2   O33   S    
Cu3   O39   S    
Cu12  O29   S    
C15   N12   A    
C48   C111  S    
C25   C33   T    
Cu4   O42   S    
Cu6   O14   S    
C129  H5    S    
C19   C68   S    
C3    C93   S    
C43   C107  S    
Cu6   O11   S    
Cu2   O35   S    
C92   O14   A    
C19   C28   T    
C25   C123  S    
C122  C136  A    
Cu9   Cu11  S    
C72   C84   S    
N8    N23   A    
Cu1   O16   S    
Cu1   O9    S    
C49   N24   T    
Cu8   O7    S    
C83   O31   A    
C86   O41   A    
C6    C96   S    
C101  O2    A    
C85   O42   A    
N29   N32   A    
C4    C94   S    
Cu1   O46   S    
C84   O35   A    
C100  C118  A    
C102  C143  A    
C38   N13   T    
C119  H11   S    
Cu8   O48   S    
C128  C139  A    
C9    N5    A    
C120  H12   S    
C89   O9    A    
Cu8   O25   S    
C68   O46   A    
C132  C141  A    
Cu7   O34   S    
C82   O28   A    
Cu2   O31   S    
Cu11  O21   S    
C105  C144  A    
C94   O18   A    
Cu6   O23   S    
C7    C97   S    
C20   C79   S    
C46   C60   T    
C127  H3    S    
C1    C17   S    
C47   N21   T    
C18   C27   T    
Cu1   Cu6   S    
C112  O3    A    
Cu8   Cu10  S    
C1    O44   A    
C91   O10   A    
C90   O5    A    
C39   C103  S    
C116  C133  A    
C55   C64   S    
C125  C138  A    
C80   C87   S    
N5    N12   A    
C21   C30   T    
Cu11  O26   S    
N2    N28   A    
N7    N27   A    
C93   O15   A    
C85   O36   A    
C108  C126  A    
C23   C32   T    
C8    C141  S    
C40   C104  S    
Cu5   O12   S    
N3    N31   A    
C116  H1    S    
C38   C102  S    
C16   N23   A    
C100  C142  A    
C88   O43   A    
Cu12  O27   S    
C7    C113  A    
C87   O40   A    
C129  C140  A    
C90   O48   A    
C60   C69   S    
C86   O37   A    
C66   C75   T    
C14   N30   A    
C11   N3    A    
C34   C98   S    
C81   O33   A    
C62   C71   S    
C36   C99   S    
C14   C136  S    
C11   N32   A    
Cu10  O20   S    
C92   C144  S    
C51   C115  S    
C21   C90   S    
C2    C55   T    
C10   C139  S    
Cu9   O2    S    
C42   C106  S    
C8    N6    A    
C96   O25   A    
C97   O24   A    
C36   N10   T    
C63   C72   T    
C24   C58   T    
C78   C86   S    
C81   O27   A    
Cu4   O41   S    
C106  C124  A    
Cu4   O40   S    
C12   C137  S    
C57   O12   A    
C93   O17   A    
C67   C76   T    
C125  H16   S    
Cu2   Cu12  S    
C50   C114  S    
C95   O21   A    
C37   C100  S    
C102  C119  A    
C89   C142  S    
C110  C128  A    
C5    C108  A    
C117  C135  A    
