data_mof_unit_57223.cif
_audit_creation_date              2012-10-26T19:03:27-0400
_audit_creation_method            fapswitch 2.2
_symmetry_space_group_name_H-M    P1
_symmetry_Int_Tables_number       1
_space_group_crystal_system       triclinic
_cell_length_a                    10.771686
_cell_length_b                    12.95651
_cell_length_c                    11.682435
_cell_angle_alpha                 99.950197
_cell_angle_beta                  93.748568
_cell_angle_gamma                 90.199047
_cell_volume                      1602.29970528

loop_
_atom_site_label
_atom_site_type_symbol
_atom_type_description
_atom_site_fract_x
_atom_site_fract_y
_atom_site_fract_z
_atom_type_partial_charge
C1    C     C_R   0.504915 0.299377 0.478542 0.558612
C2    C     C_R   0.582870 0.125555 0.378573 -0.015487
C3    C     C_R   0.460213 0.138007 0.549131 -0.149204
C4    C     C_R   0.262488 0.496626 0.499989 0.562946
C5    C     C_R   0.467560 0.030457 0.544384 0.035181
C6    C     C_R   0.530281 0.969562 0.454980 0.031648
C7    C     C_R   0.537959 0.862059 0.450408 -0.144986
C8    C     C_R   0.415554 0.874433 0.621116 0.001363
C9    C     C_R   0.411649 0.983023 0.627150 -0.154555
C10   C     C_R   0.387533 0.400945 0.020687 -0.159776
C11   C     C_R   0.398608 0.407452 0.143029 0.434102
C12   C     C_R   0.068872 0.413756 0.551136 0.024231
C13   C     C_R   0.548363 0.545131 0.158723 0.031836
C14   C     C_R   0.540699 0.541135 0.035600 0.009503
C15   C     C_R   0.459670 0.466039 0.966446 -0.052704
C16   C     C_R   0.494565 0.700618 0.521448 0.575398
C17   C     C_R   0.452038 0.457050 0.843709 0.054553
C18   C     C_R   0.601905 0.592614 0.854943 0.031934
C19   C     C_R   0.611525 0.607336 0.977992 -0.014860
C20   C     C_R   0.737428 0.496372 0.499222 0.552504
C21   C     C_R   0.135923 0.336293 0.599862 -0.107633
C22   C     C_R   0.074041 0.261037 0.647893 -0.124980
C23   C     C_R   0.128777 0.489781 0.499563 0.021407
C24   C     C_R   0.944804 0.260397 0.646769 -0.114818
C25   C     C_R   0.876676 0.335089 0.597755 -0.074138
C26   C     C_R   0.937533 0.413184 0.550095 0.038438
C27   C     C_2   0.655717 0.170752 0.295200 0.213186
C28   C     C_2   0.694334 0.694035 0.039349 0.181999
C29   C     C_3   0.336703 0.237790 0.154495 0.009623
C30   C     C_3   0.211271 0.191023 0.100559 -0.273767
C31   C     C_3   0.221009 0.074013 0.053879 -0.480059
C32   C     C_2   0.342702 0.829198 0.704487 0.228851
C33   C     C_R   0.060312 0.560030 0.443634 -0.121333
C34   C     C_R   0.932234 0.559498 0.442636 -0.147595
C35   C     C_R   0.870915 0.488757 0.497647 0.020634
C36   C     C_R   0.482329 0.813847 0.532854 0.010574
C37   C     C_R   0.516449 0.186185 0.467003 0.003917
C38   C     C_R   0.586172 0.016959 0.372186 -0.153342
Cu1   Cu    Cu3+1 0.509250 0.507730 0.615930 0.969652
Cu2   Cu    Cu3+1 0.490750 0.492270 0.384070 1.042866
H1    H     H_    0.106600 0.617100 0.402648 0.140691
H2    H     H_    0.896997 0.200995 0.682773 0.116593
H3    H     H_    0.776395 0.329486 0.595720 0.149362
H4    H     H_    0.880690 0.616323 0.401184 0.128397
H5    H     H_    0.588440 0.815562 0.382684 0.153680
H6    H     H_    0.636116 0.969528 0.304765 0.133249
H7    H     H_    0.671277 0.124004 0.211017 0.096830
H8    H     H_    0.772541 0.718659 0.995928 0.107055
H9    H     H_    0.364589 0.198678 0.229415 0.161823
H10   H     H_    0.410139 0.218963 0.091177 0.102047
H11   H     H_    0.141666 0.202894 0.167648 0.187375
H12   H     H_    0.361449 0.030427 0.694414 0.082672
H13   H     H_    0.178069 0.231436 0.028130 0.159581
H14   H     H_    0.287785 0.060523 0.984418 0.138919
H15   H     H_    0.128441 0.042216 0.016474 0.156185
H16   H     H_    0.252463 0.031574 0.125216 0.160333
H17   H     H_    0.325785 0.876389 0.788110 0.091176
H18   H     H_    0.409811 0.184562 0.616877 0.103727
H19   H     H_    0.389305 0.399874 0.790659 0.110956
H20   H     H_    0.655784 0.642153 0.810364 0.116662
H21   H     H_    0.322827 0.345219 0.968127 0.086201
H22   H     H_    0.612401 0.597985 0.215123 0.183001
H23   H     H_    0.236041 0.331630 0.599496 0.116796
H24   H     H_    0.126553 0.202171 0.684807 0.103728
N1    N     N_R   0.523180 0.519350 0.790130 -0.230286
N2    N     N_R   0.476820 0.480650 0.209890 -0.230037
O1    O     O_R   0.506570 0.354460 0.582000 -0.543681
O2    O     O_2   0.672795 0.743104 0.134689 -0.550482
O3    O     O_3   0.323909 0.346229 0.197737 -0.529098
O4    O     O_2   0.294573 0.742161 0.678808 -0.482450
O5    O     O_R   0.490940 0.341410 0.386200 -0.437420
O6    O     O_R   0.327470 0.506530 0.597920 -0.480515
O7    O     O_R   0.311840 0.493480 0.402120 -0.463494
O8    O     O_R   0.509060 0.658590 0.613800 -0.467653
O9    O     O_R   0.493430 0.645540 0.418000 -0.524535
O10   O     O_R   0.688160 0.506520 0.597880 -0.528999
O11   O     O_R   0.672530 0.493470 0.402080 -0.481466
O12   O     O_2   0.705184 0.257229 0.321383 -0.492640

loop_
_geom_bond_atom_site_label_1
_geom_bond_atom_site_label_2
_ccdc_geom_bond_type
C30   H11   S    
Cu2   O5    S    
C16   O9    A    
C24   H2    S    
C7    C36   A    
C27   O12   D    
C25   H3    S    
C29   H9    S    
C18   N1    A    
C12   C23   A    
C1    O5    A    
C20   O11   A    
C16   O8    A    
C7    H5    S    
C28   O2    D    
C18   C19   A    
C10   C15   A    
C30   C31   S    
Cu2   O7    S    
C20   O10   A    
C34   C35   A    
C8    C36   A    
Cu1   O8    S    
C20   C35   S    
C13   H22   S    
C8    C9    A    
C23   C33   A    
Cu1   O6    S    
C6    C38   A    
C2    C27   S    
C31   H16   S    
C11   N2    A    
C1    C37   S    
C29   H10   S    
Cu2   N2    S    
C21   C22   A    
Cu1   N1    S    
C9    H12   S    
C32   H17   S    
C29   O3    S    
C13   N2    A    
C30   H13   S    
C38   H6    S    
C8    C32   S    
C34   H4    S    
C24   C25   A    
Cu1   Cu2   S    
C4    C23   S    
C32   O4    D    
C25   C26   A    
C12   C21   A    
C12   C26   A    
C5    C9    A    
C29   C30   S    
C2    C38   A    
C33   C34   A    
Cu1   O10   S    
C19   C28   S    
C4    O7    A    
C17   H19   S    
C18   H20   S    
C22   C24   A    
C10   H21   S    
C4    O6    A    
C27   H7    S    
C15   C17   A    
C28   H8    S    
C14   C15   A    
Cu1   O1    S    
C14   C19   A    
C3    C5    A    
C11   O3    S    
C6    C7    A    
C17   N1    A    
Cu2   O9    S    
C33   H1    S    
C16   C36   S    
C2    C37   A    
C5    C6    A    
C1    O1    A    
C31   H14   S    
C21   H23   S    
C10   C11   A    
C22   H24   S    
C3    H18   S    
C26   C35   A    
C3    C37   A    
Cu2   O11   S    
C31   H15   S    
C13   C14   A    
