data_mof_unit_51329.cif
_audit_creation_date              2012-12-10T16:46:42-0500
_audit_creation_method            fapswitch 2.2
_symmetry_space_group_name_H-M    P1
_symmetry_Int_Tables_number       1
_space_group_crystal_system       triclinic
_cell_length_a                    15.852179
_cell_length_b                    8.708329
_cell_length_c                    7.447056
_cell_angle_alpha                 103.012707
_cell_angle_beta                  94.132016
_cell_angle_gamma                 92.1686
_cell_volume                      997.485547431

loop_
_atom_site_label
_atom_site_type_symbol
_atom_type_description
_atom_site_fract_x
_atom_site_fract_y
_atom_site_fract_z
_atom_type_partial_charge
C1    C     C_R   0.497445 0.200017 0.453152 0.761383
C2    C     C_3   0.956399 0.498862 0.691191 -0.360926
C3    C     C_3   0.917112 0.502144 0.495418 0.050513
C4    C     C_3   0.952170 0.652408 0.440450 0.384574
C5    C     C_3   0.051132 0.657674 0.448302 0.941239
C6    C     C_1   0.824787 0.500482 0.492805 0.036608
C7    C     C_1   0.175302 0.502980 0.505911 0.078249
C8    C     C_1   0.250884 0.501789 0.506960 -0.126229
C9    C     C_2   0.496108 0.032672 0.425066 0.431613
C10   C     C_2   0.503532 0.967831 0.570902 -0.486162
C11   C     C_R   0.340325 0.500122 0.502469 0.803800
C12   C     C_R   0.502457 0.800212 0.546330 0.918444
C13   C     C_R   0.659687 0.499997 0.497530 0.808173
C14   C     C_3   0.054045 0.498318 0.693879 -0.498211
C15   C     C_3   0.042167 0.354040 0.359391 0.290167
C16   C     C_3   0.943993 0.355767 0.355553 -0.556787
C17   C     C_1   0.749184 0.499864 0.492944 -0.143681
C18   C     C_3   0.082836 0.503825 0.500291 0.037480
Cu1   Cu    Cu3+1 0.509300 0.517380 0.684380 0.994442
Cu2   Cu    Cu3+1 0.490700 0.482620 0.315620 1.022658
H1    H     H_    0.931620 0.391840 0.732893 0.193325
H2    H     H_    0.083017 0.600792 0.800789 0.254923
H3    H     H_    0.938305 0.603430 0.794445 0.233081
H4    H     H_    0.925555 0.651003 0.297515 0.072275
H5    H     H_    0.510536 0.039216 0.711733 0.162860
H6    H     H_    0.434942 0.376876 0.948523 0.229304
H7    H     H_    0.565060 0.623116 0.051477 0.251118
H8    H     H_    0.075881 0.390169 0.734744 0.197442
H9    H     H_    0.062755 0.249237 0.411570 0.100782
H10   H     H_    0.918513 0.245879 0.389827 0.191662
H11   H     H_    0.916196 0.356413 0.214070 0.207698
N1    N     N_2   0.476670 0.456430 0.038530 -0.203582
N2    N     N_2   0.523330 0.543570 0.961470 -0.188926
O1    O     O_R   0.506050 0.286130 0.619770 -0.628858
O2    O     O_R   0.490330 0.256780 0.308370 -0.540686
O3    O     O_R   0.387300 0.514690 0.655770 -0.580867
O4    O     O_R   0.371580 0.485340 0.344370 -0.564665
O5    O     O_R   0.509670 0.743220 0.691630 -0.567192
O6    O     O_R   0.493950 0.713870 0.380230 -0.514803
O7    O     O_R   0.628420 0.514660 0.655630 -0.575561
O8    O     O_R   0.612700 0.485310 0.344230 -0.590893
F1    F     F_    0.487253 0.945724 0.247241 -0.635659
O9    O     O_3   0.068684 0.349901 0.180233 -0.533729
C19   C     C_3   0.071463 0.192581 0.079004 -0.261453
H12   H     H_    0.010126 0.124655 0.074241 0.163647
H13   H     H_    0.124002 0.133229 0.138002 0.149137
H14   H     H_    0.084090 0.193492 0.934727 0.204417
F2    F     F_    0.084813 0.786218 0.586071 -0.675126
O10   O     O_3   0.078970 0.666988 0.273308 -0.590419
C20   C     C_3   0.078588 0.822718 0.247071 -0.247138
H15   H     H_    0.132890 0.896153 0.329961 0.204888
H16   H     H_    0.018081 0.878894 0.280750 0.165744
H17   H     H_    0.086333 0.818864 0.099329 0.178721
F3    F     F_    0.925421 0.786698 0.556210 -0.648809

loop_
_geom_bond_atom_site_label_1
_geom_bond_atom_site_label_2
_ccdc_geom_bond_type
C15   C18   S    
C20   H16   S    
O9    C19   S    
H6    N1    S    
Cu1   O5    S    
C15   H9    S    
C9    C10   D    
C14   C18   S    
Cu1   Cu2   S    
C19   H14   S    
C13   C17   S    
C3    C6    S    
C4    F3    S    
N1    N2    D    
C14   H2    S    
C2    H1    S    
C13   O8    A    
Cu2   O8    S    
C15   O9    S    
C7    C8    T    
C20   H15   S    
H7    N2    S    
C16   H11   S    
Cu2   O4    S    
C5    O10   S    
C9    F1    S    
C10   C12   S    
C12   O6    A    
C8    C11   S    
C2    C14   S    
C10   H5    S    
C11   O3    A    
C19   H13   S    
C1    O1    A    
C2    C3    S    
Cu1   O3    S    
C12   O5    A    
C4    H4    S    
C5    F2    S    
C20   H17   S    
Cu1   O7    S    
C16   H10   S    
C3    C4    S    
C6    C17   T    
C7    C18   S    
C1    C9    S    
C19   H12   S    
C1    O2    A    
O10   C20   S    
Cu2   N1    S    
C2    H3    S    
C11   O4    A    
Cu2   O6    S    
C13   O7    A    
C5    C18   S    
C14   H8    S    
Cu2   O2    S    
C3    C16   S    
C15   C16   S    
Cu1   N2    S    
C4    C5    S    
Cu1   O1    S    
