data_mof_unit_17009.cif
_audit_creation_date              2012-12-10T18:45:08-0500
_audit_creation_method            fapswitch 2.2
_symmetry_space_group_name_H-M    P1
_symmetry_Int_Tables_number       1
_space_group_crystal_system       triclinic
_cell_length_a                    10.705874
_cell_length_b                    9.842117
_cell_length_c                    10.693112
_cell_angle_alpha                 90.745223
_cell_angle_beta                  91.589829
_cell_angle_gamma                 91.477925
_cell_volume                      1125.80224089

loop_
_atom_site_label
_atom_site_type_symbol
_atom_type_description
_atom_site_fract_x
_atom_site_fract_y
_atom_site_fract_z
_atom_type_partial_charge
C1    C     C_R   0.260277 0.498314 0.498159 0.985897
C2    C     C_R   0.740089 0.502061 0.497465 0.934114
C3    C     C_R   0.942046 0.590801 0.577407 0.135089
C4    C     C_R   0.070556 0.577236 0.586407 0.122896
C5    C     C_R   0.549834 0.074717 0.599251 -0.056385
C6    C     C_R   0.449810 0.069130 0.400865 -0.033127
C7    C     C_R   0.549157 0.930972 0.599499 -0.096117
C8    C     C_R   0.449870 0.925294 0.400835 -0.070476
C9    C     C_R   0.505698 0.499363 0.260625 0.893300
C10   C     C_R   0.506333 0.501261 0.740017 0.877899
C11   C     C_R   0.690538 0.672645 0.140324 -0.154823
C12   C     C_R   0.681083 0.686787 0.880888 -0.213961
C13   C     C_R   0.768587 0.764450 0.080057 -0.105875
C14   C     C_R   0.762960 0.772522 0.950575 -0.155537
C15   C     C_R   0.599418 0.594267 0.940087 0.104249
C16   C     C_R   0.602571 0.589309 0.071294 0.106249
C17   C     C_R   0.519656 0.497583 0.129215 -0.093547
C18   C     C_R   0.516765 0.503056 0.873030 -0.110420
C19   C     C_R   0.445320 0.403717 0.060960 -0.181638
C20   C     C_R   0.443572 0.406643 0.933451 -0.202068
C21   C     C_R   0.060304 0.422727 0.403225 0.095731
C22   C     C_R   0.930617 0.426430 0.401434 0.108458
C23   C     C_R   0.872867 0.507757 0.490882 -0.201850
C24   C     C_R   0.128030 0.496308 0.497246 -0.197598
H1    H     H_    0.385419 0.330433 0.106448 0.184385
H2    H     H_    0.381993 0.335535 0.881680 0.168681
H3    H     H_    0.702473 0.665978 0.240661 0.159809
H4    H     H_    0.684612 0.692802 0.780917 0.182334
H5    H     H_    0.834641 0.828323 0.133920 0.152486
H6    H     H_    0.824206 0.843522 0.903889 0.142417
H7    H     H_    0.590003 0.131180 0.678637 0.137532
H8    H     H_    0.409659 0.121221 0.321556 0.150243
H9    H     H_    0.587742 0.879162 0.679458 0.131957
H10   H     H_    0.409553 0.868766 0.321560 0.143529
N1    N     N_R   0.500000 0.857200 0.500000 -0.086748
N2    N     N_R   0.500000 0.142810 0.500000 -0.080039
O1    O     O_R   0.316770 0.614620 0.499990 -0.603051
O2    O     O_R   0.683230 0.614620 0.500010 -0.621430
O3    O     O_R   0.316800 0.385290 0.500000 -0.603000
O4    O     O_R   0.683200 0.385290 0.500000 -0.596513
O5    O     O_R   0.500010 0.614690 0.316770 -0.642418
O6    O     O_R   0.499990 0.614690 0.683230 -0.634937
O7    O     O_R   0.500040 0.385360 0.316770 -0.602384
O8    O     O_R   0.499960 0.385360 0.683230 -0.627713
Zn1   Zn    Zn3+2 0.500000 0.653120 0.500000 0.940236
Zn2   Zn    Zn3+2 0.500000 0.346880 0.500000 0.983051
I1    I     I_    0.153397 0.309928 0.262134 -0.386112
I2    I     I_    0.822550 0.319247 0.257109 -0.328233
N3    N     N_2   0.882093 0.686160 0.655363 -0.308913
H11   H     H_    0.915805 0.689755 0.746461 0.224544
C25   C     C_3   0.871462 0.820623 0.602706 -0.722412
H12   H     H_    0.964704 0.869243 0.591312 0.236094
H13   H     H_    0.817742 0.885702 0.666058 0.211167
H14   H     H_    0.822850 0.816150 0.509746 0.267382
N4    N     N_2   0.141553 0.633225 0.690914 -0.309736
H15   H     H_    0.110452 0.605862 0.777678 0.218745
C26   C     C_3   0.185235 0.773351 0.683388 -0.686652
H16   H     H_    0.129220 0.838999 0.744392 0.211130
H17   H     H_    0.179733 0.811027 0.585856 0.248773
H18   H     H_    0.284225 0.781156 0.716889 0.255334

loop_
_geom_bond_atom_site_label_1
_geom_bond_atom_site_label_2
_ccdc_geom_bond_type
C5    H7    S    
C15   C18   A    
C22   I2    S    
N4    H15   S    
N2    Zn2   S    
C1    O1    A    
C10   O6    A    
C11   C13   A    
C11   C16   A    
C2    O2    A    
C9    O5    A    
C19   C20   A    
C12   C15   A    
C11   H3    S    
C4    C24   A    
C25   H14   S    
C3    N3    S    
C8    H10   S    
C21   C22   A    
O4    Zn2   S    
C7    H9    S    
C26   H16   S    
C20   H2    S    
C14   H6    S    
O3    Zn2   S    
C19   H1    S    
C10   O8    A    
C13   H5    S    
C17   C19   A    
C12   C14   A    
C18   C20   A    
N4    C26   S    
C4    N4    S    
C10   C18   S    
O7    Zn2   S    
C21   I1    S    
C9    O7    A    
C26   H17   S    
C15   C16   A    
C1    O3    A    
O1    Zn1   S    
C25   H12   S    
N1    Zn1   S    
C5    N2    A    
C2    O4    A    
C26   H18   S    
C12   H4    S    
C1    C24   S    
N3    H11   S    
C21   C24   A    
C9    C17   S    
C2    C23   S    
C5    C7    A    
O5    Zn1   S    
C22   C23   A    
O2    Zn1   S    
C6    C8    A    
O8    Zn2   S    
N3    C25   S    
C3    C23   A    
C13   C14   A    
C7    N1    A    
C8    N1    A    
C3    C4    A    
C6    H8    S    
C6    N2    A    
C16   C17   A    
C25   H13   S    
O6    Zn1   S    
