data_mof_unit_68298.cif
_audit_creation_date              2012-12-11T15:26:41-0500
_audit_creation_method            fapswitch 2.2
_symmetry_space_group_name_H-M    P1
_symmetry_Int_Tables_number       1
_space_group_crystal_system       monoclinic
_cell_length_a                    7.362405
_cell_length_b                    12.299254
_cell_length_c                    28.516907
_cell_angle_alpha                 90.0
_cell_angle_beta                  89.999974
_cell_angle_gamma                 90.0
_cell_volume                      2582.26550483

loop_
_atom_site_label
_atom_site_type_symbol
_atom_type_description
_atom_site_fract_x
_atom_site_fract_y
_atom_site_fract_z
_atom_type_partial_charge
O1    O     O_R   0.647170 0.849180 0.201220 -0.534306
O2    O     O_R   0.352830 0.150820 0.798780 -0.533632
O3    O     O_R   0.352830 0.150820 0.701220 -0.534306
O4    O     O_R   0.647170 0.849180 0.298780 -0.533633
O5    O     O_R   0.147170 0.650820 0.298780 -0.534306
O6    O     O_R   0.852830 0.349180 0.701220 -0.533632
O7    O     O_R   0.852830 0.349180 0.798780 -0.534306
O8    O     O_R   0.147170 0.650820 0.201220 -0.533632
O9    O     O_R   0.317430 0.862210 0.298450 -0.537216
O10   O     O_R   0.682570 0.137790 0.701550 -0.536160
O11   O     O_R   0.682570 0.137790 0.798450 -0.537217
O12   O     O_R   0.317430 0.862210 0.201550 -0.536160
O13   O     O_R   0.817430 0.637790 0.201550 -0.537217
O14   O     O_R   0.182570 0.362210 0.798450 -0.536160
O15   O     O_R   0.182570 0.362210 0.701550 -0.537217
O16   O     O_R   0.817430 0.637790 0.298450 -0.536160
C1    C     C_R   0.485995 0.890344 0.312258 0.677320
C2    C     C_R   0.513798 0.110292 0.687424 0.676337
C3    C     C_R   0.514005 0.109655 0.812258 0.677319
C4    C     C_R   0.486202 0.889708 0.187424 0.676337
C5    C     C_R   0.985995 0.609655 0.187742 0.677319
C6    C     C_R   0.013798 0.389708 0.812576 0.676337
C7    C     C_R   0.014005 0.390345 0.687743 0.677320
C8    C     C_R   0.986202 0.610292 0.312576 0.676337
H1    H     H_    0.981552 0.605436 0.697042 0.110902
H2    H     H_    0.951098 0.394438 0.308345 0.117277
H3    H     H_    0.018463 0.394565 0.197042 0.110902
H4    H     H_    0.048905 0.605562 0.808346 0.117278
H5    H     H_    0.481539 0.894565 0.802958 0.110902
H6    H     H_    0.451095 0.105562 0.191654 0.117278
H7    H     H_    0.518455 0.105435 0.302958 0.110902
H8    H     H_    0.548902 0.894438 0.691655 0.117277
H9    H     H_    0.032851 0.353434 0.598658 0.104589
H10   H     H_    0.050415 0.655525 0.399605 0.097704
H11   H     H_    0.967137 0.646565 0.098659 0.104590
H12   H     H_    0.949579 0.344474 0.899604 0.097703
H13   H     H_    0.532861 0.146566 0.901342 0.104589
H14   H     H_    0.550421 0.844474 0.100396 0.097703
H15   H     H_    0.467144 0.853433 0.401342 0.104589
H16   H     H_    0.449583 0.155525 0.600395 0.097704
O17   O     O_3   0.480630 0.680630 0.250000 -0.379370
O18   O     O_3   0.519370 0.319370 0.750000 -0.379370
O19   O     O_3   0.980630 0.819370 0.250000 -0.379370
O20   O     O_3   0.019370 0.180630 0.750000 -0.379370
V1    V     V_3+5 0.205800 0.762860 0.250000 1.410494
V2    V     V_3+5 0.794200 0.237140 0.750000 1.410493
V3    V     V_3+5 0.705800 0.737140 0.250000 1.410493
V4    V     V_3+5 0.294200 0.262860 0.750000 1.410494
H17   H     H_    0.186128 0.328138 0.538285 0.136245
H18   H     H_    0.925399 0.697561 0.461384 0.140488
H19   H     H_    0.813862 0.671860 0.038285 0.136244
H20   H     H_    0.074586 0.302436 0.961384 0.140488
H21   H     H_    0.686136 0.171860 0.961715 0.136244
H22   H     H_    0.425413 0.802436 0.038616 0.140488
H23   H     H_    0.313867 0.828138 0.461715 0.136245
H24   H     H_    0.574596 0.197561 0.538616 0.140488
C9    C     C_R   0.996524 0.531065 0.351388 -0.070686
C10   C     C_R   0.007206 0.473093 0.650300 -0.072809
C11   C     C_R   0.003475 0.468934 0.851388 -0.070685
C12   C     C_R   0.992794 0.526907 0.150300 -0.072810
C13   C     C_R   0.496525 0.968935 0.148612 -0.070684
C14   C     C_R   0.507206 0.026907 0.849700 -0.072810
C15   C     C_R   0.503475 0.031065 0.648612 -0.070686
C16   C     C_R   0.492794 0.973092 0.349700 -0.072809
C17   C     C_R   0.003065 0.343283 0.380709 0.109956
C18   C     C_R   0.996177 0.663532 0.624695 0.121991
C19   C     C_R   0.996927 0.656717 0.880709 0.109953
C20   C     C_R   0.003829 0.336468 0.124695 0.121991
C21   C     C_R   0.503073 0.156717 0.119291 0.109953
C22   C     C_R   0.496171 0.836468 0.875305 0.121991
C23   C     C_R   0.496931 0.843283 0.619291 0.109956
C24   C     C_R   0.503821 0.163531 0.375305 0.121991
C25   C     C_R   0.978693 0.419794 0.343890 -0.152686
C26   C     C_R   0.993482 0.583396 0.660481 -0.145396
C27   C     C_R   0.021305 0.580206 0.843891 -0.152682
C28   C     C_R   0.006526 0.416604 0.160481 -0.145394
C29   C     C_R   0.478695 0.080206 0.156109 -0.152684
C30   C     C_R   0.493474 0.916604 0.839519 -0.145394
C31   C     C_R   0.521305 0.919793 0.656110 -0.152684
C32   C     C_R   0.506521 0.083396 0.339519 -0.145396
C33   C     C_R   0.026709 0.569198 0.396214 -0.215841
C34   C     C_R   0.028157 0.440226 0.604367 -0.211840
C35   C     C_R   0.973286 0.430802 0.896214 -0.215841
C36   C     C_R   0.971836 0.559773 0.104367 -0.211839
C37   C     C_R   0.526714 0.930802 0.103786 -0.215841
C38   C     C_R   0.528162 0.059773 0.895633 -0.211839
C39   C     C_R   0.473289 0.069197 0.603786 -0.215841
C40   C     C_R   0.471840 0.940226 0.395633 -0.211840
C41   C     C_R   0.028482 0.499098 0.435310 0.055476
C42   C     C_R   0.032731 0.515245 0.566886 0.050853
C43   C     C_R   0.971510 0.500900 0.935310 0.055475
C44   C     C_R   0.967263 0.484754 0.066887 0.050851
C45   C     C_R   0.528489 0.000901 0.064690 0.055475
C46   C     C_R   0.532736 0.984754 0.933113 0.050851
C47   C     C_R   0.471515 0.999098 0.564690 0.055476
C48   C     C_R   0.467265 0.015245 0.433113 0.050853
C49   C     C_R   0.034635 0.383404 0.428063 -0.018939
C50   C     C_R   0.999106 0.628388 0.575958 -0.029792
C51   C     C_R   0.965358 0.616595 0.928064 -0.018939
C52   C     C_R   0.000893 0.371611 0.075959 -0.029794
C53   C     C_R   0.534642 0.116595 0.071936 -0.018939
C54   C     C_R   0.499106 0.871611 0.924041 -0.029794
C55   C     C_R   0.465362 0.883403 0.571936 -0.018939
C56   C     C_R   0.500891 0.128388 0.424042 -0.029793
C57   C     C_R   0.021096 0.542876 0.481789 0.011560
C58   C     C_R   0.059076 0.476706 0.520166 0.021049
C59   C     C_R   0.978894 0.457122 0.981789 0.011560
C60   C     C_R   0.940915 0.523292 0.020166 0.021049
C61   C     C_R   0.521104 0.957122 0.018211 0.011561
C62   C     C_R   0.559084 0.023292 0.979834 0.021049
C63   C     C_R   0.478899 0.042876 0.518211 0.011560
C64   C     C_R   0.440919 0.976706 0.479834 0.021049
C65   C     C_R   0.116234 0.370853 0.511014 -0.173411
C66   C     C_R   0.969380 0.650284 0.490567 -0.176771
C67   C     C_R   0.883757 0.629145 0.011014 -0.173407
C68   C     C_R   0.030610 0.349714 0.990567 -0.176768
C69   C     C_R   0.616242 0.129145 0.988986 -0.173407
C70   C     C_R   0.469389 0.849715 0.009433 -0.176769
C71   C     C_R   0.383762 0.870853 0.488986 -0.173411
C72   C     C_R   0.530615 0.150284 0.509433 -0.176771
C73   C     C_R   0.072064 0.317367 0.469024 0.117496
C74   C     C_R   0.967354 0.697334 0.535626 0.114899
C75   C     C_R   0.927929 0.682631 0.969024 0.117496
C76   C     C_R   0.032642 0.302664 0.035627 0.114897
C77   C     C_R   0.572070 0.182631 0.030976 0.117497
C78   C     C_R   0.467357 0.802665 0.964373 0.114897
C79   C     C_R   0.427932 0.817367 0.530976 0.117496
C80   C     C_R   0.532641 0.197334 0.464374 0.114899
C81   C     C_3   0.053278 0.193346 0.471785 -0.352057
C82   C     C_3   0.058564 0.141743 0.520959 -0.762257
H25   H     H_    0.939819 0.167921 0.542154 0.221657
H26   H     H_    0.184691 0.159435 0.540241 0.225357
H27   H     H_    0.057887 0.052545 0.517641 0.230797
H28   H     H_    0.917652 0.170263 0.458912 0.189252
H29   H     H_    0.159783 0.153775 0.450873 0.186739
C83   C     C_3   0.918027 0.817991 0.538741 -0.365856
C84   C     C_3   0.863084 0.876205 0.493240 -0.773257
H30   H     H_    0.748969 0.834169 0.475633 0.238864
H31   H     H_    0.980449 0.883095 0.468961 0.221537
H32   H     H_    0.814289 0.958960 0.501498 0.234297
H33   H     H_    0.799847 0.825459 0.561817 0.188564
H34   H     H_    0.034620 0.864503 0.552567 0.185753
C85   C     C_3   0.946721 0.806652 0.971785 -0.352058
C86   C     C_3   0.941441 0.858253 0.020961 -0.762256
H35   H     H_    0.060185 0.832072 0.042155 0.221657
H36   H     H_    0.815314 0.840563 0.040242 0.225356
H37   H     H_    0.942124 0.947452 0.017643 0.230797
H38   H     H_    0.082346 0.829733 0.958913 0.189252
H39   H     H_    0.840215 0.846226 0.950875 0.186739
C87   C     C_3   0.081974 0.182008 0.038742 -0.365857
C88   C     C_3   0.136917 0.123795 0.993240 -0.773257
H40   H     H_    0.251028 0.165831 0.975633 0.238863
H41   H     H_    0.019550 0.116901 0.968962 0.221537
H42   H     H_    0.185716 0.041040 0.001499 0.234297
H43   H     H_    0.200158 0.174544 0.061816 0.188564
H44   H     H_    0.965385 0.135495 0.052569 0.185752
C89   C     C_3   0.553278 0.306653 0.028215 -0.352057
C90   C     C_3   0.558557 0.358253 0.979040 -0.762255
H45   H     H_    0.439813 0.332072 0.957845 0.221656
H46   H     H_    0.684684 0.340564 0.959758 0.225355
H47   H     H_    0.557874 0.447452 0.982357 0.230796
H48   H     H_    0.417653 0.329734 0.041088 0.189251
H49   H     H_    0.659784 0.346226 0.049125 0.186739
C91   C     C_3   0.418025 0.682009 0.961259 -0.365856
C92   C     C_3   0.363082 0.623795 0.006760 -0.773257
H50   H     H_    0.248970 0.665832 0.024368 0.238863
H51   H     H_    0.480448 0.616902 0.031038 0.221537
H52   H     H_    0.314282 0.541041 0.998502 0.234297
H53   H     H_    0.299841 0.674544 0.938184 0.188564
H54   H     H_    0.534614 0.635496 0.947432 0.185752
C93   C     C_3   0.446719 0.693346 0.528215 -0.352057
C94   C     C_3   0.441432 0.641744 0.479041 -0.762257
H55   H     H_    0.560176 0.667921 0.457845 0.221656
H56   H     H_    0.315304 0.659435 0.459759 0.225357
H57   H     H_    0.442109 0.552545 0.482359 0.230797
H58   H     H_    0.582345 0.670263 0.541087 0.189252
H59   H     H_    0.340214 0.653775 0.549127 0.186739
C95   C     C_3   0.581969 0.317991 0.461259 -0.365856
C96   C     C_3   0.636912 0.376205 0.506760 -0.773256
H60   H     H_    0.751027 0.334170 0.524367 0.238863
H61   H     H_    0.519547 0.383096 0.531039 0.221537
H62   H     H_    0.685707 0.458960 0.498501 0.234297
H63   H     H_    0.700150 0.325458 0.438183 0.188564
H64   H     H_    0.465376 0.364503 0.447433 0.185753
C97   C     C_3   0.995821 0.221924 0.368508 -0.358335
C98   C     C_3   0.961743 0.189702 0.317429 -0.771000
H65   H     H_    0.823814 0.213167 0.306499 0.229325
H66   H     H_    0.060525 0.227391 0.293496 0.215398
H67   H     H_    0.973201 0.100025 0.313798 0.230816
H68   H     H_    0.126518 0.184001 0.377979 0.196437
H69   H     H_    0.882461 0.183971 0.387638 0.183769
C99   C     C_3   0.010171 0.783290 0.639477 -0.358645
C100  C     C_3   0.047633 0.808690 0.691230 -0.771655
H70   H     H_    0.923146 0.799953 0.712502 0.207203
H71   H     H_    0.153919 0.755777 0.705908 0.225320
H72   H     H_    0.093512 0.894385 0.694701 0.232030
H73   H     H_    0.125136 0.819841 0.620268 0.190329
H74   H     H_    0.883045 0.826646 0.631480 0.193838
C101  C     C_3   0.004163 0.778076 0.868508 -0.358333
C102  C     C_3   0.038231 0.810298 0.817429 -0.770998
H75   H     H_    0.176165 0.786846 0.806498 0.229325
H76   H     H_    0.939457 0.772600 0.793496 0.215396
H77   H     H_    0.026751 0.899975 0.813798 0.230815
H78   H     H_    0.873466 0.815995 0.877981 0.196436
H79   H     H_    0.117523 0.816031 0.887637 0.183768
C103  C     C_3   0.989839 0.216710 0.139478 -0.358641
C104  C     C_3   0.952388 0.191310 0.191232 -0.771657
H80   H     H_    0.076880 0.200048 0.212502 0.207203
H81   H     H_    0.846106 0.244223 0.205911 0.225319
H82   H     H_    0.906510 0.105616 0.194703 0.232030
H83   H     H_    0.874872 0.180158 0.120270 0.190329
H84   H     H_    0.116964 0.173355 0.131479 0.193838
C105  C     C_3   0.495837 0.278076 0.131492 -0.358331
C106  C     C_3   0.461770 0.310298 0.182571 -0.770998
H85   H     H_    0.323836 0.286846 0.193502 0.229325
H86   H     H_    0.560545 0.272599 0.206504 0.215396
H87   H     H_    0.473252 0.399974 0.186203 0.230815
H88   H     H_    0.626534 0.315995 0.122019 0.196436
H89   H     H_    0.382477 0.316032 0.112363 0.183767
C107  C     C_3   0.510161 0.716710 0.860522 -0.358641
C108  C     C_3   0.547613 0.691310 0.808768 -0.771655
H90   H     H_    0.423122 0.700048 0.787498 0.207202
H91   H     H_    0.653896 0.744222 0.794089 0.225319
H92   H     H_    0.593489 0.605615 0.805297 0.232030
H93   H     H_    0.625128 0.680158 0.879730 0.190329
H94   H     H_    0.383036 0.673355 0.868521 0.193837
C109  C     C_3   0.504174 0.721923 0.631492 -0.358336
C110  C     C_3   0.538255 0.689701 0.682570 -0.770998
H95   H     H_    0.676186 0.713163 0.693500 0.229327
H96   H     H_    0.439476 0.727392 0.706505 0.215395
H97   H     H_    0.526791 0.600024 0.686202 0.230816
H98   H     H_    0.373476 0.684002 0.622021 0.196438
H99   H     H_    0.617532 0.683970 0.612362 0.183769
C111  C     C_3   0.489824 0.283289 0.360523 -0.358639
C112  C     C_3   0.452362 0.308689 0.308769 -0.771653
H100  H     H_    0.576852 0.299959 0.287498 0.207204
H101  H     H_    0.346086 0.255770 0.294090 0.225316
H102  H     H_    0.406469 0.394380 0.305299 0.232029
H103  H     H_    0.374858 0.319839 0.379732 0.190328
H104  H     H_    0.616949 0.326647 0.368520 0.193836

loop_
_geom_bond_atom_site_label_1
_geom_bond_atom_site_label_2
_ccdc_geom_bond_type
C7    C10   S    
H17   C65   S    
C93   C94   S    
C40   C48   A    
O9    V1    S    
C92   H50   S    
C22   C30   A    
H24   C72   S    
C21   C29   A    
C91   H54   S    
C63   C64   A    
C23   C31   A    
C95   C96   S    
C105  H89   S    
C49   C73   A    
H7    C32   S    
C24   C111  S    
C15   C31   A    
C105  C106  S    
C84   H31   S    
O11   C3    A    
C89   C90   S    
H15   C40   S    
H16   C39   S    
C91   C92   S    
C11   C35   A    
C108  H92   S    
C19   C101  S    
C10   C34   A    
C1    C16   S    
O6    V2    S    
H21   C69   S    
C2    C15   S    
H12   C35   S    
C79   C93   S    
C85   C86   S    
C18   C26   A    
O3    V4    S    
C101  H79   S    
H2    C25   S    
C17   C25   A    
C62   C69   A    
O3    C2    A    
H1    C26   S    
C88   H42   S    
C9    C25   A    
C4    C13   S    
O8    V1    S    
C107  C108  S    
C83   H34   S    
C38   C46   A    
C90   H47   S    
C81   H29   S    
H6    C29   S    
C37   C45   A    
C103  H83   S    
C44   C60   A    
H5    C30   S    
C13   C29   A    
C8    C9    S    
C100  H71   S    
C18   C99   S    
C75   C85   S    
O10   V2    S    
C104  H82   S    
C53   C77   A    
C112  H100  S    
H10   C33   S    
C99   H74   S    
C55   C79   A    
H9    C34   S    
C89   H49   S    
C95   H63   S    
C94   H57   S    
C19   C51   A    
C96   H62   S    
C33   C41   A    
C110  H97   S    
O15   C7    A    
C109  H98   S    
C60   C67   A    
C101  C102  S    
O16   C8    A    
C87   H44   S    
C90   H46   S    
C112  H101  S    
C91   H53   S    
C111  H104  S    
O15   V4    S    
C86   H37   S    
C16   C32   A    
O16   V3    S    
C110  H96   S    
C110  H95   S    
C47   C55   A    
C61   C70   A    
C97   H69   S    
H20   C68   S    
O10   C2    A    
C85   H38   S    
C109  H99   S    
C84   H32   S    
C17   C97   S    
C67   C75   A    
H14   C37   S    
O13   C5    A    
C104  H80   S    
O7    V2    S    
C43   C59   A    
C57   C66   A    
C97   H68   S    
C21   C105  S    
C42   C58   A    
C5    C12   S    
C86   H36   S    
C106  H86   S    
C45   C53   A    
C6    C11   S    
O13   V3    S    
C44   C52   A    
C103  C104  S    
O1    V3    S    
O14   V4    S    
C24   C56   A    
O2    V4    S    
O5    V1    S    
C46   C62   A    
C22   C107  S    
C81   H28   S    
C41   C49   A    
C63   C72   A    
H18   C66   S    
C14   C38   A    
C82   H26   S    
C20   C52   A    
C108  H90   S    
C48   C64   A    
H13   C38   S    
C36   C44   A    
C109  C110  S    
C56   C80   A    
C85   H39   S    
C88   H40   S    
C100  H72   S    
O12   C4    A    
C22   C54   A    
O8    C5    A    
O17   V3    S    
C107  H94   S    
O18   V4    S    
C99   H73   S    
C93   H58   S    
O19   V1    S    
C78   C91   S    
C74   C83   S    
C13   C37   A    
C58   C65   A    
C102  H76   S    
O9    C1    A    
C108  H91   S    
C92   H52   S    
C87   H43   S    
C48   C56   A    
C20   C103  S    
C101  H78   S    
C112  H102  S    
C9    C33   A    
C82   H27   S    
C19   C27   A    
C111  C112  S    
O4    C1    A    
C59   C60   A    
C98   H66   S    
H3    C28   S    
C11   C27   A    
C94   H55   S    
C10   C26   A    
C51   C75   A    
C81   C82   S    
C57   C58   A    
C50   C74   A    
C23   C55   A    
C39   C47   A    
O1    C4    A    
C16   C40   A    
C68   C76   A    
C15   C39   A    
O2    C3    A    
C106  H85   S    
C23   C109  S    
C14   C30   A    
C52   C76   A    
C73   C81   S    
C83   C84   S    
C54   C78   A    
C106  H87   S    
C64   C71   A    
H11   C36   S    
C72   C80   A    
C80   C95   S    
O12   V1    S    
C21   C53   A    
C20   C28   A    
O7    C6    A    
C35   C43   A    
C84   H30   S    
C34   C42   A    
C86   H35   S    
C105  H88   S    
C99   C100  S    
C18   C50   A    
C98   H67   S    
H22   C70   S    
C82   H25   S    
C76   C87   S    
C17   C49   A    
C24   C32   A    
C47   C63   A    
C61   C62   A    
H8    C31   S    
C12   C36   A    
O14   C6    A    
C97   C98   S    
C90   H45   S    
O5    C8    A    
C102  H75   S    
C102  H77   S    
O6    C7    A    
C94   H56   S    
C83   H33   S    
C12   C28   A    
C107  H93   S    
C77   C89   S    
C111  H103  S    
C88   H41   S    
C70   C78   A    
H19   C67   S    
C59   C68   A    
C96   H60   S    
C66   C74   A    
C103  H84   S    
H23   C71   S    
C65   C73   A    
C46   C54   A    
C92   H51   S    
C100  H70   S    
C41   C57   A    
C104  H81   S    
C87   C88   S    
C93   H59   S    
O11   V2    S    
C3    C14   S    
C43   C51   A    
C98   H65   S    
H4    C27   S    
C69   C77   A    
C89   H48   S    
C42   C50   A    
O20   V2    S    
C95   H64   S    
C45   C61   A    
C96   H61   S    
O4    V3    S    
C71   C79   A    
