data_mof_unit_57020.cif
_audit_creation_date              2013-03-05T15:40:45-0500
_audit_creation_method            fapswitch 2.2
_symmetry_space_group_name_H-M    P1
_symmetry_Int_Tables_number       1
_space_group_crystal_system       triclinic
_cell_length_a                    6.936664
_cell_length_b                    17.328218
_cell_length_c                    24.01269
_cell_angle_alpha                 103.881967
_cell_angle_beta                  90.514433
_cell_angle_gamma                 89.857879
_cell_volume                      2801.90917452

loop_
_atom_site_label
_atom_site_type_symbol
_atom_site_description
_atom_site_fract_x
_atom_site_fract_y
_atom_site_fract_z
_atom_type_partial_charge
O1    O     O_R   0.494290 0.391990 0.999150 -0.562469
O2    O     O_R   0.827170 0.534410 0.082350 -0.557716
O3    O     O_R   0.994360 0.608010 0.000850 -0.582586
C1    C     C_R   0.658774 0.549572 0.106073 0.866334
O4    O     O_R   0.824210 0.388010 0.004470 -0.560235
O5    O     O_R   0.991370 0.460560 0.922410 -0.581503
C2    C     C_R   0.654608 0.354876 0.001484 0.854640
O6    O     O_R   0.497270 0.539440 0.077590 -0.557386
O7    O     O_3   0.659770 0.523970 0.973170 -0.266971
V1    V     V_3+5 0.935840 0.495550 0.004980 1.163861
O8    O     O_R   0.320910 0.465590 0.917650 -0.539167
C3    C     C_R   0.150947 0.452380 0.893769 0.816942
O9    O     O_R   0.323870 0.611990 0.995530 -0.518258
C4    C     C_R   0.154738 0.644869 0.998564 0.812348
V2    V     V_3+5 0.435470 0.504450 0.995020 1.202872
O10   O     O_3   0.161670 0.476030 0.026830 -0.272766
C5    C     C_2   0.147864 0.730270 0.999737 0.157514
C6    C     C_2   0.977133 0.769973 0.002195 -0.290961
H1    H     H_    0.842628 0.738343 0.003145 0.134500
C7    C     C_R   0.077034 0.245686 0.627870 0.595714
N1    N     N_R   0.111251 0.325256 0.648296 -0.444864
C8    C     C_R   0.138405 0.373544 0.611401 0.695729
C9    C     C_R   0.111488 0.344069 0.551335 -0.110911
C10   C     C_R   0.086230 0.260972 0.529850 -0.068532
C11   C     C_R   0.068818 0.211786 0.568381 -0.028223
C12   C     C_R   0.112561 0.393707 0.511832 0.386695
C13   C     C_R   0.115588 0.358721 0.452833 -0.049484
C14   C     C_R   0.098286 0.276431 0.431538 -0.085929
C15   C     C_R   0.077324 0.227025 0.469845 -0.017888
C16   C     C_R   0.048445 0.144059 0.448133 -0.065873
C17   C     C_R   0.041988 0.094487 0.487827 -0.019180
C18   C     C_R   0.046510 0.129610 0.547058 -0.000169
C19   C     C_R   0.092911 0.243100 0.372199 0.702343
N2    N     N_R   0.049091 0.164518 0.351355 -0.414298
C20   C     C_R   0.022106 0.115416 0.387726 0.676528
O11   O     O_2   0.051411 0.199353 0.665057 -0.529400
O12   O     O_2   0.198725 0.448706 0.632866 -0.389300
H2    H     H_    0.119699 0.396876 0.423132 0.175333
O13   O     O_2   0.127366 0.289298 0.335408 -0.470483
O14   O     O_2   0.964764 0.040216 0.365146 -0.474549
H3    H     H_    0.040358 0.091798 0.576995 0.162904
C21   C     C_R   0.155932 0.078743 0.257918 0.370220
C22   C     C_R   0.131013 0.052627 0.198282 -0.144258
H4    H     H_    0.233547 0.010903 0.173851 0.167371
C23   C     C_R   0.978355 0.079662 0.169332 -0.254681
C24   C     C_R   0.844141 0.133962 0.201064 0.262041
C25   C     C_R   0.866153 0.161138 0.261346 0.304585
C26   C     C_R   0.023014 0.133917 0.289994 0.089345
C27   C     C_R   0.972250 0.411382 0.737056 0.363462
C28   C     C_R   0.982054 0.444522 0.797324 -0.187536
C29   C     C_R   0.138626 0.424208 0.829904 -0.179548
C30   C     C_R   0.283249 0.373250 0.801294 -0.045454
H5    H     H_    0.403861 0.356892 0.825056 0.104060
C31   C     C_R   0.272541 0.340887 0.742207 0.009705
H6    H     H_    0.385761 0.301466 0.721456 0.128920
C32   C     C_R   0.117734 0.358863 0.709695 0.184452
C33   C     C_R   0.506633 0.882241 0.610880 0.563120
N3    N     N_R   0.516410 0.833406 0.647968 -0.447787
C34   C     C_R   0.545480 0.753601 0.627962 0.606383
C35   C     C_R   0.546519 0.718387 0.568361 -0.103841
C36   C     C_R   0.556060 0.768392 0.529860 -0.055207
C37   C     C_R   0.541688 0.852083 0.551139 -0.090756
C38   C     C_R   0.543851 0.634758 0.547033 0.363345
C39   C     C_R   0.578940 0.600832 0.488218 -0.101070
C40   C     C_R   0.586137 0.650745 0.448943 -0.111585
C41   C     C_R   0.577689 0.734577 0.470246 -0.051539
C42   C     C_R   0.590185 0.784538 0.431716 -0.084194
C43   C     C_R   0.565500 0.867733 0.452276 0.330949
C44   C     C_R   0.551972 0.902014 0.511921 -0.093404
C45   C     C_R   0.589228 0.619874 0.388358 0.566599
N4    N     N_R   0.617714 0.669065 0.352317 -0.445727
C46   C     C_R   0.629773 0.749507 0.373297 0.678534
O15   O     O_2   0.456912 0.958916 0.631772 -0.555804
O16   O     O_2   0.579957 0.708907 0.665911 -0.442604
O17   O     O_2   0.558547 0.541916 0.365220 -0.521041
O18   O     O_2   0.680197 0.795033 0.337427 -0.428355
C47   C     C_R   0.473388 0.651719 0.254543 0.425055
C48   C     C_R   0.487424 0.622585 0.194728 -0.125656
H7    H     H_    0.371334 0.634185 0.167381 0.133670
C49   C     C_R   0.648631 0.579329 0.169593 -0.164197
C50   C     C_R   0.797553 0.564115 0.205347 -0.062020
H8    H     H_    0.921830 0.530282 0.186166 0.143315
C51   C     C_R   0.787171 0.591257 0.265523 -0.055382
C52   C     C_R   0.625208 0.636357 0.290674 0.145425
C53   C     C_R   0.354817 0.835457 0.739832 0.038430
H9    H     H_    0.260389 0.788846 0.716499 0.152871
C54   C     C_R   0.341016 0.861592 0.799884 -0.072867
C55   C     C_R   0.465742 0.922938 0.830151 -0.197175
C56   C     C_R   0.602346 0.956363 0.798596 -0.082215
C57   C     C_R   0.617456 0.926033 0.738902 0.036048
H10   H     H_    0.724518 0.949673 0.714902 0.137916
C58   C     C_R   0.494722 0.865900 0.709209 0.211013
C59   C     C_2   0.642803 0.269664 0.001866 -0.206658
H11   H     H_    0.777180 0.238687 0.005224 0.114584
C60   C     C_2   0.472745 0.230256 0.997953 -0.220119
H12   H     H_    0.338361 0.261229 0.994608 0.097500
O19   O     O_R   0.618210 0.960470 0.922400 -0.564846
O20   O     O_R   0.291310 0.111960 0.995450 -0.566572
O21   O     O_R   0.124210 0.039530 0.077580 -0.551837
C61   C     C_R   0.460919 0.145073 0.998382 0.886897
O22   O     O_R   0.288310 0.965490 0.917650 -0.573089
O23   O     O_R   0.121180 0.892010 0.999220 -0.531629
C62   C     C_R   0.456597 0.950897 0.893960 0.793486
O24   O     O_R   0.621230 0.107990 0.000760 -0.553976
O25   O     O_3   0.455770 0.976060 0.026840 -0.222341
V3    V     V_3+5 0.179680 0.004440 0.995020 1.214249
O26   O     O_R   0.791670 0.888040 0.004570 -0.519420
C63   C     C_R   0.961994 0.855131 0.001959 0.881549
O27   O     O_R   0.794680 0.034510 0.082370 -0.526028
C64   C     C_R   0.964192 0.050313 0.105905 0.916517
V4    V     V_3+5 0.680070 0.995560 0.005010 1.259522
O28   O     O_3   0.953840 0.023940 0.973160 -0.302687
N5    N     N_R   0.329303 0.770176 0.000260 0.096973
O29   O     O_R   0.401133 0.810408 0.048764 -0.332075
O30   O     O_R   0.438449 0.752909 0.955192 -0.373862
N6    N     N_R   0.734066 0.219219 0.293150 0.136281
O31   O     O_R   0.669760 0.213185 0.342651 -0.307037
O32   O     O_R   0.688031 0.281546 0.274595 -0.235228
N7    N     N_R   0.818600 0.432727 0.703130 0.123126
O33   O     O_R   0.789395 0.506960 0.703231 -0.198567
O34   O     O_R   0.718869 0.377860 0.668306 -0.344732
C65   C     C_2   0.831870 0.501388 0.825975 0.643465
H13   H     H_    0.870592 0.550404 0.861717 -0.002158
O35   O     O_2   0.663088 0.493206 0.810886 -0.521702
N8    N     N_R   0.484367 0.585132 0.583968 0.161865
O36   O     O_R   0.321912 0.599724 0.611179 -0.215103
O37   O     O_R   0.601071 0.532972 0.596571 -0.187300
C66   C     C_2   0.624187 0.514492 0.468959 0.716089
H14   H     H_    0.741446 0.495059 0.439240 0.024087
O38   O     O_2   0.531562 0.464373 0.485163 -0.507851
N9    N     N_R   0.540249 0.916967 0.412357 0.136733
O39   O     O_R   0.397602 0.903698 0.375749 -0.243350
O40   O     O_R   0.663124 0.972829 0.410801 -0.262775
C67   C     C_2   0.561871 0.990050 0.532841 0.656017
H15   H     H_    0.655298 0.016416 0.568826 0.053540
O41   O     O_2   0.466311 0.033858 0.510563 -0.563957
N10   N     N_R   0.304704 0.696919 0.277525 0.110395
O42   O     O_R   0.248828 0.701403 0.329770 -0.364276
O43   O     O_R   0.197679 0.729838 0.244847 -0.310895
C68   C     C_2   0.947527 0.572897 0.301673 0.687620
H16   H     H_    0.951535 0.598831 0.347473 0.006034
O44   O     O_2   0.078533 0.528415 0.280696 -0.520566
C69   C     C_2   0.202524 0.820606 0.830066 0.555825
H17   H     H_    0.215142 0.825565 0.875779 0.031445
O45   O     O_2   0.072869 0.779411 0.803842 -0.538433
C70   C     C_2   0.725738 0.025139 0.826553 0.545622
H18   H     H_    0.691430 0.061340 0.868733 -0.017650
O46   O     O_2   0.866779 0.043106 0.802299 -0.557987
N11   N     N_R   0.090467 0.478758 0.529683 0.124591
O47   O     O_R   0.970684 0.509293 0.570322 -0.241604
O48   O     O_R   0.148397 0.523407 0.496577 -0.364293
C71   C     C_2   0.049778 0.006067 0.470082 0.630588
H19   H     H_    0.104909 0.975589 0.428777 0.138723
O49   O     O_2   0.002354 0.965565 0.502872 -0.617024
N12   N     N_R   0.318269 0.049311 0.284690 0.139567
O50   O     O_R   0.395601 0.091338 0.331736 -0.274626
O51   O     O_R   0.399018 0.982162 0.259769 -0.257247
N13   N     N_R   0.687463 0.162881 0.172248 0.124639
O52   O     O_R   0.721721 0.198614 0.131498 -0.355345
O53   O     O_R   0.510848 0.157089 0.188551 -0.310769

loop_
_geom_bond_atom_site_label_1
_geom_bond_atom_site_label_2
_geom_bond_distance
_ccdc_geom_bond_type
C54   C55   1.424529 A    
C59   H11   1.086470 S    
N12   O51   1.301702 A    
C31   H6    1.082934 S    
C60   H12   1.086423 S    
C28   C65   1.487299 S    
C1    O6    1.297418 A    
C66   H14   1.085365 S    
C3    C29   1.495337 S    
C50   H8    1.083543 S    
C33   N3    1.368982 A    
C5    N5    1.436045 S    
C33   C37   1.426880 A    
V3    O28   1.706339 S    
C47   C48   1.407717 A    
O21   C64   1.296594 A    
N10   O43   1.301724 A    
C12   C13   1.401212 A    
C44   C67   1.488764 S    
C16   C20   1.426197 A    
C35   C38   1.416508 A    
N1    C8    1.371147 A    
C14   C15   1.407519 A    
C47   N10   1.444581 S    
C1    C49   1.490510 S    
N11   O48   1.301709 A    
O5    C3    1.297889 A    
C16   C17   1.429067 A    
O19   V4    1.973854 S    
C48   C49   1.402660 A    
C7    C11   1.408896 A    
C13   H2    1.083211 S    
V2    O10   2.155078 S    
C24   N13   1.435709 S    
C61   O24   1.290610 A    
C21   C26   1.418608 A    
N6    O31   1.300854 A    
N2    C20   1.371886 A    
C27   N7    1.436489 S    
C9    C12   1.425255 A    
C33   O15   1.347934 S    
C10   C15   1.420506 A    
N5    O29   1.300969 A    
O8    V2    1.977980 S    
C36   C41   1.419845 A    
C25   C26   1.421049 A    
C43   C44   1.416642 A    
C39   C66   1.489642 S    
O26   C63   1.306086 A    
O23   C63   1.287236 A    
C45   N4    1.368408 A    
O1    V2    2.015424 S    
O7    V1    2.154714 S    
C46   O18   1.348858 S    
C55   C56   1.426082 A    
C11   C18   1.401290 A    
C53   C54   1.408014 A    
C41   C42   1.413915 A    
O25   V4    1.706461 S    
C34   C35   1.414843 A    
O22   C62   1.300649 A    
O1    C2    1.290761 A    
O9    C4    1.297933 A    
N13   O53   1.300896 A    
C40   C45   1.424820 A    
C4    C5    1.474003 S    
C25   N6    1.440426 S    
C51   C68   1.485084 S    
C50   C51   1.410645 A    
C53   C58   1.400838 A    
C30   C31   1.396295 A    
C28   C29   1.424966 A    
C70   O46   1.221504 D    
N7    O34   1.301219 A    
C56   C70   1.488101 S    
C2    C59   1.481283 S    
C31   C32   1.399870 A    
C42   C43   1.417782 A    
C42   C46   1.417471 A    
C19   N2    1.367258 A    
C10   C11   1.406399 A    
C56   C57   1.408127 A    
O4    C2    1.304203 A    
C23   C64   1.487904 S    
C6    H1    1.086453 S    
C67   O41   1.219773 D    
C47   C52   1.423265 A    
N3    C34   1.365778 A    
C53   H9    1.083617 S    
C8    O12   1.346759 S    
C29   C30   1.405344 A    
C37   C44   1.425855 A    
C35   C36   1.412683 A    
N4    C52   1.453839 S    
C43   N9    1.437349 S    
O2    C1    1.302551 A    
C22   H4    1.083602 S    
C15   C16   1.420803 A    
N1    C32   1.449754 S    
C57   C58   1.398555 A    
C51   C52   1.420945 A    
C18   H3    1.083789 S    
C5    C6    1.362757 D    
C19   O13   1.350013 S    
C68   H16   1.083796 S    
C22   C23   1.401668 A    
C34   O16   1.349529 S    
O19   C62   1.297489 A    
O3    C4    1.292296 A    
C71   O49   1.221348 D    
C14   C19   1.403397 A    
C40   C41   1.420869 A    
O6    V2    1.972761 S    
O20   C61   1.304174 A    
O9    V2    2.013462 S    
N8    O36   1.301262 A    
C38   N8    1.438970 S    
N2    C26   1.451097 S    
C21   C22   1.403672 A    
C65   O35   1.220926 D    
N9    O39   1.301243 A    
O2    V1    1.973735 S    
C13   C14   1.399671 A    
C55   C62   1.493947 S    
C30   H5    1.083398 S    
C70   H18   1.083833 S    
N10   O42   1.300761 A    
O22   V3    1.973806 S    
C69   O45   1.221595 D    
O21   V3    1.970315 S    
C24   C25   1.417640 A    
V4    O28   2.155076 S    
C60   C61   1.481059 S    
O26   V4    2.013502 S    
C17   C18   1.406493 A    
C68   O44   1.221518 D    
C49   C50   1.401825 A    
N9    O40   1.298822 A    
C66   O38   1.219782 D    
O5    V1    1.970509 S    
O24   V4    2.015750 S    
N7    O33   1.301109 A    
C67   H15   1.085072 S    
C27   C32   1.413781 A    
O25   V3    2.154716 S    
O20   V3    2.017111 S    
C39   C40   1.425657 A    
O27   V4    1.978096 S    
C20   O14   1.345317 S    
O7    V2    1.706731 S    
N4    C46   1.366244 A    
C12   N11   1.440896 S    
O3    V1    2.017316 S    
V1    O10   1.706285 S    
N11   O47   1.298942 A    
C17   C71   1.489545 S    
C48   H7    1.083114 S    
C57   H10   1.083480 S    
N13   O52   1.301154 A    
N6    O32   1.301385 A    
C21   N12   1.443242 S    
C36   C37   1.420838 A    
C6    C63   1.480462 S    
C9    C10   1.418952 A    
C38   C39   1.416514 A    
C7    O11   1.349487 S    
C23   C24   1.413176 A    
O4    V1    2.017011 S    
C7    N1    1.368590 A    
C45   O17   1.348321 S    
C59   C60   1.355693 D    
C27   C28   1.424226 A    
O23   V3    2.017252 S    
N12   O50   1.300236 A    
N8    O37   1.298883 A    
C8    C9    1.420641 A    
C71   H19   1.078590 S    
C54   C69   1.488449 S    
C65   H13   1.085071 S    
O27   C64   1.300918 A    
N3    C58   1.452060 S    
C69   H17   1.083044 S    
O8    C3    1.302857 A    
N5    O30   1.300814 A    
