data_mof_unit_21918.cif
_audit_creation_date              2013-03-05T15:39:57-0500
_audit_creation_method            fapswitch 2.2
_symmetry_space_group_name_H-M    P1
_symmetry_Int_Tables_number       1
_space_group_crystal_system       triclinic
_cell_length_a                    27.987673
_cell_length_b                    18.723366
_cell_length_c                    16.841996
_cell_angle_alpha                 90.10709
_cell_angle_beta                  62.627892
_cell_angle_gamma                 90.052199
_cell_volume                      7837.46669808

loop_
_atom_site_label
_atom_site_type_symbol
_atom_site_description
_atom_site_fract_x
_atom_site_fract_y
_atom_site_fract_z
_atom_type_partial_charge
O1    O     O_R   0.255040 0.869590 0.478480 -0.591743
O2    O     O_R   0.744960 0.130410 0.521520 -0.587741
O3    O     O_R   0.744960 0.869590 0.521520 -0.590478
O4    O     O_R   0.255040 0.130410 0.478480 -0.592283
O5    O     O_R   0.755040 0.369590 0.478480 -0.593466
O6    O     O_R   0.244960 0.630410 0.521520 -0.589737
O7    O     O_R   0.244960 0.369590 0.521520 -0.590152
O8    O     O_R   0.755040 0.630410 0.478480 -0.591314
O9    O     O_R   0.182050 0.796550 0.624440 -0.587291
O10   O     O_R   0.817950 0.203450 0.375560 -0.562386
O11   O     O_R   0.817950 0.796550 0.375560 -0.562158
O12   O     O_R   0.182050 0.203450 0.624440 -0.585835
O13   O     O_R   0.682050 0.296550 0.624440 -0.590723
O14   O     O_R   0.317950 0.703450 0.375560 -0.561319
O15   O     O_R   0.317950 0.296550 0.375560 -0.559267
O16   O     O_R   0.682050 0.703450 0.624440 -0.587651
Cu1   Cu    Cu3+1 0.209920 0.785290 0.495070 1.064302
Cu2   Cu    Cu3+1 0.790080 0.214710 0.504930 1.057091
Cu3   Cu    Cu3+1 0.790080 0.785290 0.504930 1.053792
Cu4   Cu    Cu3+1 0.209920 0.214710 0.495070 1.065965
Cu5   Cu    Cu3+1 0.709920 0.285290 0.495070 1.057290
Cu6   Cu    Cu3+1 0.290080 0.714710 0.504930 1.055697
Cu7   Cu    Cu3+1 0.290080 0.285290 0.504930 1.053037
Cu8   Cu    Cu3+1 0.709920 0.714710 0.495070 1.065716
C1    C     C_R   0.295739 0.729767 0.329302 0.884878
C2    C     C_R   0.706184 0.274501 0.669382 0.797149
C3    C     C_R   0.704972 0.728378 0.670405 0.798967
C4    C     C_R   0.295689 0.270314 0.329267 0.882017
C5    C     C_R   0.796377 0.230989 0.329019 0.882839
C6    C     C_R   0.204961 0.771609 0.670381 0.800096
C7    C     C_R   0.205082 0.228169 0.670335 0.800337
C8    C     C_R   0.795752 0.770205 0.329265 0.883692
O17   O     O_R   0.250530 0.763330 0.367210 -0.543645
O18   O     O_R   0.749470 0.236670 0.632790 -0.587942
O19   O     O_R   0.749470 0.763330 0.632790 -0.590548
O20   O     O_R   0.250530 0.236670 0.367210 -0.545594
O21   O     O_R   0.750530 0.263330 0.367210 -0.538221
O22   O     O_R   0.249470 0.736670 0.632790 -0.590088
O23   O     O_R   0.249470 0.263330 0.632790 -0.591657
O24   O     O_R   0.750530 0.736670 0.367210 -0.541857
O25   O     O_R   0.177260 0.690030 0.513710 -0.566310
O26   O     O_R   0.822740 0.309970 0.486290 -0.561190
O27   O     O_R   0.822740 0.690030 0.486290 -0.562332
O28   O     O_R   0.177260 0.309970 0.513710 -0.566152
O29   O     O_R   0.677260 0.190030 0.513710 -0.568144
O30   O     O_R   0.322740 0.809970 0.486290 -0.561998
O31   O     O_R   0.322740 0.190030 0.486290 -0.559407
O32   O     O_R   0.677260 0.809970 0.513710 -0.565140
C9    C     C_R   0.200713 0.631101 0.512756 0.821157
C10   C     C_R   0.803529 0.368216 0.471244 0.816440
C11   C     C_R   0.803541 0.631765 0.471190 0.820748
C12   C     C_R   0.200658 0.368905 0.512915 0.817572
C13   C     C_R   0.700854 0.131120 0.512328 0.820788
C14   C     C_R   0.303550 0.868212 0.471204 0.821383
C15   C     C_R   0.303551 0.131758 0.471192 0.825370
C16   C     C_R   0.700756 0.868902 0.512605 0.820422
C17   C     C_R   0.062713 0.499930 0.454784 0.029664
C18   C     C_R   0.967467 0.499998 0.434659 0.028854
C19   C     C_R   0.563281 0.999948 0.453247 0.027271
C20   C     C_R   0.467787 0.999996 0.433782 0.029243
C21   C     C_R   0.041303 0.565361 0.443138 0.032183
C22   C     C_R   0.993006 0.434444 0.433545 0.030221
C23   C     C_R   0.993242 0.565487 0.433190 0.030549
C24   C     C_R   0.040859 0.434461 0.444084 0.033251
C25   C     C_R   0.541800 0.065367 0.441781 0.030016
C26   C     C_R   0.493442 0.934459 0.432314 0.029084
C27   C     C_R   0.493571 0.065493 0.432297 0.029394
C28   C     C_R   0.541416 0.934482 0.442542 0.030746
C29   C     C_R   0.134299 0.435161 0.472039 -0.011212
C30   C     C_R   0.892270 0.565219 0.429944 -0.021450
C31   C     C_R   0.892216 0.434814 0.429920 -0.017891
C32   C     C_R   0.134629 0.564615 0.471342 -0.012040
C33   C     C_R   0.634783 0.935165 0.470737 -0.013033
C34   C     C_R   0.392365 0.065226 0.429738 -0.016674
C35   C     C_R   0.392356 0.934789 0.429552 -0.021505
C36   C     C_R   0.635235 0.064673 0.469755 -0.015048
C37   C     C_R   0.175831 0.435199 0.500017 -0.082370
C38   C     C_R   0.836718 0.565378 0.450006 -0.076474
C39   C     C_R   0.836687 0.434621 0.450046 -0.075468
C40   C     C_R   0.175958 0.564728 0.499731 -0.079747
C41   C     C_R   0.676119 0.935199 0.499170 -0.081256
C42   C     C_R   0.336772 0.065373 0.449965 -0.076806
C43   C     C_R   0.336763 0.934603 0.449933 -0.075356
C44   C     C_R   0.676329 0.064771 0.498681 -0.085671
C45   C     C_R   0.194076 0.500013 0.516406 -0.249452
C46   C     C_R   0.810192 0.499990 0.460307 -0.247643
C47   C     C_R   0.694324 0.000036 0.515601 -0.255284
C48   C     C_R   0.310254 0.999978 0.460315 -0.246363
H1    H     H_    0.224413 0.500079 0.539457 0.183983
H2    H     H_    0.767626 0.499983 0.478994 0.186005
H3    H     H_    0.724479 0.000101 0.539050 0.184656
H4    H     H_    0.267670 0.999970 0.479136 0.185657
C49   C     C_R   0.109004 0.499922 0.470332 0.001567
C50   C     C_R   0.916843 0.500022 0.433174 -0.007344
C51   C     C_R   0.609598 0.999956 0.468735 -0.002864
C52   C     C_R   0.417028 0.000011 0.432699 -0.006262
C53   C     C_R   0.621052 0.874618 0.435036 0.344199
C54   C     C_R   0.425358 0.126895 0.403907 0.339121
C55   C     C_R   0.425370 0.873157 0.403221 0.334527
C56   C     C_R   0.621972 0.124910 0.433084 0.340376
C57   C     C_R   0.120512 0.374639 0.436405 0.345317
C58   C     C_R   0.925310 0.626839 0.404031 0.335110
C59   C     C_R   0.925200 0.373177 0.403803 0.339990
C60   C     C_R   0.121434 0.624775 0.434525 0.346672
C61   C     C_R   0.571715 0.872142 0.433165 -0.236941
C62   C     C_R   0.472340 0.128103 0.413784 -0.260748
C63   C     C_R   0.472420 0.871948 0.412877 -0.231192
C64   C     C_R   0.572749 0.127401 0.430755 -0.260718
C65   C     C_R   0.071084 0.372096 0.434924 -0.244385
C66   C     C_R   0.972218 0.628050 0.414122 -0.230297
C67   C     C_R   0.972065 0.371923 0.413962 -0.252176
C68   C     C_R   0.072195 0.627400 0.432334 -0.234662
H5    H     H_    0.561965 0.822196 0.412650 0.191307
H6    H     H_    0.493250 0.178254 0.400161 0.186034
H7    H     H_    0.493656 0.822016 0.398012 0.193900
H8    H     H_    0.563563 0.176894 0.408630 0.184997
H9    H     H_    0.061259 0.322075 0.414705 0.183238
H10   H     H_    0.993246 0.678121 0.400205 0.192595
H11   H     H_    0.993246 0.321959 0.399305 0.186530
H12   H     H_    0.063052 0.676928 0.410223 0.191555
C69   C     C_R   0.220748 0.765713 0.953457 -0.082205
C70   C     C_R   0.797460 0.262419 0.029144 -0.041322
C71   C     C_R   0.781805 0.760164 0.045451 -0.092806
C72   C     C_R   0.224113 0.227103 0.950060 -0.088521
C73   C     C_R   0.735217 0.297017 0.939926 -0.060376
C74   C     C_R   0.281614 0.739208 0.045531 -0.093232
C75   C     C_R   0.279299 0.266130 0.047579 -0.077375
C76   C     C_R   0.720955 0.734091 0.953263 -0.079040
C77   C     C_R   0.275636 0.783472 0.914931 -0.252214
C78   C     C_R   0.758164 0.316882 0.061529 -0.226366
C79   C     C_R   0.726837 0.777422 0.084509 -0.244821
C80   C     C_R   0.231670 0.299265 0.963601 -0.272973
C81   C     C_R   0.776864 0.246246 0.905134 -0.258338
C82   C     C_R   0.226715 0.721565 0.084172 -0.224210
C83   C     C_R   0.271637 0.193941 0.034233 -0.270585
C84   C     C_R   0.775919 0.716733 0.914309 -0.261081
C85   C     C_R   0.306369 0.771213 0.959997 0.361308
C86   C     C_R   0.730033 0.337983 0.014550 0.348597
C87   C     C_R   0.696117 0.765505 0.039349 0.346778
C88   C     C_R   0.258338 0.319632 0.013021 0.367000
C89   C     C_R   0.812280 0.237071 0.941330 0.336378
C90   C     C_R   0.195991 0.733713 0.039079 0.347522
C91   C     C_R   0.244760 0.173546 0.985085 0.363463
C92   C     C_R   0.806637 0.728822 0.959437 0.360575
C93   C     C_R   0.144671 0.829239 0.944213 -0.082083
C94   C     C_R   0.857817 0.174564 0.056529 -0.112114
C95   C     C_R   0.856951 0.825955 0.054897 -0.110741
C96   C     C_R   0.146288 0.167675 0.942721 -0.101861
C97   C     C_R   0.647566 0.335017 0.941287 -0.101172
C98   C     C_R   0.356808 0.673571 0.054966 -0.088474
C99   C     C_R   0.355998 0.328151 0.055740 -0.124169
C100  C     C_R   0.644906 0.670542 0.943981 -0.074254
H13   H     H_    0.131376 0.847648 0.012159 0.168976
H14   H     H_    0.867048 0.147094 0.995353 0.193035
H15   H     H_    0.869912 0.844459 0.987154 0.164101
H16   H     H_    0.132951 0.149486 0.010699 0.164696
H17   H     H_    0.630549 0.346888 0.011821 0.182987
H18   H     H_    0.369795 0.654963 0.987182 0.166417
H19   H     H_    0.369176 0.346442 0.987846 0.159486
H20   H     H_    0.631720 0.652065 0.011798 0.174699
C101  C     C_R   0.117938 0.851733 0.895353 -0.072277
C102  C     C_R   0.882818 0.149217 0.106025 -0.099156
C103  C     C_R   0.882966 0.850186 0.104208 -0.081248
C104  C     C_R   0.118448 0.147308 0.894906 -0.072147
C105  C     C_R   0.617969 0.352001 0.895271 -0.080033
C106  C     C_R   0.382913 0.649680 0.104235 -0.082745
C107  C     C_R   0.382736 0.350762 0.104443 -0.075812
C108  C     C_R   0.618059 0.648107 0.895252 -0.076066
C109  C     C_R   0.136483 0.829358 0.807150 -0.205250
C110  C     C_R   0.864944 0.172245 0.193530 -0.165617
C111  C     C_R   0.864446 0.828051 0.192545 -0.164040
C112  C     C_R   0.136527 0.170548 0.807153 -0.205592
C113  C     C_R   0.635895 0.328518 0.807752 -0.219785
C114  C     C_R   0.364442 0.672028 0.192509 -0.161952
C115  C     C_R   0.364499 0.327935 0.192464 -0.169691
C116  C     C_R   0.636536 0.670484 0.807095 -0.207190
H21   H     H_    0.116468 0.847515 0.769019 0.183145
H22   H     H_    0.882430 0.149942 0.233575 0.195270
H23   H     H_    0.883603 0.847900 0.231350 0.196948
H24   H     H_    0.115624 0.153970 0.769732 0.185182
H25   H     H_    0.612097 0.338759 0.773259 0.179062
H26   H     H_    0.383700 0.652469 0.231209 0.197175
H27   H     H_    0.384251 0.346656 0.230846 0.196791
H28   H     H_    0.616463 0.652320 0.768982 0.183232
C117  C     C_R   0.182336 0.786969 0.766136 -0.067308
C118  C     C_R   0.821841 0.219408 0.231843 -0.024044
C119  C     C_R   0.819460 0.783930 0.232938 -0.036736
C120  C     C_R   0.182943 0.211949 0.765741 -0.067392
C121  C     C_R   0.685798 0.295534 0.762867 -0.066388
C122  C     C_R   0.319380 0.715954 0.232990 -0.033925
C123  C     C_R   0.319112 0.284492 0.233048 -0.038484
C124  C     C_R   0.682383 0.712942 0.766117 -0.066978
C125  C     C_R   0.208777 0.764189 0.815229 -0.168006
C126  C     C_R   0.801282 0.251217 0.178118 -0.111395
C127  C     C_R   0.794349 0.758609 0.182837 -0.088591
C128  C     C_R   0.210628 0.232338 0.813824 -0.165232
C129  C     C_R   0.718816 0.289195 0.804571 -0.184313
C130  C     C_R   0.294121 0.740920 0.183025 -0.091152
C131  C     C_R   0.293135 0.260892 0.183475 -0.087839
C132  C     C_R   0.708860 0.735741 0.815209 -0.175562
C133  C     C_R   0.190088 0.785086 0.904474 0.141989
C134  C     C_R   0.820454 0.231151 0.087394 0.110253
C135  C     C_R   0.812554 0.780029 0.094038 0.129234
C136  C     C_R   0.192823 0.209451 0.901935 0.139090
C137  C     C_R   0.699994 0.307244 0.895178 0.127051
C138  C     C_R   0.312325 0.719372 0.094181 0.130847
C139  C     C_R   0.310596 0.284177 0.095605 0.120517
C140  C     C_R   0.690267 0.714756 0.904312 0.139623
O33   O     O_R   0.051640 0.926880 0.885090 -0.587130
O34   O     O_R   0.948360 0.073120 0.114910 -0.582636
O35   O     O_R   0.948360 0.926880 0.114910 -0.577790
O36   O     O_R   0.051640 0.073120 0.885090 -0.581059
O37   O     O_R   0.551640 0.426880 0.885090 -0.593822
O38   O     O_R   0.448360 0.573120 0.114910 -0.576585
O39   O     O_R   0.448360 0.426880 0.114910 -0.581268
O40   O     O_R   0.551640 0.573120 0.885090 -0.588373
Cu9   Cu    Cu3+1 0.495240 0.500000 0.924150 1.003223
Cu10  Cu    Cu3+1 0.504760 0.500000 0.075850 1.066201
Cu11  Cu    Cu3+1 0.995240 0.000000 0.924150 1.032161
Cu12  Cu    Cu3+1 0.004760 0.000000 0.075850 1.041496
C141  C     C_R   0.926566 0.902874 0.066510 0.806975
C142  C     C_R   0.073637 0.096718 0.933346 0.810209
C143  C     C_R   0.073592 0.903168 0.933365 0.812565
C144  C     C_R   0.925856 0.095975 0.067539 0.807890
C145  C     C_R   0.426585 0.402923 0.066522 0.803017
C146  C     C_R   0.573646 0.596765 0.933356 0.817266
C147  C     C_R   0.572710 0.401960 0.934116 0.803195
C148  C     C_R   0.426561 0.597096 0.066552 0.819042
O41   O     O_R   0.940620 0.926560 0.986760 -0.585165
O42   O     O_R   0.059380 0.073440 0.013240 -0.580164
O43   O     O_R   0.059380 0.926560 0.013240 -0.574957
O44   O     O_R   0.940620 0.073440 0.986760 -0.569806
O45   O     O_R   0.440620 0.426560 0.986760 -0.587187
O46   O     O_R   0.559380 0.573440 0.013240 -0.565771
O47   O     O_R   0.559380 0.426560 0.013240 -0.564457
O48   O     O_R   0.440620 0.573440 0.986760 -0.580656
N1    N     N_R   0.662288 0.827547 0.375279 0.134722
O49   O     O_R   0.707640 0.855098 0.317339 -0.415397
O50   O     O_R   0.650677 0.762231 0.363758 -0.354285
N2    N     N_R   0.417320 0.183125 0.353009 0.138933
O51   O     O_R   0.399297 0.167995 0.296152 -0.381579
O52   O     O_R   0.434332 0.247605 0.354491 -0.356864
N3    N     N_R   0.417227 0.816983 0.352133 0.147196
O53   O     O_R   0.434359 0.752524 0.353046 -0.340285
O54   O     O_R   0.399041 0.832179 0.295573 -0.362259
N4    N     N_R   0.663310 0.172234 0.374108 0.138580
O55   O     O_R   0.651619 0.237564 0.363073 -0.354551
O56   O     O_R   0.708978 0.145143 0.316421 -0.394232
N5    N     N_R   0.161737 0.327765 0.376230 0.137774
O57   O     O_R   0.207005 0.355475 0.318246 -0.364168
O58   O     O_R   0.150224 0.262395 0.364733 -0.362478
N6    N     N_R   0.917383 0.682985 0.352908 0.148286
O59   O     O_R   0.899343 0.667778 0.296094 -0.358894
O60   O     O_R   0.934540 0.747428 0.354109 -0.341162
N7    N     N_R   0.917255 0.317086 0.352406 0.139710
O61   O     O_R   0.934275 0.252583 0.353457 -0.354881
O62   O     O_R   0.899313 0.332387 0.295556 -0.376164
N8    N     N_R   0.163041 0.671161 0.374421 0.134509
O63   O     O_R   0.151820 0.736274 0.361632 -0.358800
O64   O     O_R   0.208423 0.642993 0.317404 -0.401611
N9    N     N_R   0.140695 0.710792 0.079698 0.130268
O65   O     O_R   0.112885 0.708202 0.166368 -0.313688
O66   O     O_R   0.119953 0.684075 0.031061 -0.312396
N10   N     N_R   0.865831 0.213197 0.882165 0.103286
O67   O     O_R   0.907040 0.247040 0.880104 -0.332214
O68   O     O_R   0.873825 0.165006 0.821516 -0.357424
N11   N     N_R   0.862116 0.706810 0.918307 0.124392
O69   O     O_R   0.890180 0.706344 0.831591 -0.346037
O70   O     O_R   0.883079 0.679621 0.966284 -0.312984
N12   N     N_R   0.240580 0.098806 0.968935 0.122107
O71   O     O_R   0.238759 0.051371 0.026649 -0.335881
O72   O     O_R   0.245278 0.077157 0.892201 -0.353448
N13   N     N_R   0.699983 0.403528 0.039871 0.108845
O73   O     O_R   0.705161 0.449901 0.978942 -0.351066
O74   O     O_R   0.674218 0.421947 0.123673 -0.335979
N14   N     N_R   0.361737 0.793798 0.919350 0.125484
O75   O     O_R   0.382734 0.819757 0.967996 -0.316668
O76   O     O_R   0.389520 0.796432 0.832692 -0.343953
N15   N     N_R   0.261826 0.394311 0.030226 0.123462
O77   O     O_R   0.255756 0.415527 0.107947 -0.296299
O78   O     O_R   0.264034 0.442022 0.972538 -0.346416
N16   N     N_R   0.640743 0.788096 0.080379 0.125874
O79   O     O_R   0.619903 0.815216 0.032205 -0.323116
O80   O     O_R   0.612939 0.789990 0.167090 -0.315053
H29   H     H_    0.294228 0.809531 0.850297 0.196206
H30   H     H_    0.751088 0.347013 0.120488 0.188326
H31   H     H_    0.708208 0.803066 0.149515 0.229935
H32   H     H_    0.214878 0.339998 0.938086 0.200563
H33   H     H_    0.784831 0.215834 0.845932 0.186333
H34   H     H_    0.208143 0.695513 0.148819 0.232293
H35   H     H_    0.288369 0.153233 0.059876 0.198678
H36   H     H_    0.794601 0.691114 0.849291 0.194041
H37   H     H_    0.244651 0.731492 0.783786 0.163508
H38   H     H_    0.768585 0.288479 0.209801 0.165894
H39   H     H_    0.759250 0.724463 0.213656 0.187921
H40   H     H_    0.247253 0.263552 0.781996 0.160741
H41   H     H_    0.759854 0.272228 0.764288 0.156353
H42   H     H_    0.258956 0.774946 0.213946 0.186508
H43   H     H_    0.257395 0.227923 0.214564 0.189140
H44   H     H_    0.744697 0.768509 0.783859 0.162345

loop_
_geom_bond_atom_site_label_1
_geom_bond_atom_site_label_2
_geom_bond_distance
_ccdc_geom_bond_type
N7    O62   1.301703 A    
C47   H3    1.083844 S    
C130  C138  1.399427 A    
Cu2   Cu5   2.675069 S    
Cu11  O44   1.963592 S    
C10   C39   1.493117 S    
C66   H10   1.073858 S    
C16   C41   1.487807 S    
C129  H41   1.078761 S    
O35   Cu12  1.960437 S    
N16   O79   1.301356 A    
C110  H22   1.083361 S    
C132  H44   1.083647 S    
C76   C87   1.414940 A    
C29   C49   1.411607 A    
C1    C122  1.465502 S    
C127  C135  1.399383 A    
C91   N12   1.439966 S    
C125  C133  1.400399 A    
C5    C118  1.469671 S    
C6    O22   1.286570 A    
C21   C23   1.429921 A    
C75   C139  1.478366 S    
C22   C24   1.429611 A    
O3    Cu3   1.959990 S    
C128  C136  1.398605 A    
C95   H15   1.083516 S    
C25   C64   1.408860 A    
C53   C61   1.396312 A    
C43   C48   1.400313 A    
C132  C140  1.400342 A    
O25   C9    1.280644 A    
C14   C43   1.493638 S    
C103  C141  1.467323 S    
C106  C114  1.394266 A    
O34   C144  1.296215 A    
C46   H2    1.083302 S    
Cu9   O45   1.964402 S    
C68   H12   1.073980 S    
C3    O19   1.286539 A    
O40   C146  1.301796 A    
C96   C104  1.405838 A    
C94   H14   1.070675 S    
O12   Cu4   1.959308 S    
O13   Cu5   1.958585 S    
N12   O72   1.301397 A    
C92   N11   1.439355 S    
C33   C51   1.411799 A    
C12   C37   1.487311 S    
C78   C86   1.405890 A    
C115  H27   1.083377 S    
C121  C129  1.399544 A    
C116  H28   1.083379 S    
C69   C90   1.415018 A    
O2    C13   1.312889 A    
C17   C21   1.417290 A    
C29   C57   1.415196 A    
C73   C86   1.420532 A    
C36   C56   1.416137 A    
C53   N1    1.432507 S    
C54   C62   1.399363 A    
C9    C40   1.486495 S    
C71   C135  1.481361 S    
C95   C135  1.401764 A    
C11   C38   1.493431 S    
C69   C133  1.483637 S    
Cu3   O19   1.962129 S    
C70   C134  1.517483 S    
C93   C101  1.407963 A    
O10   Cu2   1.958585 S    
C99   C107  1.405191 A    
C73   C137  1.503502 S    
N15   O78   1.301425 A    
O4    Cu4   1.959992 S    
C77   C85   1.403554 A    
C74   C82   1.404944 A    
C76   C140  1.482522 S    
C99   C139  1.399660 A    
N6    O59   1.301733 A    
C126  C134  1.417076 A    
C29   C37   1.441126 A    
C26   C63   1.413380 A    
C78   H30   1.077406 S    
C35   C43   1.430961 A    
C114  H26   1.083384 S    
C31   C39   1.430322 A    
C34   C54   1.416230 A    
O36   C142  1.301157 A    
N5    O57   1.300386 A    
C13   C44   1.486516 S    
C61   H5    1.073962 S    
O7    C12   1.312908 A    
Cu2   O26   1.962274 S    
C108  C146  1.465479 S    
N9    O65   1.301668 A    
C98   C106  1.407812 A    
C100  C140  1.401307 A    
C72   C80   1.401768 A    
C67   H11   1.073809 S    
C22   C67   1.413389 A    
C20   C27   1.416740 A    
N10   O67   1.301865 A    
C90   N9    1.439991 S    
C101  C109  1.393095 A    
O28   C12   1.279577 A    
O16   C3    1.297490 A    
C83   C91   1.402739 A    
C130  H42   1.083635 S    
C37   C45   1.391700 A    
N1    O49   1.300443 A    
C111  H23   1.083357 S    
C109  H21   1.083398 S    
Cu4   O28   1.962721 S    
C2    C121  1.460016 S    
Cu5   O29   1.962274 S    
C56   C64   1.396912 A    
Cu7   O31   1.962721 S    
Cu8   O32   1.962721 S    
C6    C117  1.464262 S    
C34   C52   1.415379 A    
C97   C105  1.406997 A    
C98   C138  1.401897 A    
O38   Cu10  1.960727 S    
O39   Cu10  1.960437 S    
C60   C68   1.396361 A    
C124  C132  1.405856 A    
Cu9   Cu10  2.687869 S    
C99   H19   1.083643 S    
C79   H31   1.083807 S    
Cu4   Cu7   2.672742 S    
C35   C55   1.416072 A    
O5    Cu5   1.958980 S    
C60   N8    1.432670 S    
O9    C6    1.298478 A    
O26   C10   1.292303 A    
C106  C148  1.466757 S    
O11   C8    1.296392 A    
O12   C7    1.297488 A    
C131  H43   1.083636 S    
O13   C2    1.292822 A    
C104  C112  1.394271 A    
C3    C124  1.464938 S    
C5    O21   1.291480 A    
C4    C123  1.466538 S    
C125  H37   1.083642 S    
C96   C136  1.399088 A    
C107  C115  1.395364 A    
C127  H39   1.083686 S    
C108  C116  1.394022 A    
C31   C59   1.415681 A    
N4    O55   1.302036 A    
Cu12  O43   1.963594 S    
C118  C126  1.409205 A    
C57   N5    1.432438 S    
N11   O69   1.301961 A    
O1    Cu1   1.958980 S    
C146  O46   1.291579 A    
O14   Cu6   1.958585 S    
N8    O63   1.301998 A    
C94   C134  1.409394 A    
C95   C103  1.407004 A    
C19   C25   1.417051 A    
C24   C65   1.408553 A    
O7    Cu7   1.959990 S    
C101  C143  1.465264 S    
N2    O51   1.301736 A    
O8    Cu8   1.959992 S    
C79   C87   1.402788 A    
C20   C26   1.416705 A    
N14   O75   1.301364 A    
C142  O42   1.291477 A    
C75   C88   1.415498 A    
C70   C89   1.420659 A    
C21   C68   1.408597 A    
C1    O17   1.288659 A    
Cu6   O22   1.960876 S    
C18   C22   1.416655 A    
C74   C85   1.413872 A    
C59   N7    1.440444 S    
C129  C137  1.406977 A    
C36   C44   1.440610 A    
C65   H9    1.073863 S    
C94   C102  1.395772 A    
O11   Cu3   1.959308 S    
C30   C50   1.415005 A    
C75   C83   1.402147 A    
C76   C84   1.405182 A    
C54   N2    1.440480 S    
C57   C65   1.395779 A    
N3    O53   1.301775 A    
O6    Cu6   1.958978 S    
C105  C147  1.464706 S    
C59   C67   1.398817 A    
C33   C41   1.441237 A    
Cu3   O27   1.962721 S    
C25   C27   1.430320 A    
C71   C92   1.413414 A    
N15   O77   1.301452 A    
C72   C91   1.415679 A    
C103  C111  1.395248 A    
C8    C119  1.466187 S    
C112  H24   1.083412 S    
C113  H25   1.083645 S    
Cu1   O17   1.960875 S    
Cu11  O41   1.964402 S    
C100  C108  1.407028 A    
C143  O43   1.290673 A    
C35   C52   1.415193 A    
C86   N13   1.437141 S    
C131  C139  1.398580 A    
C84   H36   1.083783 S    
C97   C137  1.406626 A    
Cu11  Cu12  2.687869 S    
C45   H1    1.083841 S    
C32   C60   1.415492 A    
C32   C40   1.440517 A    
O39   C145  1.300612 A    
C40   C45   1.391950 A    
O37   C147  1.302652 A    
C82   C90   1.403382 A    
C102  C110  1.388610 A    
O30   C14   1.292185 A    
C41   C47   1.391826 A    
C114  C122  1.393165 A    
C32   C49   1.411163 A    
C20   C52   1.429089 A    
Cu6   O30   1.962274 S    
C102  C144  1.465116 S    
O4    C15   1.306068 A    
O33   C143  1.302608 A    
O5    C10   1.305820 A    
C58   C66   1.399325 A    
C122  C130  1.405543 A    
N6    O60   1.301775 A    
C98   H18   1.083509 S    
C87   N16   1.440010 S    
C71   C79   1.404791 A    
N16   O80   1.301702 A    
C82   H34   1.083823 S    
C69   C77   1.405255 A    
Cu10  O47   1.963594 S    
C30   C58   1.416161 A    
C27   C62   1.413341 A    
O36   Cu11  1.960438 S    
C80   C88   1.401717 A    
C55   C63   1.399267 A    
C85   N14   1.439851 S    
C81   C89   1.392813 A    
Cu1   Cu6   2.675069 S    
Cu12  O42   1.964403 S    
C145  O45   1.292846 A    
C64   H8    1.074000 S    
Cu3   Cu8   2.672742 S    
C84   C92   1.402814 A    
N11   O70   1.301652 A    
O10   C5    1.296948 A    
O27   C11   1.291137 A    
O15   C4    1.296933 A    
C74   C138  1.482353 S    
O14   C1    1.297488 A    
C55   N3    1.440487 S    
C107  C145  1.465337 S    
C126  H38   1.076889 S    
Cu4   O20   1.962128 S    
Cu5   O21   1.960875 S    
C4    O20   1.288403 A    
N10   O68   1.301664 A    
C141  O41   1.292885 A    
N12   O71   1.301466 A    
C96   H16   1.083666 S    
C97   H17   1.079988 S    
C77   H29   1.083728 S    
C39   C46   1.400284 A    
C81   H33   1.077882 S    
O35   C141  1.301500 A    
C26   C28   1.430095 A    
C100  H20   1.083552 S    
C30   C38   1.431240 A    
C44   C47   1.392235 A    
C31   C50   1.414800 A    
C33   C53   1.415450 A    
C62   H6    1.073859 S    
C58   N6    1.440539 S    
C123  C131  1.406090 A    
C144  O44   1.296508 A    
C36   C51   1.411740 A    
C115  C123  1.394360 A    
C42   C48   1.400203 A    
C116  C124  1.393076 A    
C105  C113  1.391286 A    
O34   Cu12  1.960727 S    
N13   O74   1.301418 A    
C2    O18   1.289413 A    
C48   H4    1.083305 S    
N3    O54   1.301721 A    
C7    C120  1.464260 S    
O38   C148  1.302246 A    
C93   H13   1.083521 S    
C38   C46   1.400278 A    
O15   Cu7   1.959308 S    
O16   Cu8   1.959308 S    
C17   C49   1.434953 A    
C88   N15   1.439719 S    
C110  C118  1.391211 A    
C19   C51   1.435066 A    
Cu9   O48   1.963592 S    
N4    O56   1.300904 A    
N5    O58   1.301974 A    
C56   N4    1.433525 S    
O40   Cu9   1.960438 S    
Cu10  O46   1.964403 S    
N9    O66   1.301327 A    
O37   Cu9   1.960730 S    
N8    O64   1.300503 A    
O1    C14   1.306167 A    
C19   C28   1.417272 A    
O3    C16   1.313031 A    
O33   Cu11  1.960730 S    
N2    O52   1.301778 A    
N13   O73   1.301644 A    
C15   C42   1.493981 S    
Cu2   O18   1.960876 S    
O8    C11   1.305774 A    
C63   H7    1.073894 S    
O9    Cu1   1.958585 S    
N14   O76   1.301474 A    
C28   C61   1.408696 A    
N1    O50   1.301994 A    
C89   N10   1.437135 S    
N7    O61   1.301771 A    
C128  H40   1.083725 S    
C17   C24   1.417148 A    
O31   C15   1.291095 A    
C34   C42   1.431636 A    
C73   C81   1.406246 A    
C18   C23   1.416546 A    
O32   C16   1.279760 A    
C119  C127  1.404959 A    
C117  C125  1.406312 A    
O2    Cu2   1.958978 S    
C147  O47   1.291516 A    
C111  C119  1.393939 A    
C23   C66   1.413474 A    
C18   C50   1.428514 A    
C109  C117  1.392360 A    
C93   C133  1.401649 A    
C72   C136  1.477905 S    
C80   H32   1.083870 S    
C112  C120  1.393533 A    
Cu7   O23   1.962129 S    
C113  C121  1.390164 A    
Cu8   O24   1.962128 S    
C7    O23   1.286205 A    
C8    O24   1.288741 A    
O6    C9    1.312879 A    
Cu1   O25   1.962274 S    
C148  O48   1.291827 A    
O29   C13   1.280738 A    
C104  C142  1.463824 S    
C120  C128  1.406141 A    
C83   H35   1.083794 S    
C70   C78   1.412536 A    
