data_mof_unit_31736.cif
_audit_creation_date              2013-03-05T15:46:45-0500
_audit_creation_method            fapswitch 2.2
_symmetry_space_group_name_H-M    P1
_symmetry_Int_Tables_number       1
_space_group_crystal_system       triclinic
_cell_length_a                    10.192553
_cell_length_b                    10.562473
_cell_length_c                    12.509835
_cell_angle_alpha                 90.571233
_cell_angle_beta                  110.36023
_cell_angle_gamma                 95.267169
_cell_volume                      1256.04929535

loop_
_atom_site_label
_atom_site_type_symbol
_atom_site_description
_atom_site_fract_x
_atom_site_fract_y
_atom_site_fract_z
_atom_type_partial_charge
O1    O     O_R   0.936910 0.692950 0.509080 -0.598349
O2    O     O_R   0.138320 0.658600 0.480130 -0.583193
C1    C     C_R   0.052904 0.734772 0.495637 0.819125
O3    O     O_R   0.002900 0.525670 0.675280 -0.627286
O4    O     O_R   0.204310 0.491320 0.646330 -0.583955
C2    C     C_R   0.138197 0.524243 0.712363 0.904121
Zn1   Zn    Zn3+2 0.865520 0.522940 0.519330 0.997489
Zn2   Zn    Zn3+2 0.134480 0.477060 0.480670 1.032253
O5    O     O_R   0.861680 0.341400 0.519870 -0.609883
O6    O     O_R   0.063090 0.307050 0.490920 -0.543465
O7    O     O_R   0.795690 0.508680 0.353670 -0.565061
O8    O     O_R   0.997100 0.474330 0.324720 -0.610697
C3    C     C_R   0.952516 0.266641 0.512918 0.993693
C4    C     C_R   0.866924 0.498727 0.287269 0.904836
C5    C     C_R   0.783626 0.516637 0.971218 -0.169898
H1    H     H_    0.947907 0.442559 0.107285 0.174179
H2    H     H_    0.630527 0.591492 0.764260 0.127729
H3    H     H_    0.827575 0.493631 0.907199 0.141487
C6    C     C_R   0.798029 0.524813 0.168157 -0.165651
C7    C     C_R   0.149150 0.552304 0.911587 -0.164222
C8    C     C_R   0.224967 0.561598 0.027868 -0.122042
C9    C     C_R   0.371044 0.573983 0.066474 -0.112162
C10   C     C_R   0.443971 0.588489 0.988986 0.096230
C11   C     C_R   0.366318 0.590474 0.871356 0.093232
C12   C     C_R   0.590820 0.583934 0.023047 -0.001048
C13   C     C_R   0.652301 0.563711 0.939839 0.150144
C14   C     C_R   0.580043 0.590734 0.827344 -0.182462
C15   C     C_R   0.440284 0.614739 0.795800 -0.154310
C16   C     C_R   0.676651 0.590004 0.137377 0.212830
C17   C     C_R   0.851919 0.488693 0.084586 -0.209803
C18   C     C_R   0.218788 0.559936 0.832637 -0.104982
H4    H     H_    0.036271 0.532651 0.883269 0.152496
H5    H     H_    0.424267 0.563666 0.156213 0.182695
H6    H     H_    0.170603 0.550676 0.088215 0.155339
H7    H     H_    0.975446 0.885225 0.621023 0.159773
C19   C     C_2   0.089930 0.872587 0.508411 0.162853
C20   C     C_2   0.037971 0.935819 0.576993 -0.344557
H8    H     H_    0.834821 0.079084 0.492317 0.163599
C21   C     C_2   0.936471 0.132774 0.535259 -0.434183
C22   C     C_2   0.050456 0.073129 0.591187 0.405313
H9    H     H_    0.565952 0.408145 0.434113 0.163958
N1    N     N_2   0.313640 0.446500 0.454900 -0.177165
C23   C     C_2   0.431142 0.517844 0.501962 -0.093517
H10   H     H_    0.682913 0.630077 0.595335 0.162426
N2    N     N_2   0.686360 0.553430 0.545150 -0.175672
C24   C     C_2   0.567265 0.487388 0.490471 -0.048129
H11   H     H_    0.318260 0.366432 0.409081 0.196123
N3    N     N_R   0.173907 0.934294 0.447584 0.236201
O9    O     O_R   0.243755 0.867038 0.402540 -0.350703
O10   O     O_R   0.170855 0.054686 0.426930 -0.352872
H12   H     H_    0.431490 0.602518 0.551327 0.157145
N4    N     N_R   0.666834 0.693736 0.209355 0.205318
O11   O     O_R   0.625238 0.674427 0.295603 -0.378829
O12   O     O_R   0.681414 0.809782 0.178228 -0.351077
H13   H     H_    0.389209 0.645569 0.710866 0.156554
N5    N     N_R   0.182171 0.139450 0.663582 0.248528
O13   O     O_R   0.182520 0.238824 0.725947 -0.403342
O14   O     O_R   0.298194 0.085903 0.685517 -0.337153

loop_
_geom_bond_atom_site_label_1
_geom_bond_atom_site_label_2
_geom_bond_distance
_ccdc_geom_bond_type
O4    Zn2   1.942098 S    
C10   C11   1.409080 A    
O6    C3    1.287611 A    
C5    H3    1.080195 S    
Zn2   N1    2.014581 S    
Zn2   O8    1.964223 S    
H9    C24   1.085100 S    
C7    C8    1.387026 A    
N3    O10   1.301155 A    
O2    C1    1.298435 A    
C11   C18   1.414503 A    
O1    Zn1   1.897407 S    
C8    C9    1.389165 A    
N5    O13   1.300563 A    
Zn1   O7    1.942098 S    
C23   H12   1.080810 S    
C13   C14   1.389160 A    
O4    C2    1.296941 A    
C1    C19   1.462687 S    
N4    O11   1.300881 A    
O3    Zn1   1.964222 S    
Zn1   N2    2.014700 S    
Zn2   O6    1.897409 S    
C19   C20   1.353636 D    
H7    C20   1.087522 S    
C15   H13   1.076621 S    
O8    C4    1.295760 A    
C19   N3    1.448158 S    
C20   C22   1.447909 S    
N1    H11   1.030743 S    
N5    O14   1.301451 A    
C12   C16   1.390073 A    
H8    C21   1.087384 S    
O7    C4    1.288474 A    
C23   C24   1.506308 S    
C3    C21   1.449624 S    
N1    C23   1.297556 D    
H1    C17   1.082708 S    
H2    C14   1.081462 S    
C14   C15   1.387929 A    
C10   C12   1.412095 A    
H10   N2    1.030156 S    
C5    C17   1.393600 A    
O3    C2    1.294575 A    
C7    H4    1.078593 S    
C21   C22   1.346750 D    
Zn1   O5    1.914444 S    
C9    H5    1.075156 S    
O5    C3    1.295055 A    
C9    C10   1.413892 A    
N3    O9    1.301169 A    
C5    C13   1.397668 A    
C2    C18   1.467151 S    
C8    H6    1.082296 S    
C22   N5    1.442877 S    
C12   C13   1.412743 A    
N2    C24   1.298164 D    
C6    C17   1.403700 A    
C4    C6    1.450839 S    
C16   N4    1.443756 S    
O2    Zn2   1.914441 S    
C11   C15   1.411611 A    
N4    O12   1.300951 A    
O1    C1    1.290399 A    
C7    C18   1.401662 A    
C6    C16   1.408242 A    
