data_mof_unit_42778.cif
_audit_creation_date              2012-12-11T14:03:31-0500
_audit_creation_method            fapswitch 2.2
_symmetry_space_group_name_H-M    P1
_symmetry_Int_Tables_number       1
_space_group_crystal_system       monoclinic
_cell_length_a                    6.996349
_cell_length_b                    11.308867
_cell_length_c                    18.843972
_cell_angle_alpha                 90.0
_cell_angle_beta                  92.808086
_cell_angle_gamma                 90.0
_cell_volume                      1489.15948634

loop_
_atom_site_label
_atom_site_type_symbol
_atom_type_description
_atom_site_fract_x
_atom_site_fract_y
_atom_site_fract_z
_atom_type_partial_charge
O1    O     O_R   0.330540 0.606360 0.598870 -0.535753
O2    O     O_R   0.669460 0.106360 0.401130 -0.535753
O3    O     O_R   0.026770 0.620470 0.750430 -0.551246
O4    O     O_R   0.973230 0.120470 0.249570 -0.551246
O5    O     O_R   0.856460 0.393640 0.750930 -0.544858
O6    O     O_R   0.143540 0.893640 0.249070 -0.544858
C1    C     C_R   0.198779 0.657377 0.769200 0.670629
C2    C     C_R   0.801221 0.157377 0.230799 0.670630
O7    O     O_R   0.000920 0.620350 0.599420 -0.546545
O8    O     O_R   0.999080 0.120350 0.400580 -0.546545
O9    O     O_R   0.830430 0.393520 0.598850 -0.534102
O10   O     O_R   0.169570 0.893520 0.401150 -0.534102
C3    C     C_R   0.166752 0.647751 0.574642 0.766355
C4    C     C_R   0.833248 0.147751 0.425358 0.766355
O11   O     O_R   0.356570 0.606480 0.750960 -0.547231
O12   O     O_R   0.643430 0.106480 0.249040 -0.547232
O13   O     O_3   0.176990 0.425580 0.674890 -0.370735
O14   O     O_3   0.823010 0.925580 0.325110 -0.370735
V1    V     V_3+5 0.902170 0.513810 0.674910 1.384012
V2    V     V_3+5 0.097830 0.013810 0.325090 1.384012
O15   O     O_R   0.500800 0.379530 0.599380 -0.545056
O16   O     O_R   0.499200 0.879530 0.400620 -0.545056
C5    C     C_R   0.666646 0.352127 0.574616 0.775300
C6    C     C_R   0.333354 0.852127 0.425384 0.775300
O17   O     O_R   0.526650 0.379650 0.750390 -0.550425
O18   O     O_R   0.473350 0.879650 0.249610 -0.550425
C7    C     C_R   0.698292 0.350949 0.774595 0.662562
C8    C     C_R   0.301707 0.850949 0.225405 0.662561
V3    V     V_3+5 0.402160 0.486190 0.674900 1.380994
V4    V     V_3+5 0.597840 0.986190 0.325100 1.380994
O19   O     O_3   0.677210 0.574420 0.674910 -0.378743
O20   O     O_3   0.322790 0.074420 0.325090 -0.378743
C9    C     C_R   0.741650 0.083481 0.891195 -0.141031
C10   C     C_R   0.258350 0.583480 0.108805 -0.141031
H1    H     H_    0.707502 0.119821 0.780466 0.127337
H2    H     H_    0.292498 0.619821 0.219534 0.127337
C11   C     C_R   0.712033 0.281184 0.841263 -0.137695
C12   C     C_R   0.287966 0.781184 0.158737 -0.137695
C13   C     C_R   0.733050 0.362099 0.190133 -0.185094
C14   C     C_R   0.266950 0.862099 0.809867 -0.185093
C15   C     C_R   0.681624 0.442001 0.136530 -0.173512
C16   C     C_R   0.318376 0.942001 0.863470 -0.173512
C17   C     C_R   0.679165 0.408413 0.065080 -0.029006
C18   C     C_R   0.320835 0.908413 0.934920 -0.029006
C19   C     C_R   0.740605 0.294497 0.044727 0.113347
C20   C     C_R   0.259395 0.794497 0.955272 0.113347
C21   C     C_R   0.791271 0.214178 0.100593 -0.021103
C22   C     C_R   0.208729 0.714178 0.899407 -0.021103
C23   C     C_R   0.739048 0.253744 0.972097 -0.043226
C24   C     C_R   0.260952 0.753744 0.027902 -0.043225
C25   C     C_R   0.755625 0.127767 0.960478 -0.051607
C26   C     C_R   0.244374 0.627767 0.039522 -0.051607
C27   C     C_R   0.793484 0.047904 0.018089 0.446526
C28   C     C_R   0.206516 0.547904 0.981911 0.446527
C29   C     C_R   0.833189 0.098039 0.084930 -0.302026
C30   C     C_R   0.166811 0.598039 0.915070 -0.302026
C31   C     C_R   0.723891 0.332805 0.911464 0.349781
C32   C     C_R   0.276109 0.832805 0.088536 0.349781
C33   C     C_R   0.716928 0.158472 0.833167 -0.257970
C34   C     C_R   0.283072 0.658472 0.166833 -0.257970
C35   C     C_R   0.783939 0.246902 0.173056 -0.054016
C36   C     C_R   0.216061 0.746902 0.826944 -0.054016
H3    H     H_    0.634210 0.529192 0.150942 0.136396
H4    H     H_    0.365790 0.029192 0.849058 0.136396
H5    H     H_    0.889267 0.045032 0.127852 0.129329
H6    H     H_    0.110733 0.545032 0.872148 0.129329
C37   C     C_2   0.831412 0.233643 0.484697 -0.348937
C38   C     C_2   0.168588 0.733643 0.515303 -0.348937
C39   C     C_2   0.668493 0.266246 0.515270 -0.351746
C40   C     C_2   0.331507 0.766247 0.484730 -0.351746
H7    H     H_    0.532058 0.229479 0.496122 0.151799
H8    H     H_    0.467941 0.729479 0.503878 0.151800
O21   O     O_3   0.797109 0.923724 0.007390 -0.551683
C41   C     C_3   0.792016 0.858815 0.072684 0.133724
H9    H     H_    0.669291 0.885868 0.103516 0.099243
H10   H     H_    0.924996 0.871394 0.105269 0.156655
C42   C     C_3   0.780619 0.726035 0.064350 -0.725508
H11   H     H_    0.875989 0.694566 0.023838 0.251721
H12   H     H_    0.829901 0.684080 0.115281 0.186110
H13   H     H_    0.631381 0.697996 0.053958 0.199248
O22   O     O_3   0.202891 0.423724 0.992610 -0.551683
C43   C     C_3   0.207984 0.358815 0.927316 0.133723
H14   H     H_    0.330709 0.385868 0.896483 0.099243
H15   H     H_    0.075004 0.371394 0.894731 0.156655
C44   C     C_3   0.219380 0.226035 0.935650 -0.725508
H16   H     H_    0.124011 0.194567 0.976162 0.251721
H17   H     H_    0.170099 0.184080 0.884719 0.186109
H18   H     H_    0.368619 0.197996 0.946042 0.199248
H19   H     H_    0.752251 0.989402 0.881224 0.180095
H20   H     H_    0.247749 0.489402 0.118775 0.180095
O23   O     O_3   0.758296 0.454358 0.924170 -0.576303
C45   C     C_3   0.679146 0.533505 0.872297 0.043548
H21   H     H_    0.532327 0.508109 0.854681 0.138313
H22   H     H_    0.775160 0.542399 0.828337 0.179545
C46   C     C_3   0.668124 0.658554 0.899254 -0.698940
H23   H     H_    0.812236 0.694475 0.911925 0.240583
H24   H     H_    0.603314 0.716027 0.856944 0.198948
H25   H     H_    0.576957 0.660135 0.944853 0.221960
O24   O     O_3   0.241704 0.954358 0.075830 -0.576303
C47   C     C_3   0.320854 0.033505 0.127703 0.043548
H26   H     H_    0.467673 0.008109 0.145319 0.138313
H27   H     H_    0.224840 0.042399 0.171663 0.179545
C48   C     C_3   0.331876 0.158554 0.100746 -0.698940
H28   H     H_    0.187764 0.194475 0.088075 0.240583
H29   H     H_    0.396686 0.216027 0.143056 0.198948
H30   H     H_    0.423043 0.160135 0.055147 0.221960
H31   H     H_    0.724270 0.388547 0.245135 0.105039
H32   H     H_    0.275729 0.888547 0.754865 0.105039
H33   H     H_    0.615787 0.470883 0.027942 0.173128
H34   H     H_    0.384213 0.970883 0.972058 0.173128
H35   H     H_    0.967848 0.270413 0.503841 0.151870
H36   H     H_    0.032152 0.770413 0.496159 0.151870

loop_
_geom_bond_atom_site_label_1
_geom_bond_atom_site_label_2
_ccdc_geom_bond_type
O13   V3    S    
O21   C41   S    
C5    C39   S    
C46   H23   S    
O4    C2    A    
V1    O19   S    
O22   C43   S    
C46   H25   S    
C6    C40   S    
C13   C15   A    
C42   H11   S    
C13   H31   S    
O9    V1    S    
C41   H10   S    
O3    C1    A    
C42   H13   S    
O12   V4    S    
C14   C36   A    
H1    C33   S    
C38   H36   S    
C19   C21   A    
C39   H7    S    
O7    C3    A    
C45   H21   S    
O5    C7    A    
O7    V1    S    
O6    C8    A    
C18   C20   A    
C23   C25   A    
C41   C42   S    
C24   C26   A    
C4    C37   S    
O3    V1    S    
O14   V4    S    
C8    C12   S    
C31   O23   S    
C2    C35   S    
C14   H32   S    
C44   H17   S    
C2    O12   A    
C12   C32   A    
C10   C34   A    
C15   C17   A    
C16   C18   A    
O1    V3    S    
C29   H5    S    
C26   C28   A    
O11   V3    S    
C20   C22   A    
C27   C29   A    
O17   V3    S    
C13   C35   A    
C28   C30   A    
C41   H9    S    
C24   C32   A    
O8    C4    A    
O8    V2    S    
O23   C45   S    
C1    O11   A    
C44   H16   S    
O15   V3    S    
C45   C46   S    
C9    C25   A    
C25   C27   A    
C10   H20   S    
C1    C36   S    
C9    H19   S    
C22   C36   A    
O24   C47   S    
C19   C23   A    
O10   V2    S    
C45   H22   S    
C42   H12   S    
C48   H29   S    
C17   C19   A    
C11   C33   A    
C12   C34   A    
C37   H35   S    
O18   V4    S    
C43   H15   S    
O15   C5    A    
O16   C6    A    
O1    C3    A    
C15   H3    S    
C16   H4    S    
C21   C29   A    
C47   H27   S    
V2    O20   S    
C44   H18   S    
C22   C30   A    
O10   C6    A    
O16   V4    S    
O18   C8    A    
C27   O21   S    
C32   O24   S    
C14   C16   A    
H2    C34   S    
C21   C35   A    
C23   C31   A    
C46   H24   S    
O5    V1    S    
O17   C7    A    
C43   C44   S    
O6    V2    S    
C20   C24   A    
C10   C26   A    
O2    V4    S    
V3    O19   S    
V4    O20   S    
C7    C11   S    
C30   H6    S    
O9    C5    A    
C47   H26   S    
O13   V1    S    
C48   H30   S    
O14   V2    S    
C47   C48   S    
O2    C4    A    
O4    V2    S    
C9    C33   A    
C43   H14   S    
C48   H28   S    
C38   C40   D    
C40   H8    S    
C17   H33   S    
C37   C39   D    
C28   O22   S    
C11   C31   A    
C3    C38   S    
C18   H34   S    
