data_mof_unit_48810.cif
_audit_creation_date              2012-12-11T15:09:38-0500
_audit_creation_method            fapswitch 2.2
_symmetry_space_group_name_H-M    P1
_symmetry_Int_Tables_number       1
_space_group_crystal_system       triclinic
_cell_length_a                    20.938955
_cell_length_b                    7.124299
_cell_length_c                    13.953652
_cell_angle_alpha                 89.779871
_cell_angle_beta                  98.085364
_cell_angle_gamma                 90.203576
_cell_volume                      2060.82521955

loop_
_atom_site_label
_atom_site_type_symbol
_atom_type_description
_atom_site_fract_x
_atom_site_fract_y
_atom_site_fract_z
_atom_type_partial_charge
O1    O     O_R   0.447130 0.507140 0.597350 -0.536867
O2    O     O_R   0.552870 0.007140 0.402650 -0.536801
O3    O     O_R   0.578910 0.181280 0.586990 -0.538422
O4    O     O_R   0.421090 0.681280 0.413010 -0.538793
C1    C     C_R   0.604515 0.344527 0.607375 0.727114
C2    C     C_R   0.395480 0.844402 0.392656 0.726840
O5    O     O_R   0.449230 0.177860 0.608640 -0.540469
O6    O     O_R   0.550770 0.677860 0.391360 -0.540413
O7    O     O_R   0.422260 0.000770 0.424450 -0.534555
O8    O     O_R   0.577740 0.500770 0.575550 -0.534924
C3    C     C_R   0.432762 0.345758 0.634770 0.690024
C4    C     C_R   0.567229 0.846764 0.365258 0.689902
O9    O     O_3   0.491310 0.336980 0.439550 -0.373941
O10   O     O_3   0.508690 0.836980 0.560450 -0.373890
V1    V     V_3+5 0.501610 0.064760 0.511210 1.424193
V2    V     V_3+5 0.498390 0.564760 0.488790 1.422978
C5    C     C_R   0.622128 0.892054 0.121769 -0.157987
C6    C     C_R   0.378084 0.352097 0.879283 -0.158121
H1    H     H_    0.530169 0.885460 0.172858 0.104075
H2    H     H_    0.470005 0.348459 0.828089 0.103984
H3    H     H_    0.707337 0.912534 0.998672 0.127103
H4    H     H_    0.292989 0.355503 0.002828 0.126890
H5    H     H_    0.600517 0.908045 0.046927 0.113737
H6    H     H_    0.399774 0.351717 0.954541 0.113733
C7    C     C_R   0.608713 0.857325 0.289765 -0.027393
C8    C     C_R   0.391327 0.352059 0.710382 -0.027266
C9    C     C_R   0.922608 0.835578 0.311016 -0.002569
C10   C     C_R   0.077296 0.362772 0.688366 -0.003097
C11   C     C_R   0.884379 0.831569 0.385115 -0.149297
C12   C     C_R   0.115499 0.354133 0.614380 -0.151200
C13   C     C_R   0.817600 0.842608 0.364757 -0.187907
C14   C     C_R   0.182362 0.349388 0.635142 -0.188784
C15   C     C_R   0.786213 0.858290 0.268438 0.082937
C16   C     C_R   0.213828 0.353024 0.731747 0.082818
C17   C     C_R   0.825048 0.868144 0.192454 0.054716
C18   C     C_R   0.175039 0.357012 0.807878 0.054353
C19   C     C_R   0.717564 0.864533 0.245049 0.075574
C20   C     C_R   0.282512 0.353038 0.755287 0.075596
C21   C     C_R   0.689426 0.884744 0.146691 0.139231
C22   C     C_R   0.310752 0.353383 0.854150 0.139354
C23   C     C_R   0.728478 0.897064 0.073780 -0.205473
C24   C     C_R   0.271766 0.355134 0.927337 -0.205337
C25   C     C_R   0.795071 0.888195 0.096005 -0.186999
C26   C     C_R   0.205122 0.357565 0.904821 -0.186971
C27   C     C_R   0.675576 0.850071 0.315744 -0.214623
C28   C     C_R   0.324429 0.353529 0.684195 -0.214883
C29   C     C_R   0.582005 0.878877 0.193040 -0.175271
C30   C     C_R   0.418139 0.350706 0.807695 -0.175183
C31   C     C_R   0.893215 0.856524 0.214132 -0.121567
C32   C     C_R   0.106797 0.362029 0.785775 -0.120992
H7    H     H_    0.692917 0.832756 0.391661 0.094152
H8    H     H_    0.307006 0.354520 0.607792 0.094075
H9    H     H_    0.792145 0.837953 0.426573 0.110435
H10   H     H_    0.207811 0.343454 0.573380 0.111229
H11   H     H_    0.906545 0.816603 0.459759 0.126339
H12   H     H_    0.093231 0.354076 0.539368 0.126927
H13   H     H_    0.822841 0.896910 0.036303 0.124650
H14   H     H_    0.177395 0.360201 0.964674 0.124126
C33   C     C_1   0.166636 0.857482 0.168144 -0.176976
C34   C     C_1   0.833333 0.356918 0.831929 -0.175950
C35   C     C_1   0.219039 0.855160 0.219247 -0.001433
C36   C     C_1   0.780918 0.354668 0.780870 -0.001420
C37   C     C_1   0.280725 0.853434 0.279410 -0.010382
C38   C     C_1   0.719238 0.353387 0.720698 -0.011038
C39   C     C_1   0.333068 0.850930 0.330701 -0.202722
C40   C     C_1   0.666909 0.351177 0.669368 -0.202806
O11   O     O_R   0.922300 0.202240 0.924350 -0.533713
O12   O     O_R   0.077700 0.702240 0.075650 -0.533421
O13   O     O_R   0.050780 0.535130 0.891350 -0.543665
O14   O     O_R   0.949220 0.035130 0.108650 -0.539734
C41   C     C_R   0.066521 0.368472 0.863976 0.699646
C42   C     C_R   0.933538 0.867291 0.136052 0.698064
O15   O     O_R   0.921100 0.531560 0.912990 -0.537752
O16   O     O_R   0.078900 0.031560 0.087010 -0.538978
O17   O     O_R   0.947120 0.708470 0.097370 -0.541552
O18   O     O_R   0.052880 0.208470 0.902630 -0.536660
C43   C     C_R   0.895868 0.363493 0.893464 0.731339
C44   C     C_R   0.104125 0.863667 0.106540 0.730579
O19   O     O_3   0.008710 0.375800 0.060400 -0.378203
O20   O     O_3   0.991290 0.875800 0.939600 -0.375430
V3    V     V_3+5 0.998380 0.648080 0.988790 1.415130
V4    V     V_3+5 0.001620 0.148080 0.011210 1.421659
C45   C     C_R   0.993093 0.813131 0.337636 0.068231
C46   C     C_R   0.029184 0.950263 0.393777 -0.147234
C47   C     C_R   0.094923 0.922556 0.424984 -0.118291
C48   C     C_R   0.124822 0.757398 0.401148 -0.085817
C49   C     C_R   0.089177 0.620327 0.345355 -0.137305
C50   C     C_R   0.023498 0.647790 0.313671 -0.112751
H15   H     H_    0.006314 0.077654 0.413782 0.113584
H16   H     H_    0.122605 0.028402 0.468236 0.111518
H17   H     H_    0.175607 0.735609 0.425896 0.112003
H18   H     H_    0.112347 0.492246 0.327206 0.112430
H19   H     H_    0.996108 0.538811 0.272238 0.123376
C51   C     C_R   0.006633 0.376221 0.660925 0.070662
C52   C     C_R   0.971753 0.223982 0.616066 -0.147244
C53   C     C_R   0.905667 0.241111 0.584095 -0.117716
C54   C     C_R   0.874236 0.410508 0.595872 -0.082352
C55   C     C_R   0.908684 0.562518 0.640506 -0.139197
C56   C     C_R   0.974716 0.545777 0.672899 -0.112541
H20   H     H_    0.995812 0.092882 0.605397 0.110817
H21   H     H_    0.878891 0.123564 0.549627 0.108626
H22   H     H_    0.823177 0.423957 0.570497 0.112022
H23   H     H_    0.884312 0.693742 0.649365 0.108206
H24   H     H_    0.001154 0.665686 0.705614 0.117300

loop_
_geom_bond_atom_site_label_1
_geom_bond_atom_site_label_2
_ccdc_geom_bond_type
C12   C14   A    
C49   C50   A    
C37   C39   T    
C9    C11   A    
C52   C53   A    
O11   C43   A    
O2    C4    A    
C2    O7    A    
C54   C55   A    
C18   C32   A    
C21   C23   A    
C47   C48   A    
O5    C3    A    
C5    H5    S    
C6    H6    S    
O12   V3    S    
C34   C36   T    
C48   H17   S    
C41   O18   A    
H1    C29   S    
C27   H7    S    
C55   H23   S    
C28   H8    S    
C10   C51   S    
C5    C21   A    
O15   V3    S    
O13   C41   A    
C6    C22   A    
C36   C38   S    
C10   C32   A    
C2    C39   S    
C26   H14   S    
C31   C42   S    
O1    C3    A    
C17   C31   A    
C13   C15   A    
C17   C25   A    
C7    C29   A    
C54   H22   S    
C8    C30   A    
C22   C24   A    
C45   C50   A    
O6    V2    S    
C53   H21   S    
C23   C25   A    
C24   C26   A    
O16   V4    S    
C42   O17   A    
C33   C44   S    
C14   H10   S    
O12   C44   A    
C34   C43   S    
C33   C35   T    
C46   C47   A    
C52   H20   S    
O20   V4    S    
O18   V4    S    
O19   V3    S    
C25   H13   S    
C48   C49   A    
O17   V3    S    
C11   H11   S    
C3    C8    S    
C12   H12   S    
C15   C19   A    
C38   C40   T    
O4    V2    S    
C32   C41   S    
C45   C46   A    
O6    C4    A    
C53   C54   A    
C35   C37   S    
O1    V2    S    
C13   H9    S    
O2    V1    S    
H2    C30   S    
H3    C23   S    
O4    C2    A    
C18   C26   A    
C46   H15   S    
C19   C27   A    
C7    C27   A    
O3    V1    S    
C50   H19   S    
C16   C20   A    
C5    C29   A    
O20   V3    S    
O3    C1    A    
C6    C30   A    
O19   V4    S    
C47   H16   S    
C4    C7    S    
C10   C12   A    
O7    V1    S    
C1    O8    A    
C11   C13   A    
O8    V2    S    
C1    C40   S    
C20   C22   A    
H4    C24   S    
C51   C56   A    
O5    V1    S    
C15   C17   A    
C56   H24   S    
C16   C18   A    
C51   C52   A    
O14   V4    S    
C20   C28   A    
O13   V3    S    
C8    C28   A    
C9    C45   S    
O11   V4    S    
C19   C21   A    
C55   C56   A    
O16   C44   A    
O9    V2    S    
O15   C43   A    
O10   V1    S    
O14   C42   A    
C49   H18   S    
C9    C31   A    
C14   C16   A    
