data_mof_unit_28564.cif
_audit_creation_date              2012-12-10T18:06:46-0500
_audit_creation_method            fapswitch 2.2
_symmetry_space_group_name_H-M    P1
_symmetry_Int_Tables_number       1
_space_group_crystal_system       triclinic
_cell_length_a                    12.582153
_cell_length_b                    13.1431
_cell_length_c                    15.496222
_cell_angle_alpha                 83.194403
_cell_angle_beta                  98.755203
_cell_angle_gamma                 96.737089
_cell_volume                      2501.98034086

loop_
_atom_site_label
_atom_site_type_symbol
_atom_type_description
_atom_site_fract_x
_atom_site_fract_y
_atom_site_fract_z
_atom_type_partial_charge
C1    C     C_R   0.441945 0.308671 0.506644 0.847121
C2    C     C_R   0.455957 0.568119 0.096198 0.092528
C3    C     C_R   0.347855 0.584904 0.061225 0.179925
C4    C     C_R   0.534798 0.570378 0.039705 0.069221
C5    C     C_R   0.499914 0.570184 0.948797 0.069978
C6    C     C_R   0.393194 0.592710 0.915014 -0.232667
C7    C     C_R   0.318964 0.601802 0.970744 -0.239667
C8    C     C_R   0.646725 0.570840 0.070933 -0.234471
C9    C     C_R   0.720241 0.559200 0.015202 -0.242218
C10   C     C_R   0.683785 0.542788 0.928036 0.179296
C11   C     C_R   0.572823 0.546348 0.894929 0.091848
C12   C     C_R   0.435916 0.514765 0.336002 0.853236
C13   C     C_R   0.756206 0.521168 0.873679 -0.207399
C14   C     C_R   0.718651 0.500896 0.787335 -0.203607
C15   C     C_R   0.536386 0.519464 0.810462 -0.266336
C16   C     C_R   0.646628 0.943777 0.370886 -0.203597
C17   C     C_R   0.582571 0.801337 0.469363 -0.052123
C18   C     C_R   0.327293 0.158798 0.564344 -0.191488
C19   C     C_R   0.305294 0.053032 0.581254 -0.151685
C20   C     C_R   0.364817 0.987462 0.548441 -0.189082
C21   C     C_R   0.444000 0.027453 0.493855 0.087153
C22   C     C_R   0.453087 0.133454 0.465723 0.094798
C23   C     C_R   0.556059 0.691687 0.489048 0.860799
C24   C     C_R   0.514528 0.965917 0.466210 0.081403
C25   C     C_R   0.579303 0.006382 0.400174 0.179986
C26   C     C_R   0.574262 0.107951 0.363422 -0.255854
C27   C     C_R   0.511679 0.170879 0.395719 -0.204968
C28   C     C_R   0.523882 0.865524 0.503982 -0.253585
C29   C     C_R   0.646767 0.840563 0.404350 -0.193712
C30   C     C_R   0.404102 0.199433 0.509277 -0.119796
C31   C     C_R   0.139052 0.620306 0.637267 -0.315323
C32   C     C_R   0.755646 0.381182 0.395474 -0.014473
C33   C     C_R   0.848497 0.342264 0.382235 -0.282412
C34   C     C_R   0.565365 0.489474 0.663758 0.866213
C35   C     C_R   0.948413 0.375176 0.428999 0.116148
C36   C     C_R   0.953523 0.457074 0.483984 -0.035222
C37   C     C_R   0.854261 0.487527 0.499785 0.207520
C38   C     C_R   0.049631 0.509895 0.524935 -0.013626
C39   C     C_R   0.044695 0.573912 0.592050 0.206477
C40   C     C_R   0.945734 0.595096 0.610437 -0.298893
C41   C     C_R   0.852137 0.556528 0.561587 -0.203707
C42   C     C_R   0.150214 0.508725 0.498128 -0.078054
C43   C     C_R   0.237190 0.605908 0.613490 0.010852
C44   C     C_R   0.402250 0.536602 0.241844 -0.052027
C45   C     C_R   0.608074 0.499722 0.755745 -0.058526
C46   C     C_R   0.269557 0.581902 0.117257 -0.209215
C47   C     C_R   0.296769 0.558225 0.207423 -0.191338
C48   C     C_R   0.480293 0.541457 0.186196 -0.270998
H1    H     H_    0.237467 0.617583 0.942842 0.142012
H2    H     H_    0.841554 0.519968 0.897931 0.133803
H3    H     H_    0.692242 0.790667 0.376544 0.158428
H4    H     H_    0.620120 0.139304 0.310827 0.140079
H5    H     H_    0.695557 0.973503 0.319904 0.135896
H6    H     H_    0.482676 0.833685 0.558820 0.143279
H7    H     H_    0.286597 0.208727 0.596423 0.159442
H8    H     H_    0.345238 0.906023 0.564858 0.132850
H9    H     H_    0.245234 0.021787 0.623033 0.141772
H10   H     H_    0.508190 0.248738 0.364560 0.154796
H11   H     H_    0.311848 0.638420 0.648886 0.125337
H12   H     H_    0.451051 0.511321 0.786718 0.160830
H13   H     H_    0.940770 0.646110 0.659484 0.153815
H14   H     H_    0.136789 0.667159 0.689881 0.138299
H15   H     H_    0.160557 0.476158 0.440139 0.152324
H16   H     H_    0.678497 0.352899 0.361335 0.141031
H17   H     H_    0.841275 0.281840 0.339190 0.145226
H18   H     H_    0.778767 0.582110 0.573416 0.214195
H19   H     H_    0.775783 0.486815 0.745517 0.164558
H20   H     H_    0.805218 0.559142 0.041264 0.142843
H21   H     H_    0.187086 0.596070 0.091197 0.132137
H22   H     H_    0.235415 0.555909 0.249831 0.153905
H23   H     H_    0.559450 0.520229 0.213791 0.160351
H24   H     H_    0.365730 0.605697 0.845498 0.141541
H25   H     H_    0.679906 0.582543 0.137873 0.147961
N1    N     N_R   0.239390 0.551900 0.544730 -0.100158
N2    N     N_R   0.759950 0.448600 0.455730 -0.128230
O1    O     O_R   0.374950 0.371210 0.521360 -0.617641
O2    O     O_R   0.542050 0.338030 0.492790 -0.601131
O3    O     O_R   0.368720 0.526070 0.390200 -0.616554
O4    O     O_R   0.535820 0.492890 0.361630 -0.631509
O5    O     O_R   0.457950 0.661970 0.507210 -0.607145
O6    O     O_R   0.625050 0.628790 0.478640 -0.636425
O7    O     O_R   0.464180 0.507110 0.638370 -0.620028
O8    O     O_R   0.631280 0.473930 0.609800 -0.628064
Zn1   Zn    Zn3+2 0.388420 0.522150 0.519080 0.932588
Zn2   Zn    Zn3+2 0.611580 0.477850 0.480920 0.926134
C49   C     C_3   0.038698 0.308578 0.426663 -0.420617
C50   C     C_3   0.078123 0.323989 0.336202 -0.351940
C51   C     C_3   0.182051 0.274149 0.338166 -0.862394
H26   H     H_    0.248866 0.314313 0.380508 0.268421
H27   H     H_    0.171502 0.191384 0.363324 0.268763
H28   H     H_    0.204001 0.280677 0.270840 0.246038
H29   H     H_    0.015020 0.288893 0.287127 0.218058
H30   H     H_    0.092321 0.407224 0.313556 0.212904
H31   H     H_    0.105723 0.318500 0.481190 0.204320
H32   H     H_    0.006793 0.226358 0.439068 0.199465

loop_
_geom_bond_atom_site_label_1
_geom_bond_atom_site_label_2
_ccdc_geom_bond_type
C50   C51   S    
C17   C29   A    
C15   H12   S    
C35   C36   A    
C4    C8    A    
O1    Zn1   S    
C32   N2    A    
C33   H17   S    
C19   H9    S    
C6    H24   S    
C26   C27   A    
C17   C23   S    
C31   C43   A    
C21   C22   A    
C36   C37   A    
C38   C42   A    
C3    C7    A    
C5    C6    A    
C35   C49   S    
C12   O4    A    
C1    O2    A    
C18   C19   A    
C16   H5    S    
C1    C30   S    
C46   H21   S    
C49   H31   S    
C11   C15   A    
N2    Zn2   S    
C19   C20   A    
C8    C9    A    
C12   O3    A    
C14   H19   S    
C18   C30   A    
C23   O5    A    
C23   O6    A    
C9    C10   A    
C44   C47   A    
C20   H8    S    
C43   N1    A    
C37   N2    A    
O2    Zn2   S    
C13   C14   A    
C17   C28   A    
C31   H14   S    
C14   C45   A    
C42   N1    A    
O5    Zn1   S    
C24   C25   A    
C32   H16   S    
C10   C11   A    
C39   C40   A    
C28   H6    S    
C49   C50   S    
C2    C48   A    
C16   C29   A    
C27   H10   S    
C40   H13   S    
C2    C4    A    
C47   H22   S    
C26   H4    S    
C51   H28   S    
C34   C45   S    
C51   H26   S    
C7    H1    S    
C41   H18   S    
C18   H7    S    
C40   C41   A    
O8    Zn2   S    
C51   H27   S    
O7    Zn1   S    
C22   C27   A    
C34   O8    A    
C15   C45   A    
C48   H23   S    
O4    Zn2   S    
C29   H3    S    
C16   C25   A    
C46   C47   A    
C22   C30   A    
C1    O1    A    
C24   C28   A    
N1    Zn1   S    
C4    C5    A    
C10   C13   A    
C5    C11   A    
C6    C7    A    
C43   H11   S    
C3    C46   A    
C32   C33   A    
C36   C38   A    
C2    C3    A    
C25   C26   A    
C9    H20   S    
C12   C44   S    
C38   C39   A    
C50   H30   S    
C8    H25   S    
C33   C35   A    
C31   C39   A    
C37   C41   A    
C49   H32   S    
C13   H2    S    
O3    Zn1   S    
C20   C21   A    
C21   C24   A    
C34   O7    A    
C50   H29   S    
C42   H15   S    
O6    Zn2   S    
C44   C48   A    
