data_mof_unit_13960.cif
_audit_creation_date              2012-12-10T17:23:39-0500
_audit_creation_method            fapswitch 2.2
_symmetry_space_group_name_H-M    P1
_symmetry_Int_Tables_number       1
_space_group_crystal_system       triclinic
_cell_length_a                    9.607866
_cell_length_b                    10.778493
_cell_length_c                    17.357552
_cell_angle_alpha                 92.683568
_cell_angle_beta                  86.028585
_cell_angle_gamma                 90.120285
_cell_volume                      1791.23482439

loop_
_atom_site_label
_atom_site_type_symbol
_atom_type_description
_atom_site_fract_x
_atom_site_fract_y
_atom_site_fract_z
_atom_type_partial_charge
C1    C     C_R   0.499727 0.737406 0.502778 0.800914
C2    C     C_R   0.343624 0.483998 0.775961 -0.212333
C3    C     C_R   0.416704 0.514468 0.146378 -0.179090
C4    C     C_R   0.407830 0.514000 0.226336 -0.175181
C5    C     C_R   0.658027 0.483554 0.224295 -0.190332
C6    C     C_R   0.668327 0.481134 0.143761 0.431918
C7    C     C_R   0.545859 0.497641 0.104222 0.072767
C8    C     C_2   0.453737 0.453517 0.977509 -0.219358
C9    C     C_2   0.552324 0.504496 0.019884 -0.237494
C10   C     C_R   0.528333 0.499098 0.265857 -0.115897
C11   C     C_R   0.336618 0.879797 0.625299 -0.177194
C12   C     C_R   0.481854 0.497916 0.649666 0.772940
C13   C     C_R   0.257224 0.948913 0.682249 -0.138608
C14   C     C_R   0.257008 0.077930 0.682115 -0.126443
C15   C     C_R   0.336052 0.138643 0.624978 -0.170177
C16   C     C_R   0.415444 0.070483 0.565725 0.096681
C17   C     C_R   0.415741 0.939232 0.565908 0.101183
C18   C     C_R   0.499327 0.871628 0.508136 -0.095600
C19   C     C_R   0.585310 0.932610 0.453973 -0.178451
C20   C     C_R   0.585001 0.060580 0.453767 -0.185032
C21   C     C_R   0.498762 0.129533 0.507753 -0.083168
C22   C     C_R   0.868704 0.335435 0.396986 -0.184197
C23   C     C_R   0.499575 0.262931 0.502362 0.766829
C24   C     C_R   0.946552 0.254871 0.346426 -0.310755
C25   C     C_R   0.091201 0.254088 0.346140 0.418440
C26   C     C_R   0.156294 0.334929 0.397064 -0.128009
C27   C     C_R   0.080795 0.418925 0.449406 0.108422
C28   C     C_R   0.931492 0.419068 0.449389 0.131987
C29   C     C_R   0.919608 0.577638 0.548574 0.505355
C30   C     C_R   0.068579 0.577024 0.548208 -0.156297
C31   C     C_R   0.518270 0.499646 0.350262 0.798180
C32   C     C_R   0.473306 0.487160 0.733511 -0.030984
C33   C     C_R   0.596473 0.474579 0.771366 -0.179482
C34   C     C_R   0.590536 0.460943 0.850450 -0.153203
C35   C     C_R   0.461291 0.461565 0.893315 0.191018
C36   C     C_R   0.337814 0.470684 0.855588 -0.162863
Cu1   Cu    Cu3+1 0.359340 0.500010 0.500010 0.936203
Cu2   Cu    Cu3+1 0.640660 0.499990 0.499990 0.985943
H1    H     H_    0.697888 0.474156 0.739929 0.167314
H2    H     H_    0.650592 0.880603 0.410411 0.153271
H3    H     H_    0.337284 0.780076 0.629490 0.139165
H4    H     H_    0.197165 0.902171 0.727318 0.134073
H5    H     H_    0.196822 0.131333 0.727095 0.137057
H6    H     H_    0.336066 0.238955 0.628911 0.152378
H7    H     H_    0.650113 0.106065 0.410061 0.141477
H8    H     H_    0.759567 0.327881 0.392284 0.209768
H9    H     H_    0.893287 0.192734 0.307375 0.149036
H10   H     H_    0.306609 0.527199 0.257156 0.175500
H11   H     H_    0.266576 0.327553 0.392903 0.215492
H12   H     H_    0.120637 0.639626 0.587393 0.129763
H13   H     H_    0.751961 0.470990 0.254201 0.179037
H14   H     H_    0.639910 0.553231 0.992352 0.157771
H15   H     H_    0.237286 0.469809 0.887953 0.129463
H16   H     H_    0.322379 0.530747 0.117622 0.158627
H17   H     H_    0.247095 0.491905 0.747818 0.150910
H18   H     H_    0.363788 0.407993 0.005144 0.158906
H19   H     H_    0.687272 0.448841 0.877700 0.123853
N1    N     N_R   0.852190 0.498790 0.499250 -0.201930
N2    N     N_R   0.148060 0.498710 0.499220 -0.200497
O1    O     O_R   0.381190 0.680360 0.500010 -0.581747
O2    O     O_R   0.618760 0.680340 0.500000 -0.524331
O3    O     O_R   0.367440 0.500030 0.613600 -0.604542
O4    O     O_R   0.605010 0.500010 0.613590 -0.535168
O5    O     O_R   0.381240 0.319660 0.500000 -0.601231
O6    O     O_R   0.618810 0.319640 0.499990 -0.597274
O7    O     O_R   0.394990 0.499990 0.386410 -0.597477
O8    O     O_R   0.632560 0.499970 0.386400 -0.609652
O9    O     O_3   0.798938 0.460803 0.106881 -0.744206
H20   H     H_    0.789836 0.436313 0.051862 0.317546
O10   O     O_3   0.840678 0.657257 0.598323 -0.700319
H21   H     H_    0.903828 0.707789 0.629968 0.289618
O11   O     O_3   0.172554 0.175379 0.296837 -0.729461
H22   H     H_    0.110931 0.124249 0.264554 0.329176

loop_
_geom_bond_atom_site_label_1
_geom_bond_atom_site_label_2
_ccdc_geom_bond_type
C31   O7    A    
O9    H20   S    
C24   C25   A    
C16   C21   A    
O10   H21   S    
C28   N1    A    
C34   H19   S    
C29   C30   A    
C12   O3    A    
C19   C20   A    
Cu2   O6    S    
Cu2   O2    S    
C32   C33   A    
C14   H5    S    
C6    O9    S    
C17   C18   A    
C30   H12   S    
C5    C10   A    
C25   O11   S    
C27   N2    A    
C13   C14   A    
C30   N2    A    
C31   O8    A    
C20   H7    S    
C11   C13   A    
C8    H18   S    
C1    C18   S    
Cu1   N2    S    
C9    H14   S    
C5    C6    A    
C10   C31   S    
C5    H13   S    
C25   C26   A    
C13   H4    S    
C22   H8    S    
Cu1   Cu2   S    
C33   C34   A    
C15   H6    S    
C11   H3    S    
C6    C7    A    
C3    C7    A    
C2    H17   S    
C21   C23   S    
Cu1   O7    S    
C26   C27   A    
C23   O6    A    
C34   C35   A    
C3    H16   S    
C22   C24   A    
C26   H11   S    
Cu1   O1    S    
C16   C17   A    
C19   H2    S    
C4    C10   A    
C15   C16   A    
Cu2   O8    S    
C23   O5    A    
Cu1   O5    S    
C18   C19   A    
C29   N1    A    
C2    C32   A    
Cu2   O4    S    
C4    H10   S    
C1    O1    A    
C2    C36   A    
C27   C28   A    
C7    C9    S    
C12   O4    A    
Cu1   O3    S    
C14   C15   A    
C8    C9    D    
C22   C28   A    
C36   H15   S    
C20   C21   A    
C29   O10   S    
C24   H9    S    
Cu2   N1    S    
C33   H1    S    
C12   C32   S    
C3    C4    A    
C35   C36   A    
C1    O2    A    
O11   H22   S    
C8    C35   S    
C11   C17   A    
