data_mof_unit_49690.cif
_audit_creation_date              2012-12-11T15:39:36-0500
_audit_creation_method            fapswitch 2.2
_symmetry_space_group_name_H-M    P1
_symmetry_Int_Tables_number       1
_space_group_crystal_system       triclinic
_cell_length_a                    17.340183
_cell_length_b                    24.348758
_cell_length_c                    14.929455
_cell_angle_alpha                 90.315522
_cell_angle_beta                  125.40943
_cell_angle_gamma                 89.106081
_cell_volume                      5136.79697039

loop_
_atom_site_label
_atom_site_type_symbol
_atom_type_description
_atom_site_fract_x
_atom_site_fract_y
_atom_site_fract_z
_atom_type_partial_charge
C1    C     C_R   0.346264 0.350282 0.910419 -0.088783
C2    C     C_R   0.692373 0.380305 0.090172 -0.099773
C3    C     C_R   0.846265 0.850281 0.910419 -0.088771
C4    C     C_R   0.192373 0.880305 0.090172 -0.099773
C5    C     C_R   0.380299 0.683844 0.000905 0.071202
C6    C     C_R   0.685068 0.638420 0.001163 0.053510
C7    C     C_R   0.880299 0.183844 0.000905 0.071203
C8    C     C_R   0.185069 0.138420 0.001164 0.053514
C9    C     C_R   0.451535 0.500811 0.277081 0.038433
C10   C     C_R   0.435117 0.500379 0.632724 0.057026
C11   C     C_R   0.951534 0.000811 0.277079 0.038433
C12   C     C_R   0.935117 0.000379 0.632724 0.057026
C13   C     C_R   0.174504 0.503317 0.716836 0.018650
C14   C     C_R   0.798844 0.501625 0.369802 0.035736
C15   C     C_R   0.674504 0.003317 0.716836 0.018652
C16   C     C_R   0.298844 0.001625 0.369802 0.035737
C17   C     C_R   0.028679 0.556506 0.593589 0.143691
C18   C     C_R   0.934762 0.555970 0.507882 0.141564
C19   C     C_R   0.528679 0.056506 0.593588 0.143690
C20   C     C_R   0.434762 0.055970 0.507881 0.141564
C21   C     C_R   0.072742 0.509013 0.655472 0.050705
C22   C     C_R   0.882105 0.508102 0.482507 0.040888
C23   C     C_R   0.572742 0.009013 0.655471 0.050703
C24   C     C_R   0.382105 0.008102 0.482507 0.040887
C25   C     C_R   0.016070 0.466592 0.649518 -0.148253
C26   C     C_R   0.919709 0.466363 0.562780 -0.141944
C27   C     C_R   0.516070 0.966592 0.649518 -0.148248
C28   C     C_R   0.419709 0.966363 0.562779 -0.141945
C29   C     C_3   0.950575 0.591106 0.437759 -0.487697
C30   C     C_3   0.053938 0.591685 0.532549 -0.482257
C31   C     C_3   0.450575 0.091106 0.437758 -0.487696
C32   C     C_3   0.553938 0.091684 0.532548 -0.482255
C33   C     C_R   0.303443 0.773066 0.906932 -0.203808
C34   C     C_R   0.731542 0.731781 0.051069 -0.216283
C35   C     C_R   0.803443 0.273066 0.906932 -0.203808
C36   C     C_R   0.231563 0.231777 0.051094 -0.216279
C37   C     C_R   0.760300 0.321991 0.906447 0.201304
C38   C     C_R   0.275234 0.277973 0.050919 0.211075
C39   C     C_R   0.260300 0.821991 0.906447 0.201304
C40   C     C_R   0.775217 0.777977 0.050897 0.211082
C41   C     C_R   0.767373 0.337097 0.002436 0.062797
C42   C     C_R   0.326081 0.274904 0.004812 0.061276
C43   C     C_R   0.267373 0.837097 0.002436 0.062798
C44   C     C_R   0.826082 0.774904 0.004813 0.061272
C45   C     C_R   0.442354 0.651639 0.091613 -0.139050
C46   C     C_R   0.596970 0.625289 0.908319 -0.106558
C47   C     C_R   0.942354 0.151639 0.091613 -0.139049
C48   C     C_R   0.096971 0.125289 0.908319 -0.106558
C49   C     C_R   0.838083 0.312005 0.102484 -0.166515
C50   C     C_R   0.330913 0.226871 0.956311 -0.187288
C51   C     C_R   0.338084 0.812005 0.102485 -0.166515
C52   C     C_R   0.830930 0.726867 0.956333 -0.187293
C53   C     C_R   0.381766 0.764245 0.102843 -0.146531
C54   C     C_R   0.785458 0.680549 0.955593 -0.155289
C55   C     C_R   0.881765 0.264245 0.102843 -0.146529
C56   C     C_R   0.285441 0.180553 0.955572 -0.155290
C57   C     C_R   0.357133 0.741545 0.003478 0.095723
C58   C     C_R   0.737215 0.683462 0.004325 0.095284
C59   C     C_R   0.857133 0.241545 0.003478 0.095723
C60   C     C_R   0.237219 0.183460 0.004329 0.095288
C61   C     C_R   0.393460 0.550682 0.465991 -0.159143
C62   C     C_R   0.396142 0.550797 0.375172 -0.153668
C63   C     C_R   0.893461 0.050683 0.465992 -0.159145
C64   C     C_R   0.896142 0.050797 0.375171 -0.153667
C65   C     C_R   0.408490 0.501068 0.337017 0.134579
C66   C     C_R   0.402346 0.500796 0.517983 0.123967
C67   C     C_R   0.908488 0.001069 0.337015 0.134581
C68   C     C_R   0.902347 0.000796 0.517982 0.123970
C69   C     C_R   0.396753 0.451372 0.374503 -0.115809
C70   C     C_R   0.394136 0.451209 0.465280 -0.129403
C71   C     C_R   0.896750 0.951372 0.374500 -0.115813
C72   C     C_R   0.894135 0.951209 0.465279 -0.129407
C73   C     C_R   0.482481 0.454540 0.251014 -0.063004
C74   C     C_R   0.450912 0.454571 0.696031 -0.083067
C75   C     C_R   0.982480 0.954540 0.251013 -0.063002
C76   C     C_R   0.950913 0.954571 0.696031 -0.083067
C77   C     C_R   0.233173 0.547651 0.751846 -0.170638
C78   C     C_R   0.751149 0.546165 0.303302 -0.190649
C79   C     C_R   0.733173 0.047651 0.751846 -0.170637
C80   C     C_R   0.251149 0.046165 0.303302 -0.190651
C81   C     C_R   0.481327 0.546495 0.249924 -0.121476
C82   C     C_R   0.451402 0.545872 0.696797 -0.132440
C83   C     C_R   0.981326 0.046495 0.249923 -0.121475
C84   C     C_R   0.951403 0.045872 0.696798 -0.132442
C85   C     C_R   0.228637 0.455876 0.737043 0.194715
C86   C     C_R   0.752015 0.454954 0.307900 0.170871
C87   C     C_R   0.728637 0.955876 0.737043 0.194716
C88   C     C_R   0.252015 0.954954 0.307900 0.170871
C89   C     C_R   0.351024 0.652373 0.909197 -0.135532
C90   C     C_R   0.689252 0.623610 0.092794 -0.132013
C91   C     C_R   0.851024 0.152373 0.909197 -0.135530
C92   C     C_R   0.189253 0.123609 0.092794 -0.132015
C93   C     C_R   0.437022 0.351317 0.093364 -0.082895
C94   C     C_R   0.598412 0.375958 0.907527 -0.101584
C95   C     C_R   0.937022 0.851317 0.093364 -0.082895
C96   C     C_R   0.098412 0.875958 0.907527 -0.101585
C97   C     C_R   0.369537 0.322942 0.002781 0.046209
C98   C     C_R   0.690803 0.366656 0.998599 0.054735
C99   C     C_R   0.869540 0.822941 0.002782 0.046201
C100  C     C_R   0.190803 0.866656 0.998599 0.054735
H1    H     H_    0.308396 0.333320 0.829254 0.143999
H2    H     H_    0.753198 0.380405 0.174019 0.131538
H3    H     H_    0.808398 0.833319 0.829254 0.144000
H4    H     H_    0.253198 0.880405 0.174019 0.131538
H5    H     H_    0.937262 0.569228 0.364518 0.210277
H6    H     H_    0.078204 0.632985 0.570065 0.192506
H7    H     H_    0.437262 0.069228 0.364518 0.210277
H8    H     H_    0.578204 0.132985 0.570064 0.192506
H9    H     H_    0.915622 0.632160 0.420559 0.191674
H10   H     H_    0.100280 0.570103 0.514184 0.211489
H11   H     H_    0.415622 0.132160 0.420559 0.191675
H12   H     H_    0.600280 0.070103 0.514183 0.211489
H13   H     H_    0.291874 0.759085 0.831216 0.144662
H14   H     H_    0.690251 0.734001 0.084461 0.155986
H15   H     H_    0.791874 0.259085 0.831216 0.144663
H16   H     H_    0.190284 0.233994 0.084502 0.155983
H17   H     H_    0.852600 0.324575 0.180220 0.142207
H18   H     H_    0.369167 0.225585 0.919151 0.136665
H19   H     H_    0.352601 0.824575 0.180220 0.142207
H20   H     H_    0.869200 0.725578 0.919191 0.136667
H21   H     H_    0.427279 0.742932 0.180357 0.121459
H22   H     H_    0.787490 0.643044 0.917579 0.135120
H23   H     H_    0.927278 0.242931 0.180356 0.121459
H24   H     H_    0.287460 0.143051 0.917541 0.135118
H25   H     H_    0.393739 0.589852 0.500492 0.117679
H26   H     H_    0.398401 0.589983 0.343183 0.115943
H27   H     H_    0.893742 0.089852 0.500493 0.117679
H28   H     H_    0.898401 0.089983 0.343182 0.115942
H29   H     H_    0.399601 0.412188 0.342261 0.140961
H30   H     H_    0.395158 0.411933 0.499296 0.126648
H31   H     H_    0.899595 0.912188 0.342256 0.140953
H32   H     H_    0.895156 0.911933 0.499294 0.126646
H33   H     H_    0.489985 0.665178 0.175577 0.092452
H34   H     H_    0.568434 0.635022 0.823834 0.108969
H35   H     H_    0.989985 0.165178 0.175577 0.092452
H36   H     H_    0.068435 0.135022 0.823835 0.108967
H37   H     H_    0.474530 0.412207 0.263981 0.112397
H38   H     H_    0.432667 0.412685 0.668166 0.102927
H39   H     H_    0.974529 0.912207 0.263979 0.112391
H40   H     H_    0.932668 0.912685 0.668166 0.102927
H41   H     H_    0.213934 0.590455 0.746382 0.122824
H42   H     H_    0.757780 0.588400 0.329379 0.118414
H43   H     H_    0.713934 0.090455 0.746381 0.122824
H44   H     H_    0.257780 0.088400 0.329379 0.118415
H45   H     H_    0.471093 0.589213 0.260340 0.097669
H46   H     H_    0.433784 0.588153 0.670068 0.092250
H47   H     H_    0.971093 0.089214 0.260339 0.097669
H48   H     H_    0.933785 0.088153 0.670068 0.092250
H49   H     H_    0.312839 0.666804 0.825286 0.093674
H50   H     H_    0.745237 0.631953 0.177742 0.108053
H51   H     H_    0.812839 0.166804 0.825286 0.093674
H52   H     H_    0.245238 0.131951 0.177743 0.108051
H53   H     H_    0.478649 0.337145 0.177703 0.123751
H54   H     H_    0.568447 0.367495 0.822663 0.135044
H55   H     H_    0.978649 0.837145 0.177704 0.123746
H56   H     H_    0.068447 0.867495 0.822663 0.135044
H57   H     H_    0.047319 0.431581 0.704530 0.171010
H58   H     H_    0.878631 0.431862 0.555547 0.184006
H59   H     H_    0.547319 0.931581 0.704530 0.171013
H60   H     H_    0.378631 0.931863 0.555547 0.184007
N1    N     N_R   0.394180 0.396910 0.943210 -0.047235
N2    N     N_R   0.605820 0.396910 0.056790 -0.039912
N3    N     N_R   0.894180 0.896910 0.943210 -0.047235
N4    N     N_R   0.105820 0.896910 0.056790 -0.039912
N5    N     N_R   0.450950 0.603070 0.056740 -0.039344
N6    N     N_R   0.549050 0.603070 0.943260 -0.043973
N7    N     N_R   0.950950 0.103070 0.056740 -0.039344
N8    N     N_R   0.049050 0.103070 0.943260 -0.043973
N9    N     N_R   0.525650 0.471570 0.206150 -0.040591
N10   N     N_R   0.474350 0.471570 0.793850 -0.043206
N11   N     N_R   0.025650 0.971570 0.206150 -0.040591
N12   N     N_R   0.974350 0.971570 0.793850 -0.043206
N13   N     N_R   0.319480 0.528420 0.793810 -0.052364
N14   N     N_R   0.680520 0.528420 0.206190 -0.049624
N15   N     N_R   0.819480 0.028420 0.793810 -0.052364
N16   N     N_R   0.180520 0.028420 0.206190 -0.049624
N17   N     N_R   0.525640 0.528390 0.206120 -0.043508
N18   N     N_R   0.474360 0.528390 0.793880 -0.040989
N19   N     N_R   0.025640 0.028390 0.206120 -0.043508
N20   N     N_R   0.974360 0.028390 0.793880 -0.040989
N21   N     N_R   0.319490 0.471590 0.793840 -0.063079
N22   N     N_R   0.680510 0.471590 0.206160 -0.063066
N23   N     N_R   0.819490 0.971590 0.793840 -0.063080
N24   N     N_R   0.180510 0.971590 0.206160 -0.063066
N25   N     N_R   0.394130 0.603080 0.943110 -0.038905
N26   N     N_R   0.605870 0.603080 0.056890 -0.041673
N27   N     N_R   0.894130 0.103080 0.943110 -0.038905
N28   N     N_R   0.105870 0.103080 0.056890 -0.041673
N29   N     N_R   0.450990 0.396900 0.056840 -0.042500
N30   N     N_R   0.549010 0.396900 0.943160 -0.051922
N31   N     N_R   0.950990 0.896900 0.056840 -0.042499
N32   N     N_R   0.049010 0.896900 0.943160 -0.051923
Ni1   Ni    Ni4+2 0.434860 0.434850 0.869700 0.234549
Ni2   Ni    Ni4+2 0.565140 0.434850 0.130300 0.253460
Ni3   Ni    Ni4+2 0.934860 0.934850 0.869700 0.234549
Ni4   Ni    Ni4+2 0.065140 0.934850 0.130300 0.253460
Ni5   Ni    Ni4+2 0.565130 0.565140 0.130240 0.214449
Ni6   Ni    Ni4+2 0.434870 0.565140 0.869760 0.215662
Ni7   Ni    Ni4+2 0.065130 0.065140 0.130240 0.214450
Ni8   Ni    Ni4+2 0.934870 0.065140 0.869760 0.215663
I1    I     I_    0.693728 0.371163 0.761860 -0.440515
I2    I     I_    0.252065 0.351411 0.110894 -0.456738
I3    I     I_    0.193728 0.871162 0.761859 -0.440514
I4    I     I_    0.752035 0.851420 0.110849 -0.456718
I5    I     I_    0.174419 0.385466 0.635159 -0.457753
I6    I     I_    0.754852 0.374745 0.365488 -0.466079
I7    I     I_    0.674419 0.885466 0.635159 -0.457751
I8    I     I_    0.254852 0.874745 0.365488 -0.466080

loop_
_geom_bond_atom_site_label_1
_geom_bond_atom_site_label_2
_ccdc_geom_bond_type
C96   N32   A    
N8    N28   A    
C55   C59   A    
C6    C58   S    
C19   C20   A    
C70   H30   S    
C90   H50   S    
N11   N19   A    
C86   I6    S    
C8    C48   A    
C85   I5    S    
C94   N30   A    
C66   C70   A    
C74   H38   S    
C33   C39   A    
C73   H37   S    
C30   H10   S    
C34   C40   A    
C56   H24   S    
C29   H9    S    
C35   C37   A    
C38   C42   A    
C39   I3    S    
C78   H42   S    
C87   N23   A    
C44   C99   S    
C95   C99   A    
C88   N24   A    
C94   C98   A    
C27   H59   S    
C96   C100  A    
C28   H60   S    
C47   N7    A    
C12   C84   A    
C35   C59   A    
C31   H7    S    
C7    C59   S    
C84   N20   A    
N31   Ni4   S    
C21   C25   A    
N30   Ni1   S    
C61   C66   A    
C49   H17   S    
C40   I4    S    
C52   C54   A    
N14   N22   A    
C80   H44   S    
C92   H52   S    
N23   Ni3   S    
C4    N4    A    
N26   Ni5   S    
C35   H15   S    
N22   Ni2   S    
C23   C27   A    
N25   Ni6   S    
N21   Ni1   S    
C95   H55   S    
C6    C46   A    
C3    N3    A    
C63   H27   S    
C47   H35   S    
C33   H13   S    
N12   N20   A    
C15   C23   S    
C54   H22   S    
N13   N21   A    
N2    Ni2   S    
C16   C24   S    
N17   Ni5   S    
C30   H6    S    
C37   C41   A    
C17   C30   S    
C29   H5    S    
C61   C62   A    
C9    C73   A    
C88   I8    S    
C19   C32   S    
N29   Ni2   S    
C41   C49   A    
C82   H46   S    
C11   C67   S    
C72   H32   S    
C32   H8    S    
C13   C77   A    
C10   C66   S    
C79   H43   S    
N1    Ni1   S    
C64   C67   A    
C20   C24   A    
C43   C100  S    
C14   C86   A    
N1    N29   A    
C93   N29   A    
C16   C88   A    
C42   C97   S    
C1    C97   A    
C62   H26   S    
C53   C57   A    
C86   N22   A    
C75   H39   S    
C39   C43   A    
C90   N26   A    
N28   Ni7   S    
C64   H28   S    
C25   C26   A    
N24   Ni4   S    
C5    C45   A    
C93   H53   S    
C10   C82   A    
C32   H12   S    
N5    Ni5   S    
C56   C60   A    
N3    N31   A    
C16   C80   A    
C7    C47   A    
C84   H48   S    
C19   C23   A    
N6    Ni6   S    
C31   H11   S    
C29   C30   S    
N20   Ni8   S    
C79   N15   A    
C46   H34   S    
C12   C68   S    
C26   H58   S    
C51   H19   S    
C31   C32   S    
C48   N8    A    
N3    Ni3   S    
C68   C72   A    
N7    N27   A    
C82   N18   A    
C9    C65   S    
C92   N28   A    
C17   C18   A    
C13   C21   S    
C33   C57   A    
C18   C29   S    
C80   N16   A    
C38   I2    S    
C42   C50   A    
C8    C92   A    
C52   H20   S    
C77   N13   A    
N10   N18   A    
C1    H1    S    
C81   H45   S    
C50   H18   S    
C12   C76   A    
C25   H57   S    
C83   H47   S    
C76   H40   S    
C73   N9    A    
C36   C38   A    
C36   H16   S    
C55   H23   S    
C93   C97   A    
C7    C91   A    
N2    N30   A    
C78   N14   A    
C54   C58   A    
C3    H3    S    
N16   N24   A    
C91   N27   A    
C63   C68   A    
N14   Ni5   S    
C37   I1    S    
C95   N31   A    
C46   N6    A    
C62   C65   A    
N5    N25   A    
N13   Ni6   S    
N6    N26   A    
N15   N23   A    
C89   N25   A    
C48   H36   S    
N7    Ni7   S    
C24   C28   A    
C5    C57   S    
N11   Ni4   S    
C36   C60   A    
C49   C55   A    
N10   Ni1   S    
C61   H25   S    
N4    Ni4   S    
N9    Ni2   S    
C85   N21   A    
C15   C79   A    
C34   H14   S    
C75   N11   A    
C45   H33   S    
C4    C100  A    
C83   N19   A    
N27   Ni8   S    
C11   C83   A    
C14   C22   S    
C18   C22   A    
N32   Ni3   S    
C81   N17   A    
C71   C72   A    
C11   C75   A    
C50   C56   A    
C8    C60   S    
C91   H51   S    
C94   H54   S    
C10   C74   A    
C44   C52   A    
C15   C87   A    
C96   H56   S    
N19   Ni7   S    
C43   C51   A    
C65   C69   A    
C4    H4    S    
C89   H49   S    
C87   I7    S    
N9    N17   A    
C67   C71   A    
C14   C78   A    
N18   Ni6   S    
C69   C70   A    
N8    Ni8   S    
C77   H41   S    
N15   Ni8   S    
C74   N10   A    
C1    N1    A    
C63   C64   A    
C3    C99   A    
C40   C44   A    
C6    C90   A    
C2    C98   A    
C71   H31   S    
C69   H29   S    
C22   C26   A    
C76   N12   A    
C13   C85   A    
C27   C28   A    
C34   C58   A    
C2    H2    S    
C41   C98   S    
N12   Ni3   S    
C53   H21   S    
N16   Ni7   S    
C51   C53   A    
N4    N32   A    
C45   N5    A    
C5    C89   A    
C9    C81   A    
C2    N2    A    
C20   C31   S    
C17   C21   A    
