data_mof_unit_60397.cif
_audit_creation_date              2012-10-26T19:19:35-0400
_audit_creation_method            fapswitch 2.2
_symmetry_space_group_name_H-M    P1
_symmetry_Int_Tables_number       1
_space_group_crystal_system       triclinic
_cell_length_a                    15.899386
_cell_length_b                    10.958593
_cell_length_c                    9.735432
_cell_angle_alpha                 89.961563
_cell_angle_beta                  90.340312
_cell_angle_gamma                 90.383111
_cell_volume                      1696.18384502

loop_
_atom_site_label
_atom_site_type_symbol
_atom_type_description
_atom_site_fract_x
_atom_site_fract_y
_atom_site_fract_z
_atom_type_partial_charge
C1    C     C_R   0.503217 0.265625 0.500190 0.582964
C2    C     C_2   0.491019 0.865769 0.498154 0.445525
C3    C     C_2   0.507963 0.065358 0.390794 0.375664
C4    C     C_R   0.340369 0.499934 0.499718 0.547382
C5    C     C_2   0.517581 0.135071 0.503167 0.415953
C6    C     C_2   0.446742 0.438045 0.923051 0.609853
C7    C     C_2   0.457666 0.421091 0.077380 0.474470
C8    C     C_R   0.499446 0.734387 0.499707 0.581669
C9    C     C_R   0.659637 0.500120 0.500268 0.525673
C10   C     C_3   0.048712 0.427510 0.624248 0.488794
C11   C     C_3   0.048756 0.439248 0.364670 0.131870
C12   C     C_3   0.950427 0.427645 0.622726 -0.215399
C13   C     C_3   0.950236 0.437711 0.364210 0.504348
C14   C     C_1   0.749212 0.500418 0.500708 0.080510
C15   C     C_3   0.083001 0.501859 0.498235 -0.027146
C16   C     C_3   0.916976 0.501550 0.497536 -0.089058
C17   C     C_3   0.951715 0.635635 0.511211 0.576343
C18   C     C_3   0.050276 0.636060 0.502912 0.711949
C19   C     C_1   0.824679 0.500828 0.499837 0.085913
C20   C     C_1   0.175337 0.500920 0.498633 0.189224
C21   C     C_1   0.250800 0.500343 0.499012 0.136836
C22   C     C_2   0.523612 0.933500 0.395623 0.271882
Cu1   Cu    Cu3+1 0.500020 0.500020 0.638630 1.208908
Cu2   Cu    Cu3+1 0.499980 0.499980 0.361370 1.257101
F1    F     F_    0.442312 0.916278 0.597422 -0.545659
F2    F     F_    0.928867 0.679937 0.639219 -0.525332
F3    F     F_    0.485359 0.114226 0.267675 -0.582906
F4    F     F_    0.547880 0.086940 0.622556 -0.565596
F5    F     F_    0.379496 0.383529 0.861311 -0.589584
F6    F     F_    0.075054 0.307426 0.613120 -0.520701
F7    F     F_    0.504180 0.612210 0.102804 -0.474896
F8    F     F_    0.923600 0.316396 0.363105 -0.579004
F9    F     F_    0.084239 0.696852 0.615429 -0.497692
F10   F     F_    0.077884 0.699489 0.388077 -0.499229
H1    H     H_    0.926346 0.332125 0.617944 0.241447
H2    H     H_    0.859917 0.467350 0.231816 0.374689
H3    H     H_    0.924962 0.465165 0.720044 0.176011
H4    H     H_    0.071567 0.343061 0.364064 0.221181
H5    H     H_    0.048821 0.544576 0.778177 0.378541
H6    H     H_    0.937634 0.696717 0.321716 0.392670
H7    H     H_    0.589385 0.942911 0.228425 0.387633
H8    H     H_    0.602832 0.579255 0.839991 0.386388
H9    H     H_    0.394357 0.269364 0.070380 0.383848
H10   H     H_    0.074078 0.439980 0.169409 0.389167
N1    N     N_2   0.499090 0.498660 0.846910 -0.054490
N2    N     N_2   0.499070 0.498630 0.153040 0.077536
O1    O     O_R   0.500010 0.321960 0.617040 -0.447581
O2    O     O_3   0.914835 0.714534 0.413746 -0.532620
O3    O     O_3   0.569172 0.878614 0.292156 -0.627002
O4    O     O_3   0.574019 0.524049 0.904958 -0.561983
O5    O     O_3   0.420320 0.322560 0.141304 -0.606126
O6    O     O_3   0.080692 0.497992 0.247114 -0.582360
O7    O     O_3   0.919075 0.494633 0.244784 -0.618924
O8    O     O_R   0.499990 0.321920 0.382900 -0.460840
O9    O     O_R   0.379450 0.500030 0.617120 -0.443214
O10   O     O_R   0.379420 0.499980 0.382980 -0.487364
O11   O     O_R   0.500010 0.678080 0.617100 -0.483203
O12   O     O_R   0.499990 0.678040 0.382960 -0.434225
O13   O     O_R   0.620580 0.500020 0.617020 -0.531894
O14   O     O_R   0.620550 0.499970 0.382880 -0.486178
O15   O     O_3   0.081631 0.472534 0.749368 -0.541740

loop_
_geom_bond_atom_site_label_1
_geom_bond_atom_site_label_2
_ccdc_geom_bond_type
C2    C22   D    
C11   H4    S    
Cu1   Cu2   S    
Cu1   O9    S    
C6    C7    S    
Cu1   N1    S    
C6    N1    D    
C8    O11   A    
Cu2   O10   S    
C5    F4    S    
C11   C13   S    
C10   F6    S    
C13   F8    S    
C17   O2    S    
Cu2   O14   S    
C9    C14   S    
C9    O14   A    
Cu2   N2    S    
H10   O6    S    
C3    F3    S    
C17   C18   S    
C7    O5    S    
C4    O10   A    
C12   H1    S    
Cu1   O13   S    
C4    C21   S    
C18   F10   S    
H9    O5    S    
C10   C12   S    
N1    O4    S    
H8    O4    S    
C1    O8    A    
C1    C5    S    
C17   F2    S    
H7    O3    S    
C2    F1    S    
C13   O7    S    
C10   C15   S    
C22   O3    S    
C4    O9    A    
C16   C19   S    
C15   C20   S    
C15   C18   S    
C18   F9    S    
C10   O15   S    
Cu1   O1    S    
C11   O6    S    
Cu2   O8    S    
C7    N2    D    
C3    C5    D    
C6    F5    S    
C20   C21   T    
Cu2   O12   S    
C13   C16   S    
C12   H3    S    
Cu1   O11   S    
H6    O2    S    
C1    O1    A    
C3    C22   S    
H2    O7    S    
C8    O12   A    
H5    O15   S    
C11   C15   S    
C14   C19   T    
C2    C8    S    
C12   C16   S    
C16   C17   S    
C9    O13   A    
F7    N2    S    
