data_mof_unit_44181.cif
_audit_creation_date              2013-03-05T16:43:53-0500
_audit_creation_method            fapswitch 2.2
_symmetry_space_group_name_H-M    P1
_symmetry_Int_Tables_number       1
_space_group_crystal_system       triclinic
_cell_length_a                    9.878357
_cell_length_b                    10.804618
_cell_length_c                    16.737655
_cell_angle_alpha                 90.24206
_cell_angle_beta                  84.520351
_cell_angle_gamma                 90.147217
_cell_volume                      1778.25748598

loop_
_atom_site_label
_atom_site_type_symbol
_atom_site_description
_atom_site_fract_x
_atom_site_fract_y
_atom_site_fract_z
_atom_type_partial_charge
O1    O     O_R   0.385310 0.683210 0.499990 -0.598907
O2    O     O_R   0.614650 0.683240 0.500000 -0.583943
C1    C     C_R   0.500943 0.739905 0.499538 0.939590
O3    O     O_R   0.371780 0.500000 0.615800 -0.639132
O4    O     O_R   0.601120 0.500040 0.615800 -0.599511
C2    C     C_R   0.480232 0.492076 0.652833 0.899807
Zn1   Zn    Zn3+2 0.346870 0.499980 0.499990 1.015032
Zn2   Zn    Zn3+2 0.653130 0.500020 0.500010 1.070693
O5    O     O_R   0.385350 0.316760 0.500000 -0.636031
O6    O     O_R   0.614690 0.316790 0.500010 -0.591831
O7    O     O_R   0.398880 0.499960 0.384200 -0.584474
O8    O     O_R   0.628220 0.500000 0.384200 -0.549750
C3    C     C_R   0.499496 0.260914 0.502628 0.939823
C4    C     C_R   0.519527 0.505286 0.346492 0.969838
C5    C     C_R   0.462843 0.457972 0.737127 -0.152915
C6    C     C_R   0.547354 0.369104 0.768667 0.259180
C7    C     C_R   0.522841 0.335151 0.848643 -0.175574
C8    C     C_R   0.413962 0.386404 0.896891 -0.076767
C9    C     C_R   0.321222 0.466229 0.863930 0.312776
C10   C     C_R   0.348275 0.502594 0.784165 -0.293949
C11   C     C_R   0.410075 0.589970 0.145642 0.280006
C12   C     C_R   0.427471 0.596531 0.227430 0.197744
C13   C     C_R   0.623157 0.458473 0.206598 0.270162
C14   C     C_R   0.601849 0.449344 0.125799 -0.154651
C15   C     C_R   0.492854 0.510522 0.096553 0.010630
C16   C     C_2   0.424233 0.387006 0.983167 0.325508
C17   C     C_2   0.468389 0.493819 0.013309 -0.240779
C18   C     C_R   0.528591 0.523857 0.259186 -0.307676
H1    H     H_    0.486415 0.574113 0.974635 0.176261
H2    H     H_    0.280059 0.566421 0.758530 0.196827
H3    H     H_    0.593591 0.274064 0.874577 0.208428
H4    H     H_    0.670803 0.395145 0.085360 0.206226
C19   C     C_R   0.384034 0.938565 0.502368 0.022190
C20   C     C_R   0.504606 0.871884 0.499939 -0.168988
C21   C     C_R   0.628570 0.939577 0.500943 0.282186
C22   C     C_R   0.624542 0.067638 0.504738 -0.162158
H5    H     H_    0.719448 0.117479 0.505843 0.228372
C23   C     C_R   0.500520 0.130364 0.506336 -0.116576
C24   C     C_R   0.382203 0.062267 0.508185 0.058960
C25   C     C_3   0.231556 0.073265 0.512989 -0.475890
C26   C     C_3   0.232172 0.931054 0.504801 0.148324
H6    H     H_    0.188186 0.106412 0.572966 0.195716
H7    H     H_    0.196603 0.124616 0.461395 0.245806
H8    H     H_    0.183971 0.880907 0.558078 0.106456
C27   C     C_R   0.922149 0.587215 0.542675 0.263951
N1    N     N_R   0.857140 0.500860 0.500530 -0.145615
C28   C     C_R   0.937326 0.417918 0.454429 0.334124
C29   C     C_R   0.080537 0.419536 0.453816 -0.110813
H9    H     H_    0.141595 0.352893 0.418030 0.184393
N2    N     N_R   0.142780 0.500820 0.500530 -0.136423
C30   C     C_R   0.064498 0.586827 0.542906 0.275177
C31   C     C_3   0.056306 0.606586 0.631331 -0.518547
C32   C     C_3   0.902688 0.607213 0.631298 -0.460864
H10   H     H_    0.094680 0.526088 0.663569 0.230580
H11   H     H_    0.098831 0.697709 0.647337 0.215931
H12   H     H_    0.852841 0.527499 0.663949 0.249468
H13   H     H_    0.856528 0.698753 0.647348 0.237236
Br1   Br    Br    0.694184 0.286842 0.706089 -0.498117
Br2   Br    Br    0.809028 0.872027 0.495912 -0.402268
N3    N     N_R   0.187021 0.888950 0.428471 0.292958
O9    O     O_R   0.220610 0.948957 0.362174 -0.250030
O10   O     O_R   0.108738 0.792408 0.426886 -0.299909
Br3   Br    Br    0.863553 0.288725 0.393940 -0.319257
N4    N     N_R   0.346068 0.680193 0.278069 0.257093
O11   O     O_R   0.214041 0.673497 0.282958 -0.231226
O12   O     O_R   0.404598 0.758190 0.323188 -0.343566
N5    N     N_R   0.743040 0.405068 0.233152 0.240773
O13   O     O_R   0.833730 0.478460 0.259390 -0.277313
O14   O     O_R   0.779161 0.294079 0.209475 -0.281641
N6    N     N_R   0.203693 0.514431 0.911612 0.224078
O15   O     O_R   0.148997 0.453595 0.973495 -0.291777
O16   O     O_R   0.143445 0.613826 0.889428 -0.338643
Br4   Br    Br    0.273950 0.689166 0.100821 -0.201838
N7    N     N_R   0.393830 0.276696 0.029973 0.252116
O17   O     O_R   0.359218 0.283031 0.106872 -0.301501
O18   O     O_R   0.382566 0.170921 0.993704 -0.305576

loop_
_geom_bond_atom_site_label_1
_geom_bond_atom_site_label_2
_geom_bond_distance
_ccdc_geom_bond_type
C4    C18   1.470039 S    
C17   H1    1.088714 S    
C21   C22   1.385337 A    
C8    C16   1.457226 S    
C10   H2    1.083465 S    
C27   N1    1.363249 A    
Zn1   O7    1.956998 S    
C16   C17   1.345805 D    
C19   C24   1.339731 A    
N7    O18   1.301304 A    
N3    O10   1.298575 A    
C22   H5    1.081618 S    
C8    C9    1.411425 A    
C28   Br3   1.904832 S    
C23   C24   1.377391 A    
O7    C4    1.295508 A    
C27   C30   1.406557 A    
C5    C6    1.410732 A    
C11   Br4   1.930432 S    
C21   Br2   1.922256 S    
C20   C21   1.426181 A    
C13   N5    1.427990 S    
O5    C3    1.284769 A    
C2    C5    1.453831 S    
C25   H7    1.111206 S    
C9    C10   1.394256 A    
C6    C7    1.388109 A    
C13   C14   1.391443 A    
N6    O15   1.301494 A    
C31   H11   1.111178 S    
C25   H6    1.111382 S    
C27   C32   1.492295 S    
C12   C18   1.416280 A    
C11   C12   1.397362 A    
O3    Zn1   1.977115 S    
C31   H10   1.111776 S    
C19   C20   1.390775 A    
C5    C10   1.400922 A    
N7    O17   1.301378 A    
C30   C31   1.489021 S    
C14   C15   1.393865 A    
Zn1   N2    2.015274 S    
O3    C2    1.291141 A    
C24   C25   1.487660 S    
C32   H13   1.111307 S    
C1    C20   1.426352 S    
N2    C30   1.363077 A    
N5    O13   1.301076 A    
N3    O9    1.302474 A    
N5    O14   1.301388 A    
N4    O12   1.300108 A    
C14   H4    1.084280 S    
C28   C29   1.413807 A    
Zn2   O8    1.977115 S    
C7    C8    1.396082 A    
C6    Br1   1.923402 S    
C13   C18   1.409812 A    
C3    C23   1.412276 S    
C25   C26   1.542035 S    
O8    C4    1.297883 A    
C7    H3    1.084077 S    
C26   H8    1.112258 S    
C31   C32   1.517576 S    
C32   H12   1.110557 S    
Zn1   O5    2.016749 S    
C11   C15   1.396408 A    
N1    C28   1.380942 A    
C29   H9    1.081958 S    
O1    Zn1   2.014859 S    
O2    Zn2   2.016748 S    
C26   N3    1.463204 S    
O6    C3    1.283916 A    
O4    Zn2   1.956998 S    
C15   C17   1.447149 S    
C19   C26   1.498809 S    
N4    O11   1.300799 A    
C22   C23   1.399587 A    
O2    C1    1.281322 A    
O4    C2    1.294689 A    
C29   N2    1.357912 A    
C16   N7    1.444154 S    
Zn2   N1    2.016130 S    
C12   N4    1.431498 S    
Zn2   O6    2.014860 S    
C9    N6    1.441776 S    
N6    O16   1.301631 A    
O1    C1    1.294168 A    
