data_mof_unit_22091.cif
_audit_creation_date              2012-12-11T14:21:16-0500
_audit_creation_method            fapswitch 2.2
_symmetry_space_group_name_H-M    P1
_symmetry_Int_Tables_number       1
_space_group_crystal_system       triclinic
_cell_length_a                    11.528068
_cell_length_b                    11.448493
_cell_length_c                    19.474319
_cell_angle_alpha                 91.204331
_cell_angle_beta                  90.126753
_cell_angle_gamma                 60.651558
_cell_volume                      2239.73791019

loop_
_atom_site_label
_atom_site_type_symbol
_atom_type_description
_atom_site_fract_x
_atom_site_fract_y
_atom_site_fract_z
_atom_type_partial_charge
Br1   Br    Br    0.559547 0.429039 0.377009 -0.511418
C1    C     C_R   0.640378 0.118299 0.598964 0.549328
C2    C     C_1   0.652095 0.151385 0.668502 0.007238
C3    C     C_R   0.644414 0.713299 0.180967 -0.003446
C4    C     C_R   0.612046 0.746162 0.598572 0.561612
C5    C     C_R   0.511579 0.786895 0.204091 0.046214
C6    C     C_R   0.488131 0.798434 0.275924 0.011298
C7    C     C_R   0.722806 0.729414 0.293130 -0.127264
C8    C     C_R   0.747010 0.692357 0.225088 -0.150525
C9    C     C_R   0.401869 0.838267 0.158225 0.051727
C10   C     C_R   0.278607 0.860443 0.182499 -0.092100
C11   C     C_R   0.261351 0.845917 0.251580 -0.150332
C12   C     C_1   0.640476 0.704473 0.667957 0.006764
C13   C     C_R   0.360541 0.825469 0.298495 -0.095645
C14   C     C_R   0.595798 0.775985 0.320787 0.006134
C15   C     C_R   0.054996 0.258475 0.206388 -0.005863
C16   C     C_R   0.299149 0.120501 0.605371 0.555526
C17   C     C_R   0.122612 0.322881 0.235447 0.039024
C18   C     C_R   0.209787 0.259334 0.289238 0.024559
C19   C     C_R   0.097509 0.129707 0.309984 -0.141269
C20   C     C_R   0.037733 0.166529 0.245692 -0.145970
C21   C     C_R   0.114261 0.442648 0.210269 -0.088120
C22   C     C_R   0.204798 0.483129 0.229152 -0.146185
C23   C     C_1   0.148493 0.186864 0.863583 -0.003906
C24   C     C_R   0.304567 0.406806 0.273706 -0.109886
C25   C     C_R   0.311796 0.292061 0.301000 -0.076300
C26   C     C_R   0.189965 0.168873 0.330466 0.001608
C27   C     C_R   0.675140 0.187975 0.196501 -0.038226
C28   C     C_R   0.650152 0.113871 0.404361 0.557980
C29   C     C_R   0.746375 0.056648 0.222224 0.009678
C30   C     C_R   0.772942 0.041723 0.292736 0.003415
C31   C     C_R   0.623273 0.278104 0.314065 0.093574
C32   C     C_R   0.619838 0.297944 0.243222 -0.146001
C33   C     C_R   0.808416 0.941581 0.178562 -0.070271
C34   C     C_1   0.229950 0.144530 0.735942 -0.028976
C35   C     C_R   0.918701 0.825706 0.200871 -0.126307
C36   C     C_R   0.959280 0.818050 0.268630 -0.160169
C37   C     C_R   0.887118 0.924282 0.314383 -0.097594
C38   C     C_R   0.688571 0.147672 0.338493 0.011964
C39   C     C_R   0.085419 0.228934 0.929554 0.555260
C40   C     C_R   0.580320 0.802686 0.395137 0.560387
C41   C     C_R   0.684124 0.604722 0.929680 0.534682
C42   C     C_R   0.708557 0.205558 0.930460 0.543944
C43   C     C_R   0.019630 0.273897 0.133208 0.554543
C44   C     C_R   0.679097 0.621166 0.122099 0.525932
C45   C     C_1   0.190217 0.162876 0.805462 -0.030083
C46   C     C_R   0.707214 0.210997 0.126920 0.525432
C47   C     C_R   0.250279 0.137898 0.398859 0.532852
C48   C     C_1   0.670828 0.647033 0.860396 0.004924
C49   C     C_1   0.654263 0.684440 0.728486 -0.029751
C50   C     C_1   0.663525 0.667422 0.799885 -0.029774
C51   C     C_3   0.408604 0.887318 0.087216 -0.269491
C52   C     C_3   0.428914 0.009382 0.092641 -0.428298
C53   C     C_1   0.260800 0.133199 0.676171 0.000945
C54   C     C_1   0.679180 0.188814 0.861162 0.004060
C55   C     C_1   0.657801 0.167900 0.729152 -0.030351
C56   C     C_1   0.665653 0.179455 0.800589 -0.030777
Cr1   Cr    Cr6+3 0.404720 0.198220 0.499960 1.058607
Cr2   Cr    Cr6+3 0.698290 0.897110 0.500380 1.028631
Cr3   Cr    Cr6+3 0.396970 0.904720 0.499610 1.037297
Cr4   Cr    Cr6+3 0.926180 0.151990 0.028120 1.007669
Cr5   Cr    Cr6+3 0.921330 0.451820 0.027470 1.005053
Cr6   Cr    Cr6+3 0.626260 0.446870 0.028710 1.018968
H1    H     H_    0.807363 0.708885 0.325087 0.160771
H2    H     H_    0.848007 0.637238 0.208408 0.124710
H3    H     H_    0.194348 0.893019 0.148510 0.126807
H4    H     H_    0.166245 0.862308 0.269879 0.116108
H5    H     H_    0.333497 0.827981 0.351322 0.176406
H6    H     H_    0.076805 0.065811 0.342041 0.121588
H7    H     H_    0.040568 0.506635 0.174775 0.138090
H8    H     H_    0.979162 0.122637 0.226412 0.144863
H9    H     H_    0.347623 0.090565 0.123813 0.183573
H10   H     H_    0.526016 0.982280 0.116785 0.139874
H11   H     H_    0.428011 0.047351 0.040529 0.145035
H12   H     H_    0.200200 0.571596 0.207493 0.110970
H13   H     H_    0.488504 0.809140 0.054716 0.164404
H14   H     H_    0.314333 0.917453 0.059137 0.150075
H15   H     H_    0.373474 0.440078 0.287525 0.170119
H16   H     H_    0.396581 0.229955 0.331444 0.157066
H17   H     H_    0.778548 0.944120 0.125605 0.124700
H18   H     H_    0.578415 0.399324 0.225001 0.166749
H19   H     H_    0.972855 0.742524 0.165281 0.096807
H20   H     H_    0.045905 0.729735 0.286513 0.121484
H21   H     H_    0.926929 0.915942 0.365449 0.147812
O1    O     O_R   0.267740 0.231960 0.575440 -0.486436
O2    O     O_R   0.596130 0.579390 0.952730 -0.512973
O3    O     O_R   0.639060 0.321160 0.958670 -0.488494
O4    O     O_R   0.527280 0.186640 0.570530 -0.498260
O5    O     O_R   0.821240 0.124200 0.104370 -0.531480
O6    O     O_R   0.036890 0.167040 0.097840 -0.504630
O7    O     O_R   0.056180 0.349610 0.102880 -0.531057
O8    O     O_R   0.797660 0.564870 0.097950 -0.533874
O9    O     O_R   0.595880 0.584250 0.104270 -0.513706
O10   O     O_R   0.638830 0.325670 0.099150 -0.495887
O11   O     O_3   0.824590 0.350230 0.028100 -0.262554
O12   O     O_R   0.685970 0.784660 0.430010 -0.490416
O13   O     O_R   0.728090 0.003450 0.576380 -0.500956
O14   O     O_R   0.682970 0.789190 0.570490 -0.487356
O15   O     O_R   0.499290 0.771880 0.575530 -0.496599
O16   O     O_R   0.285330 0.030870 0.569730 -0.484088
O17   O     O_R   0.270980 0.227080 0.423890 -0.502117
O18   O     O_R   0.530280 0.182120 0.430050 -0.481371
O19   O     O_R   0.731330 0.998570 0.424830 -0.540055
O20   O     O_R   0.502530 0.767000 0.423990 -0.484021
O21   O     O_R   0.288330 0.026350 0.429250 -0.531389
O22   O     O_3   0.499990 0.000020 0.499980 -0.312095
O23   O     O_R   0.821500 0.119340 0.952830 -0.507422
O24   O     O_R   0.037130 0.162530 0.957360 -0.490497
O25   O     O_R   0.056440 0.344740 0.951340 -0.498638
O26   O     O_R   0.797900 0.560360 0.957470 -0.494171

loop_
_geom_bond_atom_site_label_1
_geom_bond_atom_site_label_2
_ccdc_geom_bond_type
C26   C47   S    
C27   C46   S    
C15   C20   A    
C52   H11   S    
Cr3   O15   S    
C9    C51   S    
C43   O6    A    
C51   C52   S    
Cr6   O10   S    
C20   H8    S    
C16   O1    A    
C35   C36   A    
C29   C30   A    
C40   O12   A    
Cr6   O11   S    
C55   C56   S    
C28   O19   A    
C17   C18   A    
C31   C38   A    
C18   C25   A    
C44   O8    A    
Cr4   O24   S    
C33   H17   S    
C6    C13   A    
C4    O15   A    
C1    O13   A    
C35   H19   S    
C7    C8    A    
C48   C50   T    
Cr5   O8    S    
C1    O4    A    
C41   O2    A    
C18   C26   A    
C15   C43   S    
C4    C12   S    
C10   H3    S    
C39   O24   A    
C37   H21   S    
C6    C14   A    
C44   O9    A    
Cr5   O11   S    
C34   C53   T    
C46   O5    A    
Cr4   O5    S    
C3    C44   S    
C11   H4    S    
Cr2   O22   S    
C29   C33   A    
C24   H15   S    
C14   C40   S    
C3    C5    A    
Cr3   O16   S    
C24   C25   A    
Br1   C31   S    
Cr1   O22   S    
C36   C37   A    
C2    C55   T    
C47   O21   A    
Cr5   O26   S    
Cr5   O7    S    
C28   C38   S    
C49   C50   S    
Cr1   O17   S    
C42   O23   A    
C4    O14   A    
C39   O25   A    
C43   O7    A    
C7    H1    S    
Cr1   O18   S    
C42   C54   S    
C11   C13   A    
C27   C32   A    
C7    C14   A    
C54   C56   T    
Cr6   O2    S    
Cr2   O13   S    
C19   H6    S    
Cr2   O12   S    
C51   H14   S    
Cr1   O1    S    
Cr3   O22   S    
Cr4   O6    S    
Cr6   O3    S    
C17   C21   A    
C52   H10   S    
C22   H12   S    
C51   H13   S    
Cr1   O4    S    
C5    C9    A    
C10   C11   A    
Cr4   O11   S    
C30   C37   A    
C5    C6    A    
C19   C26   A    
Cr6   O9    S    
C25   H16   S    
C40   O20   A    
Cr2   O19   S    
C31   C32   A    
C27   C29   A    
C1    C2    S    
C41   O26   A    
C42   O3    A    
C34   C45   S    
Cr5   O25   S    
C47   O17   A    
C23   C39   S    
C46   O10   A    
C30   C38   A    
C28   O18   A    
C33   C35   A    
C22   C24   A    
Cr4   O23   S    
C16   O16   A    
C8    H2    S    
C9    C10   A    
C41   C48   S    
C12   C49   T    
C19   C20   A    
C15   C17   A    
Cr2   O14   S    
C13   H5    S    
C21   C22   A    
C36   H20   S    
C3    C8    A    
Cr3   O20   S    
C52   H9    S    
C32   H18   S    
C16   C53   S    
C21   H7    S    
Cr3   O21   S    
C23   C45   T    
