data_mof_unit_36424.cif
_audit_creation_date              2012-12-11T16:35:19-0500
_audit_creation_method            fapswitch 2.2
_symmetry_space_group_name_H-M    P1
_symmetry_Int_Tables_number       1
_space_group_crystal_system       triclinic
_cell_length_a                    6.93414
_cell_length_b                    17.636818
_cell_length_c                    19.510689
_cell_angle_alpha                 109.067359
_cell_angle_beta                  90.051281
_cell_angle_gamma                 90.881078
_cell_volume                      2254.85958261

loop_
_atom_site_label
_atom_site_type_symbol
_atom_type_description
_atom_site_fract_x
_atom_site_fract_y
_atom_site_fract_z
_atom_type_partial_charge
O1    O     O_R   0.505700 0.440210 0.561730 -0.546065
O2    O     O_R   0.169350 0.406300 0.412660 -0.528122
O3    O     O_R   0.005650 0.559790 0.438270 -0.519602
C1    C     C_R   0.337760 0.384036 0.384330 0.809739
O4    O     O_R   0.175560 0.430650 0.559600 -0.549157
O5    O     O_R   0.011900 0.584320 0.586250 -0.542019
C2    C     C_R   0.343939 0.415185 0.580789 0.675153
O6    O     O_R   0.499450 0.415680 0.413750 -0.537194
O7    O     O_3   0.341370 0.550390 0.508570 -0.356688
V1    V     V_3+5 0.063940 0.490650 0.498410 1.474723
O8    O     O_R   0.682570 0.593700 0.587340 -0.540822
C3    C     C_R   0.852632 0.617062 0.614498 0.674223
O9    O     O_R   0.676370 0.569350 0.440400 -0.530120
C4    C     C_R   0.846299 0.585895 0.420326 0.701180
V2    V     V_3+5 0.564750 0.509350 0.501590 1.480181
O10   O     O_3   0.837190 0.449610 0.491430 -0.375796
C5    C     C_R   0.021694 0.736934 0.330533 -0.087779
H1    H     H_    0.132502 0.782976 0.337965 0.148030
C6    C     C_R   0.006458 0.696174 0.381274 0.342500
C7    C     C_R   0.859806 0.636249 0.372520 -0.148853
C8    C     C_R   0.729562 0.621375 0.314222 -0.183248
H2    H     H_    0.617729 0.575694 0.305922 0.157367
C9    C     C_R   0.745418 0.663306 0.264723 -0.102151
H3    H     H_    0.645024 0.649629 0.219753 0.186905
C10   C     C_R   0.891725 0.721248 0.272215 0.054677
C11   C     C_R   0.742624 0.814497 0.215973 -0.233181
H4    H     H_    0.615633 0.813766 0.248067 0.155465
C12   C     C_R   0.745873 0.861746 0.169894 0.382136
C13   C     C_R   0.914894 0.865557 0.130296 -0.141974
C14   C     C_R   0.073882 0.819400 0.136444 -0.275441
H5    H     H_    0.203039 0.819410 0.105281 0.195039
C15   C     C_R   0.066673 0.770353 0.180303 0.303916
C16   C     C_R   0.901576 0.768852 0.221801 0.010829
C17   C     C_R   0.824363 0.907466 0.751947 -0.157670
C18   C     C_R   0.774894 0.922332 0.688352 -0.077529
C19   C     C_R   0.755520 0.859201 0.623643 -0.088476
C20   C     C_R   0.785332 0.780758 0.622100 -0.141077
C21   C     C_R   0.834212 0.763750 0.685992 0.070485
C22   C     C_R   0.853908 0.828181 0.752358 0.040980
C23   C     C_R   0.866732 0.684213 0.684141 -0.135577
C24   C     C_R   0.917718 0.668477 0.748558 0.015112
C25   C     C_R   0.935315 0.732266 0.815982 -0.024636
C26   C     C_R   0.904408 0.812968 0.817288 -0.157190
C27   C     C_R   0.948273 0.588822 0.746564 -0.195078
C28   C     C_R   0.996816 0.571171 0.808367 -0.247415
C29   C     C_R   0.013062 0.631957 0.875283 0.352432
C30   C     C_R   0.979930 0.712624 0.879936 0.328770
H6    H     H_    0.839876 0.959059 0.800480 0.108448
H7    H     H_    0.752136 0.983250 0.689293 0.165839
H8    H     H_    0.717982 0.871054 0.574275 0.135616
H9    H     H_    0.770209 0.733820 0.570225 0.092491
H10   H     H_    0.934141 0.538485 0.696987 0.130280
H11   H     H_    0.020019 0.509172 0.804023 0.137554
H12   H     H_    0.336298 0.479325 0.167896 0.153470
C31   C     C_R   0.357108 0.220803 0.382669 -0.141971
C32   C     C_R   0.374437 0.143058 0.385305 0.421944
C33   C     C_R   0.404760 0.079640 0.320952 -0.208135
C34   C     C_R   0.418641 0.094136 0.255097 -0.194022
C35   C     C_R   0.403301 0.172422 0.251348 0.070354
C36   C     C_R   0.370150 0.237134 0.316355 -0.027311
C37   C     C_R   0.420400 0.186403 0.184085 -0.140924
C38   C     C_R   0.399806 0.265533 0.181868 0.004357
C39   C     C_R   0.362046 0.331073 0.246645 0.046308
C40   C     C_R   0.350042 0.316441 0.314480 -0.162888
C41   C     C_R   0.414713 0.280202 0.115099 -0.109815
C42   C     C_R   0.393491 0.356721 0.111092 -0.098673
C43   C     C_R   0.354204 0.420488 0.172997 -0.190745
C44   C     C_R   0.336131 0.409181 0.240867 0.321165
H13   H     H_    0.332060 0.268094 0.433424 0.104504
H14   H     H_    0.417830 0.018773 0.321653 0.117713
H15   H     H_    0.441738 0.043338 0.207014 0.157120
H16   H     H_    0.443525 0.232552 0.065027 0.134453
H17   H     H_    0.406181 0.366540 0.059301 0.169191
C45   C     C_R   0.528244 0.274939 0.677420 -0.043557
H18   H     H_    0.657513 0.241334 0.677707 0.166491
C46   C     C_R   0.518846 0.321432 0.631493 -0.155773
H19   H     H_    0.641506 0.322708 0.597526 0.131912
C47   C     C_R   0.352426 0.365039 0.628879 -0.044177
C48   C     C_R   0.195904 0.361245 0.673543 -0.160192
H20   H     H_    0.066141 0.394469 0.673114 0.116415
C49   C     C_R   0.207324 0.316316 0.720847 -0.085849
H21   H     H_    0.087070 0.316545 0.756295 0.148590
C50   C     C_R   0.373124 0.272159 0.722963 0.176042
C51   C     C_R   0.249848 0.165482 0.773413 0.246121
C52   C     C_R   0.266375 0.122006 0.821453 -0.198347
H22   H     H_    0.159560 0.075558 0.818643 0.169593
C53   C     C_R   0.419288 0.136022 0.871502 -0.183768
C54   C     C_R   0.558535 0.196558 0.873454 0.169922
C55   C     C_R   0.543740 0.240461 0.824016 0.334229
C56   C     C_R   0.387868 0.225394 0.774293 -0.060937
O11   O     O_R   0.273230 0.084330 0.086440 -0.541115
O12   O     O_R   0.596660 0.069390 0.940470 -0.521605
O13   O     O_R   0.760270 0.915710 0.913690 -0.544951
C57   C     C_R   0.428333 0.086138 0.920278 0.750584
O14   O     O_R   0.603330 0.093680 0.087390 -0.531050
O15   O     O_R   0.766990 0.940160 0.061660 -0.506672
C58   C     C_R   0.434624 0.116983 0.115205 0.690575
O16   O     O_R   0.266510 0.059870 0.938470 -0.544341
O17   O     O_3   0.431050 0.949630 0.991510 -0.362529
V3    V     V_3+5 0.708490 0.009340 0.001580 1.543392
O18   O     O_R   0.096270 0.930570 0.059390 -0.541494
C59   C     C_R   0.926852 0.916056 0.081772 0.789463
O19   O     O_R   0.089600 0.906290 0.912460 -0.530861
C60   C     C_R   0.919308 0.882273 0.885634 0.790072
V4    V     V_3+5 0.207670 0.990600 0.998190 1.505505
O20   O     O_3   0.935250 0.050360 0.008480 -0.362168
O21   O     O_3   0.987429 0.772451 0.946501 -0.658212
H23   H     H_    0.015026 0.749906 0.985575 0.329705
O22   O     O_3   0.360323 0.131130 0.451587 -0.631144
H24   H     H_    0.375573 0.073199 0.444334 0.296975
O23   O     O_3   0.134187 0.718449 0.439006 -0.636483
H25   H     H_    0.079049 0.703284 0.479540 0.282317
O24   O     O_3   0.289080 0.473537 0.300951 -0.651958
H26   H     H_    0.270731 0.521997 0.286629 0.293289
Br1   Br    Br    0.041030 0.136326 0.704462 -0.593738
Br2   Br    Br    0.757000 0.225625 0.947761 -0.570418
O25   O     O_3   0.674617 0.300547 0.824307 -0.638592
H27   H     H_    0.796213 0.293458 0.847718 0.338971
O26   O     O_3   0.586259 0.904868 0.163669 -0.649630
H28   H     H_    0.481178 0.895075 0.194352 0.281598
Br3   Br    Br    0.279419 0.701386 0.177027 -0.615927
O27   O     O_3   0.060013 0.613948 0.937075 -0.630659
H29   H     H_    0.078287 0.555298 0.924346 0.311078

loop_
_geom_bond_atom_site_label_1
_geom_bond_atom_site_label_2
_ccdc_geom_bond_type
C14   C15   A    
C31   C32   A    
C3    C23   S    
O18   C59   A    
O15   C59   A    
C24   C25   A    
O11   V4    S    
C6    C7    A    
C45   C50   A    
C1    O6    A    
C49   H21   S    
C28   C29   A    
C11   H4    S    
C38   C39   A    
O16   V4    S    
C45   C46   A    
C12   C13   A    
C20   C21   A    
C46   C47   A    
O5    C3    A    
C14   H5    S    
C20   H9    S    
C34   H15   S    
C57   O16   A    
V2    O10   S    
C53   C57   S    
C32   C33   A    
C17   C18   A    
C26   C60   S    
C39   C44   A    
O8    V2    S    
O23   H25   S    
C18   H7    S    
C9    H3    S    
O1    V2    S    
C33   H14   S    
O7    V1    S    
C44   O24   S    
C31   C36   A    
C54   C55   A    
C27   H10   S    
C42   C43   A    
C28   H11   S    
C35   C36   A    
O9    C4    A    
C51   C56   A    
O13   C60   A    
C49   C50   A    
C52   C53   A    
O18   V4    S    
O17   V4    S    
C35   C37   A    
C45   H18   S    
C43   C44   A    
C4    C7    S    
C51   C52   A    
O14   V3    S    
C48   C49   A    
C47   C48   A    
C22   C26   A    
H12   C43   S    
C34   C35   A    
C52   H22   S    
C42   H17   S    
O11   C58   A    
C17   C22   A    
C18   C19   A    
C54   Br2   S    
O2    C1    A    
C13   C14   A    
C11   C16   A    
O17   V3    S    
O21   H23   S    
O12   C57   A    
C5    H1    S    
O19   V4    S    
C46   H19   S    
O13   V3    S    
C31   H13   S    
O3    C4    A    
C2    C47   S    
C23   C24   A    
C55   O25   S    
O6    V2    S    
C30   O21   S    
C8    C9    A    
C24   C27   A    
C48   H20   S    
C17   H6    S    
C25   C26   A    
O2    V1    S    
C32   O22   S    
C19   H8    S    
C27   C28   A    
O12   V3    S    
O4    C2    A    
O24   H26   S    
C50   C56   S    
C29   C30   A    
C19   C20   A    
C38   C41   A    
O1    C2    A    
V3    O20   S    
C15   Br3   S    
C37   C58   S    
C12   O26   S    
O5    V1    S    
O26   H28   S    
O14   C58   A    
C6    O23   S    
C51   Br1   S    
C41   H16   S    
V4    O20   S    
C1    C40   S    
C11   C12   A    
C36   C40   A    
C5    C10   A    
C15   C16   A    
O9    V2    S    
O7    V2    S    
O4    V1    S    
O3    V1    S    
V1    O10   S    
O25   H27   S    
C21   C23   A    
C33   C34   A    
C21   C22   A    
O15   V3    S    
C5    C6    A    
C13   C59   S    
C25   C30   A    
C9    C10   A    
C37   C38   A    
C39   C40   A    
C7    C8    A    
C53   C54   A    
C41   C42   A    
O22   H24   S    
O19   C60   A    
O27   H29   S    
C29   O27   S    
C55   C56   A    
C8    H2    S    
O8    C3    A    
C10   C16   S    
