data_mof_unit_12182.cif
_audit_creation_date              2012-12-10T16:50:01-0500
_audit_creation_method            fapswitch 2.2
_symmetry_space_group_name_H-M    P1
_symmetry_Int_Tables_number       1
_space_group_crystal_system       triclinic
_cell_length_a                    7.873925
_cell_length_b                    8.566757
_cell_length_c                    10.718456
_cell_angle_alpha                 93.505778
_cell_angle_beta                  83.296207
_cell_angle_gamma                 93.7595
_cell_volume                      715.469669815

loop_
_atom_site_label
_atom_site_type_symbol
_atom_type_description
_atom_site_fract_x
_atom_site_fract_y
_atom_site_fract_z
_atom_type_partial_charge
C1    C     C_R   0.545454 0.794362 0.496069 0.952292
C2    C     C_R   0.454813 0.205490 0.500408 0.976536
C3    C     C_R   0.503438 0.510304 0.260824 0.872561
C4    C     C_R   0.170857 0.524113 0.922614 -0.196761
C5    C     C_R   0.048793 0.612059 0.995411 -0.169974
C6    C     C_R   0.089767 0.693355 0.105034 -0.124308
C7    C     C_R   0.247191 0.674353 0.147494 -0.157096
C8    C     C_R   0.366257 0.575891 0.077981 0.096313
C9    C     C_3   0.983686 0.691289 0.583947 -0.151124
C10   C     C_3   0.078231 0.774875 0.688705 -0.390643
C11   C     C_3   0.963073 0.884054 0.773936 -0.968473
C12   C     C_R   0.339178 0.523431 0.955893 0.115645
C13   C     C_R   0.482708 0.472960 0.874146 -0.119056
C14   C     C_R   0.628695 0.430598 0.923097 -0.238122
C15   C     C_R   0.636750 0.446698 0.050476 -0.230434
C16   C     C_R   0.507326 0.520674 0.127874 -0.122700
C17   C     C_2   0.569341 0.958075 0.495228 -0.381991
C18   C     C_2   0.432203 0.041498 0.493827 -0.397987
C19   C     C_R   0.494768 0.488634 0.739872 0.874018
H1    H     H_    0.736441 0.384455 0.863110 0.172645
H2    H     H_    0.916929 0.974214 0.717822 0.269768
H3    H     H_    0.850980 0.816901 0.821507 0.265687
H4    H     H_    0.036695 0.943901 0.847212 0.273439
H5    H     H_    0.123332 0.688839 0.746034 0.262037
H6    H     H_    0.188335 0.849531 0.650651 0.253521
H7    H     H_    0.985389 0.771803 0.506251 0.162607
H8    H     H_    0.854396 0.669568 0.629402 0.249243
H9    H     H_    0.130606 0.456234 0.841834 0.166241
H10   H     H_    0.924227 0.620688 0.964747 0.162122
H11   H     H_    0.997478 0.766059 0.159436 0.138949
H12   H     H_    0.274547 0.736245 0.234652 0.150584
H13   H     H_    0.744907 0.402179 0.088042 0.182533
H14   H     H_    0.698681 0.009656 0.499412 0.176024
H15   H     H_    0.303719 0.990105 0.486474 0.164776
H16   H     H_    0.007504 0.363676 0.418587 0.183210
N1    N     N_2   0.950330 0.457950 0.466250 -0.167891
N2    N     N_2   0.049670 0.542050 0.533750 -0.082272
O1    O     O_R   0.389250 0.738570 0.508280 -0.628918
O2    O     O_R   0.678390 0.711630 0.486650 -0.660345
O3    O     O_R   0.355400 0.513470 0.694050 -0.641590
O4    O     O_R   0.644540 0.486530 0.672420 -0.644492
O5    O     O_R   0.321610 0.288370 0.513350 -0.630914
O6    O     O_R   0.610750 0.261430 0.491720 -0.614063
O7    O     O_R   0.355460 0.513470 0.327580 -0.624998
O8    O     O_R   0.644600 0.486530 0.305950 -0.618295
Zn1   Zn    Zn3+2 0.306930 0.517990 0.514440 0.921933
Zn2   Zn    Zn3+2 0.693070 0.482010 0.485560 0.919764

loop_
_geom_bond_atom_site_label_1
_geom_bond_atom_site_label_2
_ccdc_geom_bond_type
C6    C7    A    
C2    C18   S    
O6    Zn2   S    
C9    C10   S    
C11   H3    S    
C1    C17   S    
H16   N1    S    
C2    O6    A    
C8    C12   A    
C9    N2    S    
C17   C18   D    
O4    Zn2   S    
C3    O8    A    
C7    C8    A    
C8    C16   A    
C13   C14   A    
O3    Zn1   S    
C18   H15   S    
C17   H14   S    
C1    O1    A    
C2    O5    A    
C10   H6    S    
C11   H4    S    
N1    N2    D    
C6    H11   S    
O7    Zn1   S    
C9    H7    S    
C5    H10   S    
C10   C11   S    
O8    Zn2   S    
C5    C6    A    
C3    O7    A    
O1    Zn1   S    
C4    C12   A    
C19   O3    A    
C1    O2    A    
C15   C16   A    
C14   H1    S    
C15   H13   S    
C7    H12   S    
C12   C13   A    
C9    H8    S    
N1    Zn2   S    
O2    Zn2   S    
O5    Zn1   S    
C13   C19   S    
C14   C15   A    
C10   H5    S    
N2    Zn1   S    
C4    H9    S    
C11   H2    S    
C3    C16   S    
C19   O4    A    
C4    C5    A    
