data_mof_unit_14671.cif
_audit_creation_date              2013-03-05T15:41:42-0500
_audit_creation_method            fapswitch 2.2
_symmetry_space_group_name_H-M    P1
_symmetry_Int_Tables_number       1
_space_group_crystal_system       triclinic
_cell_length_a                    6.939525
_cell_length_b                    13.651693
_cell_length_c                    20.39546
_cell_angle_alpha                 101.939578
_cell_angle_beta                  90.288222
_cell_angle_gamma                 90.670587
_cell_volume                      1890.20500395

loop_
_atom_site_label
_atom_site_type_symbol
_atom_site_description
_atom_site_fract_x
_atom_site_fract_y
_atom_site_fract_z
_atom_type_partial_charge
O1    O     O_R   0.506860 0.599390 0.449240 -0.547097
O2    O     O_R   0.180220 0.594600 0.586780 -0.570959
O3    O     O_R   0.004500 0.400610 0.550760 -0.567111
C1    C     C_R   0.349637 0.615471 0.613528 0.889815
O4    O     O_R   0.177490 0.611290 0.451970 -0.555017
O5    O     O_R   0.001750 0.417420 0.414990 -0.526264
C2    C     C_R   0.347024 0.637850 0.434849 0.932268
O6    O     O_R   0.509610 0.582580 0.585010 -0.559757
O7    O     O_3   0.337420 0.436370 0.488020 -0.246489
V1    V     V_3+5 0.064680 0.511800 0.502220 1.235827
O8    O     O_R   0.671710 0.405400 0.413220 -0.523917
C3    C     C_R   0.840135 0.383001 0.386833 0.902508
O9    O     O_R   0.674440 0.388710 0.548030 -0.565411
C4    C     C_R   0.843260 0.362130 0.564798 0.820648
V2    V     V_3+5 0.564010 0.488200 0.497780 1.258733
O10   O     O_3   0.841140 0.563630 0.511980 -0.279592
C5    C     C_R   0.967620 0.124255 0.617554 -0.034354
H1    H     H_    0.977380 0.176846 0.525860 0.107334
H2    H     H_    0.007445 0.001062 0.700840 0.095112
H3    H     H_    0.023795 0.051684 0.594251 0.118850
C6    C     C_R   0.855823 0.286485 0.606019 -0.098073
C7    C     C_R   0.829123 0.315415 0.930427 -0.135779
C8    C     C_R   0.825955 0.393421 0.895531 0.372288
C9    C     C_R   0.845009 0.370769 0.825540 -0.122685
C10   C     C_R   0.858111 0.270768 0.789179 -0.007367
C11   C     C_R   0.881091 0.194245 0.826332 0.012507
C12   C     C_R   0.864466 0.245010 0.717370 0.042432
C13   C     C_R   0.931187 0.148212 0.686457 0.061128
C14   C     C_R   0.961203 0.075595 0.724392 -0.078650
C15   C     C_R   0.929701 0.097127 0.792834 -0.079145
C16   C     C_R   0.806573 0.309859 0.674428 -0.099037
C17   C     C_R   0.938727 0.194692 0.578371 -0.071716
C18   C     C_R   0.860553 0.217031 0.896713 -0.141050
H4    H     H_    0.812938 0.331354 0.984405 0.128427
H5    H     H_    0.860809 0.432816 0.800833 0.123362
H6    H     H_    0.952445 0.037887 0.819772 0.079294
C19   C     C_2   0.009457 0.273330 0.290860 0.269842
C20   C     C_2   0.846655 0.318148 0.318638 -0.272361
H7    H     H_    0.714691 0.312871 0.289483 0.138725
C21   C     C_2   0.021435 0.220131 0.218786 0.287210
C22   C     C_2   0.864833 0.179346 0.182313 -0.309331
H8    H     H_    0.723396 0.186571 0.204848 0.123780
C23   C     C_2   0.197927 0.784545 0.782178 -0.058901
C24   C     C_2   0.357543 0.813318 0.820255 -0.198443
H9    H     H_    0.495561 0.783387 0.802439 0.111082
C25   C     C_2   0.202492 0.714634 0.715495 -0.090832
C26   C     C_2   0.362173 0.683434 0.680092 -0.136957
H10   H     H_    0.062870 0.688886 0.693714 0.103637
H11   H     H_    0.504733 0.707625 0.699020 0.079300
C27   C     C_R   0.475965 0.883443 0.386683 -0.115324
H12   H     H_    0.520091 0.004306 0.297639 0.111311
C28   C     C_R   0.362951 0.717991 0.396742 -0.169878
C29   C     C_R   0.311573 0.684457 0.072240 -0.129353
C30   C     C_R   0.316483 0.606922 0.108010 -0.102802
C31   C     C_R   0.356377 0.628138 0.177548 0.308499
C32   C     C_R   0.375029 0.729683 0.213281 -0.000731
C33   C     C_R   0.390140 0.805963 0.175185 -0.030620
C34   C     C_R   0.385317 0.758425 0.285267 0.071546
C35   C     C_R   0.447101 0.857083 0.316178 -0.016763
C36   C     C_R   0.475784 0.928067 0.276168 -0.060348
C37   C     C_R   0.441669 0.903928 0.207734 -0.060289
C38   C     C_R   0.327842 0.693860 0.327714 -0.108943
C39   C     C_R   0.440593 0.812398 0.426657 0.304794
C40   C     C_R   0.355946 0.783263 0.105033 -0.112283
H13   H     H_    0.255081 0.623604 0.308362 0.141047
H14   H     H_    0.460567 0.963098 0.180254 0.115928
O11   O     O_R   0.203230 0.917310 0.915020 -0.568955
O12   O     O_R   0.535500 0.888690 0.048040 -0.560412
O13   O     O_R   0.711080 0.082610 0.085000 -0.545470
C41   C     C_R   0.366426 0.862591 0.065544 0.824572
O14   O     O_R   0.532630 0.905370 0.913230 -0.542771
O15   O     O_R   0.708190 0.099410 0.949230 -0.561579
C42   C     C_R   0.363062 0.883503 0.886628 0.837235
O16   O     O_R   0.206120 0.900510 0.050790 -0.562368
O17   O     O_3   0.375360 0.063570 0.011990 -0.248223
V3    V     V_3+5 0.648170 0.988200 0.997780 1.212834
O18   O     O_R   0.038240 0.111390 0.951940 -0.562342
C43   C     C_R   0.869497 0.138908 0.936070 0.837539
O19   O     O_R   0.041120 0.094710 0.086750 -0.519083
C44   C     C_R   0.873573 0.115837 0.113660 0.878974
V4    V     V_3+5 0.148810 0.011930 0.002180 1.222808
O20   O     O_3   0.871750 0.936430 0.988010 -0.271130
N1    N     N_R   0.210107 0.208477 0.189805 0.134731
O21   O     O_R   0.260482 0.259202 0.145089 -0.283796
O22   O     O_R   0.335052 0.151499 0.210834 -0.374027
C45   C     C_1   0.008935 0.818975 0.804804 0.320533
N2    N     N_1   0.857303 0.846251 0.822700 -0.271265
N3    N     N_R   0.479233 0.836686 0.497670 0.073458
O23   O     O_R   0.351815 0.816612 0.539765 -0.392344
O24   O     O_R   0.643235 0.877406 0.520478 -0.360393
C46   C     C_1   0.538525 0.983765 0.418810 0.380627
N4    N     N_1   0.588342 0.063820 0.444436 -0.252732
C47   C     C_1   0.272428 0.661747 0.000616 0.357974
N5    N     N_1   0.241466 0.643737 0.943538 -0.225750
N6    N     N_R   0.406135 0.546341 0.208572 0.069885
O25   O     O_R   0.573836 0.545188 0.237238 -0.350607
O26   O     O_R   0.286144 0.471932 0.207049 -0.316581
C48   C     C_1   0.291720 0.503958 0.072311 0.464000
N7    N     N_1   0.271907 0.421901 0.043672 -0.219694
C49   C     C_1   0.678593 0.393259 0.696572 0.261078
N8    N     N_1   0.575744 0.459633 0.713881 -0.281108
N9    N     N_R   0.805187 0.495570 0.931065 0.090195
O27   O     O_R   0.797164 0.517105 0.996217 -0.376540
O28   O     O_R   0.790769 0.567875 0.898609 -0.354928
N10   N     N_R   0.182501 0.278863 0.330443 0.123176
O29   O     O_R   0.194582 0.229067 0.378217 -0.367728
O30   O     O_R   0.327858 0.333547 0.318663 -0.283398

loop_
_geom_bond_atom_site_label_1
_geom_bond_atom_site_label_2
_geom_bond_distance
_ccdc_geom_bond_type
C34   C38   1.412956 A    
C31   C32   1.430536 A    
C47   N5    1.157415 T    
C39   N3    1.440445 S    
C22   H8    1.082764 S    
N6    O25   1.301471 A    
C1    O6    1.297083 A    
C22   C44   1.488537 S    
V4    O20   2.160391 S    
C26   H11   1.082852 S    
O18   C43   1.293803 A    
N10   O30   1.300600 A    
C14   C15   1.384765 A    
C27   C35   1.420822 A    
C4    C6    1.463368 S    
C13   C14   1.394739 A    
C2    C28   1.470735 S    
C19   C21   1.502042 S    
O5    C3    1.295354 A    
O14   V3    2.013267 S    
C29   C40   1.405885 A    
C18   C43   1.463173 S    
C8    N9    1.441615 S    
V2    O10   2.160419 S    
C5    H3    1.084177 S    
C32   C33   1.425529 A    
O13   V3    2.011610 S    
O15   C43   1.290205 A    
C30   C31   1.412878 A    
O8    V2    2.009185 S    
C37   H14   1.081393 S    
C41   O16   1.292529 A    
C8    C9    1.403960 A    
O11   C42   1.298623 A    
C40   C41   1.478638 S    
O7    V1    2.157374 S    
O15   V3    2.017495 S    
C35   C36   1.403166 A    
O9    C4    1.295520 A    
C3    C20   1.487439 S    
C27   C39   1.410402 A    
C23   C45   1.443854 S    
C21   N1    1.436211 S    
C24   C42   1.487949 S    
O4    C2    1.297712 A    
C7    H4    1.083829 S    
C6    C17   1.395374 A    
C25   H10   1.087553 S    
C9    H5    1.076295 S    
C12   C16   1.427530 A    
C9    C10   1.416554 A    
C31   N6    1.437258 S    
V3    O20   1.707916 S    
C46   N4    1.157611 T    
O19   V4    2.009202 S    
C45   N2    1.155814 T    
O17   V4    1.709153 S    
C34   C35   1.423980 A    
C29   C30   1.404942 A    
C29   C47   1.452774 S    
C36   C37   1.384653 A    
O2    C1    1.297072 A    
O17   V3    2.157435 S    
C19   N10   1.436102 S    
C19   C20   1.360478 D    
C6    C16   1.410111 A    
C11   C18   1.412760 A    
N1    O21   1.300896 A    
O18   V4    2.018526 S    
C16   C49   1.450510 S    
N9    O28   1.301747 A    
O3    C4    1.289045 A    
O1    V2    2.018270 S    
C11   C15   1.405832 A    
C21   C22   1.360402 D    
N1    O22   1.300338 A    
N3    O24   1.301368 A    
O11   V4    2.009814 S    
O6    V2    2.009349 S    
O9    V2    2.018604 S    
C23   C24   1.356184 D    
O12   V3    2.016670 S    
O16   V4    2.022103 S    
O2    V1    2.013263 S    
C24   H9    1.080537 S    
C33   C40   1.418059 A    
O14   C42   1.298655 A    
C7    C18   1.396636 A    
C25   C26   1.350015 D    
C38   H13   1.077334 S    
O1    C2    1.290832 A    
C5    C13   1.400409 A    
C28   C39   1.406648 A    
O5    V1    2.011605 S    
O8    C3    1.302228 A    
N6    O26   1.301175 A    
C33   C37   1.405800 A    
C10   C12   1.434750 A    
N10   O29   1.301210 A    
C15   H6    1.080163 S    
C10   C11   1.421682 A    
O4    V1    2.016700 S    
O3    V1    2.017353 S    
V1    O10   1.707983 S    
C20   H7    1.082897 S    
C49   N8    1.157750 T    
C32   C34   1.440331 A    
O7    V2    1.710361 S    
N9    O27   1.301811 A    
C23   C25   1.491867 S    
O19   C44   1.298096 A    
C27   C46   1.451015 S    
H1    C17   1.083886 S    
N3    O23   1.301290 A    
O12   C41   1.295405 A    
C48   N7    1.157515 T    
C12   C13   1.425026 A    
C5    C17   1.387198 A    
C7    C8    1.398215 A    
C30   C48   1.450895 S    
O13   C44   1.300256 A    
C28   C38   1.397413 A    
H12   C36   1.082655 S    
C1    C26   1.478935 S    
H2    C14   1.084434 S    
