data_mof_unit_64220.cif
_audit_creation_date              2012-12-10T16:54:01-0500
_audit_creation_method            fapswitch 2.2
_symmetry_space_group_name_H-M    P1
_symmetry_Int_Tables_number       1
_space_group_crystal_system       monoclinic
_cell_length_a                    18.533219
_cell_length_b                    18.533376
_cell_length_c                    42.950116
_cell_angle_alpha                 90.0
_cell_angle_beta                  90.0
_cell_angle_gamma                 90.008307
_cell_volume                      14752.6395305

loop_
_atom_site_label
_atom_site_type_symbol
_atom_type_description
_atom_site_fract_x
_atom_site_fract_y
_atom_site_fract_z
_atom_type_partial_charge
C1    C     C_R   0.500000 0.000000 0.584212 0.781745
C2    C     C_R   0.000005 0.500002 0.281514 0.256737
C3    C     C_R   0.024749 0.561842 0.332375 0.156857
C4    C     C_R   0.938158 0.475250 0.832375 0.156837
C5    C     C_R   0.475252 0.938157 0.832375 0.156857
C6    C     C_R   0.061840 0.524743 0.832375 0.156798
C7    C     C_R   0.524740 0.061840 0.832375 0.156818
C8    C     C_R   0.500002 0.000004 0.315922 -0.044823
C9    C     C_R   0.000004 0.500001 0.315922 -0.044819
C10   C     C_R   0.999998 0.499996 0.815922 -0.044823
C11   C     C_R   0.499996 0.999998 0.815922 -0.044819
C12   C     C_R   0.500000 0.000001 0.381440 -0.107985
C13   C     C_R   0.999998 0.499995 0.781514 0.256750
C14   C     C_R   0.000001 0.500000 0.381440 -0.108044
C15   C     C_R   1.000000 0.499999 0.881440 -0.107985
C16   C     C_R   0.499999 1.000000 0.881440 -0.108045
C17   C     C_3   0.372836 0.946567 0.314536 -0.379040
C18   C     C_3   0.315267 0.908049 0.333947 -0.899010
C19   C     C_3   0.946572 0.372835 0.314536 -0.379056
C20   C     C_3   0.908055 0.315266 0.333947 -0.899051
C21   C     C_3   0.627167 0.053441 0.314538 -0.378839
C22   C     C_3   0.684735 0.091958 0.333950 -0.899404
C23   C     C_3   0.053436 0.627168 0.314538 -0.378857
C24   C     C_R   0.499995 0.999998 0.781514 0.256737
C25   C     C_3   0.091952 0.684736 0.333950 -0.899444
C26   C     C_3   0.872832 0.446561 0.814538 -0.378839
C27   C     C_3   0.815264 0.408045 0.833950 -0.899404
C28   C     C_3   0.446566 0.872831 0.814538 -0.378855
C29   C     C_3   0.408052 0.815261 0.833950 -0.899442
C30   C     C_3   0.127165 0.553430 0.814536 -0.379040
C31   C     C_3   0.184734 0.591948 0.833947 -0.899011
C32   C     C_3   0.553425 0.127166 0.814536 -0.379055
C33   C     C_3   0.591941 0.184736 0.833947 -0.899049
C34   C     C_R   0.937309 0.518507 0.667514 -0.165747
C35   C     C_R   0.518504 0.937309 0.667514 -0.165743
C36   C     C_R   0.062689 0.481492 0.667514 -0.165745
C37   C     C_R   0.481495 0.062690 0.667514 -0.165741
C38   C     C_R   0.437310 0.018507 0.167514 -0.165745
C39   C     C_R   0.018504 0.437310 0.167514 -0.165741
C40   C     C_R   0.562691 0.981494 0.167514 -0.165747
C41   C     C_R   1.000000 0.500000 0.584212 0.781450
C42   C     C_R   0.981497 0.562691 0.167514 -0.165742
C43   C     C_R   0.937160 0.517981 0.635028 -0.188433
C44   C     C_R   0.517978 0.937160 0.635028 -0.188333
C45   C     C_R   0.062839 0.482019 0.635029 -0.188535
C46   C     C_R   0.482022 0.062840 0.635029 -0.188435
C47   C     C_R   0.437160 0.017980 0.135029 -0.188535
C48   C     C_R   0.017977 0.437160 0.135029 -0.188435
C49   C     C_R   0.562840 0.982019 0.135028 -0.188433
C50   C     C_R   0.982022 0.562840 0.135029 -0.188333
C51   C     C_R   1.000000 0.500000 0.618506 -0.001821
C52   C     C_R   1.000000 0.500000 0.084212 0.781745
C53   C     C_R   0.500000 1.000000 0.618506 -0.001997
C54   C     C_R   0.500000 1.000000 0.118506 -0.001821
C55   C     C_R   1.000000 0.500000 0.118506 -0.001998
C56   C     C_R   0.999999 0.499999 0.684059 0.084663
C57   C     C_R   0.499999 0.999999 0.684059 0.084646
C58   C     C_R   0.500001 0.000001 0.184059 0.084663
C59   C     C_R   0.000001 0.500001 0.184059 0.084646
C60   C     C_R   0.500000 0.000000 0.415765 0.807174
C61   C     C_R   0.000000 0.500000 0.415765 0.807053
C62   C     C_R   1.000000 0.500000 0.915765 0.807175
C63   C     C_R   0.500000 1.000000 0.084212 0.781450
C64   C     C_R   0.500000 1.000000 0.915765 0.807054
C65   C     C_R   0.361569 0.138769 0.499937 0.856103
C66   C     C_R   0.861219 0.361581 0.499929 0.855760
C67   C     C_R   0.638431 0.861230 0.499937 0.856045
C68   C     C_R   0.138493 0.638707 0.500105 0.855551
C69   C     C_R   0.638707 0.138493 0.500105 0.855356
C70   C     C_R   0.138487 0.361287 0.500110 0.856209
C71   C     C_R   0.361581 0.861219 0.499928 0.855560
C72   C     C_R   0.861513 0.638713 0.500110 0.856121
C73   C     C_R   0.861569 0.638769 0.999937 0.856045
C74   C     C_R   0.999998 0.499997 0.718387 0.283932
C75   C     C_R   0.361507 0.861293 0.000105 0.855551
C76   C     C_R   0.138431 0.361231 0.999937 0.856103
C77   C     C_R   0.638781 0.138419 0.999929 0.855760
C78   C     C_R   0.138419 0.638781 0.999928 0.855560
C79   C     C_R   0.638487 0.861287 0.000110 0.856121
C80   C     C_R   0.861293 0.361507 0.000105 0.855356
C81   C     C_R   0.361513 0.138713 0.000110 0.856209
C82   C     C_2   0.193134 0.750725 0.481678 -0.162133
C83   C     C_2   0.247967 0.191833 0.482485 -0.159893
C84   C     C_2   0.808045 0.248090 0.482397 -0.161904
C85   C     C_R   0.499997 0.999998 0.718387 0.283946
C86   C     C_2   0.752032 0.808165 0.482484 -0.159680
C87   C     C_2   0.807005 0.750870 0.481771 -0.159654
C88   C     C_2   0.750725 0.193135 0.481678 -0.162307
C89   C     C_2   0.192993 0.249128 0.481772 -0.159844
C90   C     C_2   0.248089 0.808045 0.482397 -0.162047
C91   C     C_2   0.691955 0.251910 0.982397 -0.161905
C92   C     C_2   0.747968 0.691835 0.982484 -0.159681
C93   C     C_2   0.306865 0.749275 0.981678 -0.162133
C94   C     C_2   0.252033 0.308167 0.982485 -0.159894
C95   C     C_2   0.307007 0.250872 0.981772 -0.159844
C96   C     C_R   0.500002 0.000003 0.218387 0.283932
C97   C     C_2   0.251911 0.691955 0.982397 -0.162047
C98   C     C_2   0.692995 0.749130 0.981771 -0.159655
C99   C     C_2   0.749275 0.306865 0.981678 -0.162306
C100  C     C_2   0.193387 0.694419 0.501299 -0.293666
C101  C     C_2   0.308230 0.196030 0.499685 -0.295134
C102  C     C_2   0.803921 0.308274 0.499650 -0.294114
C103  C     C_2   0.691769 0.803969 0.499684 -0.295237
C104  C     C_2   0.806617 0.694416 0.501312 -0.295318
C105  C     C_2   0.694419 0.193387 0.501299 -0.293669
C106  C     C_2   0.193383 0.305583 0.501312 -0.295273
C107  C     C_R   0.000003 0.500002 0.218387 0.283946
C108  C     C_2   0.308275 0.803921 0.499649 -0.294104
C109  C     C_2   0.696079 0.191725 0.999650 -0.294114
C110  C     C_2   0.808231 0.696031 0.999685 -0.295237
C111  C     C_2   0.306613 0.805581 0.001299 -0.293665
C112  C     C_2   0.191770 0.303970 0.999685 -0.295135
C113  C     C_2   0.306617 0.194417 0.001312 -0.295274
C114  C     C_2   0.191725 0.696079 0.999649 -0.294104
C115  C     C_2   0.693383 0.805584 0.001312 -0.295319
C116  C     C_2   0.805581 0.306613 0.001299 -0.293669
C117  C     C_R   0.438986 0.976964 0.365105 -0.183036
C118  C     C_R   0.500002 0.000005 0.281514 0.256750
C119  C     C_R   0.976966 0.438986 0.365105 -0.183231
C120  C     C_R   0.561015 0.023040 0.365106 -0.183145
C121  C     C_R   0.023038 0.561015 0.365106 -0.183339
C122  C     C_R   0.938985 0.476960 0.865106 -0.183146
C123  C     C_R   0.476963 0.938984 0.865106 -0.183340
C124  C     C_R   0.061014 0.523035 0.865105 -0.183036
C125  C     C_R   0.523032 0.061015 0.865105 -0.183231
C126  C     C_R   0.438161 0.975256 0.332375 0.156798
C127  C     C_R   0.975258 0.438160 0.332375 0.156818
C128  C     C_R   0.561842 0.024751 0.332375 0.156837
H1    H     H_    0.150515 0.756031 0.464463 0.173834
H2    H     H_    0.738339 0.644907 0.967907 0.174880
H3    H     H_    0.349485 0.743969 0.964463 0.173834
H4    H     H_    0.261663 0.355096 0.967908 0.174703
H5    H     H_    0.349749 0.256313 0.964621 0.174891
H6    H     H_    0.261488 0.645075 0.967786 0.173951
H7    H     H_    0.650254 0.743689 0.964620 0.175024
H8    H     H_    0.743967 0.349485 0.964463 0.173749
H9    H     H_    0.233646 0.688021 0.519295 0.151155
H10   H     H_    0.320868 0.242514 0.513870 0.150455
H11   H     H_    0.757459 0.320882 0.513851 0.151013
H12   H     H_    0.238337 0.144904 0.467908 0.174703
H13   H     H_    0.679132 0.757487 0.513870 0.150378
H14   H     H_    0.766234 0.687879 0.519247 0.150201
H15   H     H_    0.688019 0.233647 0.519293 0.151158
H16   H     H_    0.233765 0.312121 0.519247 0.150245
H17   H     H_    0.320884 0.757457 0.513849 0.151000
H18   H     H_    0.742541 0.179118 0.013851 0.151013
H19   H     H_    0.820868 0.742513 0.013870 0.150378
H20   H     H_    0.266354 0.811979 0.019295 0.151155
H21   H     H_    0.179132 0.257486 0.013870 0.150455
H22   H     H_    0.266235 0.187879 0.019247 0.150245
H23   H     H_    0.854924 0.238515 0.467785 0.174067
H24   H     H_    0.179116 0.742542 0.013849 0.151000
H25   H     H_    0.733766 0.812121 0.019247 0.150201
H26   H     H_    0.811981 0.266353 0.019293 0.151158
H27   H     H_    0.392622 0.959357 0.378318 0.176738
H28   H     H_    0.959361 0.392621 0.378318 0.176715
H29   H     H_    0.607379 0.040647 0.378320 0.176539
H30   H     H_    0.040642 0.607380 0.378320 0.176516
H31   H     H_    0.892620 0.459355 0.878320 0.176539
H32   H     H_    0.459360 0.892619 0.878320 0.176516
H33   H     H_    0.107379 0.540641 0.878318 0.176739
H34   H     H_    0.761660 0.855093 0.467907 0.174880
H35   H     H_    0.540636 0.107380 0.878318 0.176715
H36   H     H_    0.888113 0.532698 0.679661 0.149270
H37   H     H_    0.532693 0.888112 0.679661 0.149280
H38   H     H_    0.111885 0.467300 0.679661 0.149266
H39   H     H_    0.467305 0.111886 0.679662 0.149276
H40   H     H_    0.388114 0.032699 0.179661 0.149266
H41   H     H_    0.032693 0.388114 0.179662 0.149277
H42   H     H_    0.611888 0.967303 0.179661 0.149270
H43   H     H_    0.967309 0.611888 0.179661 0.149280
H44   H     H_    0.888019 0.532263 0.622853 0.159492
H45   H     H_    0.849746 0.756311 0.464620 0.175024
H46   H     H_    0.532257 0.888019 0.622853 0.159606
H47   H     H_    0.111980 0.467738 0.622853 0.159478
H48   H     H_    0.467744 0.111981 0.622853 0.159591
H49   H     H_    0.388019 0.032260 0.122853 0.159478
H50   H     H_    0.032254 0.388018 0.122853 0.159591
H51   H     H_    0.611981 0.967739 0.122853 0.159492
H52   H     H_    0.967745 0.611982 0.122853 0.159606
H53   H     H_    0.339618 0.863079 0.347437 0.263851
H54   H     H_    0.288068 0.946621 0.349878 0.259163
H55   H     H_    0.273630 0.885112 0.318201 0.257777
H56   H     H_    0.756033 0.150515 0.464463 0.173750
H57   H     H_    0.346401 0.992105 0.302204 0.224545
H58   H     H_    0.391933 0.907298 0.296788 0.216558
H59   H     H_    0.946628 0.288068 0.349878 0.259111
H60   H     H_    0.863084 0.339615 0.347437 0.263864
H61   H     H_    0.885119 0.273628 0.318201 0.257786
H62   H     H_    0.907302 0.391930 0.296788 0.216565
H63   H     H_    0.992111 0.346402 0.302204 0.224527
H64   H     H_    0.660383 0.136927 0.347440 0.263734
H65   H     H_    0.711933 0.053385 0.349880 0.259120
H66   H     H_    0.726372 0.114896 0.318205 0.257848
H67   H     H_    0.150251 0.243686 0.464621 0.174891
H68   H     H_    0.653602 0.007905 0.302205 0.224535
H69   H     H_    0.608070 0.092712 0.296790 0.216539
H70   H     H_    0.053378 0.711934 0.349881 0.259070
H71   H     H_    0.136922 0.660386 0.347440 0.263747
H72   H     H_    0.114889 0.726375 0.318205 0.257856
H73   H     H_    0.092708 0.608073 0.296790 0.216547
H74   H     H_    0.007898 0.653602 0.302205 0.224518
H75   H     H_    0.839614 0.363076 0.847441 0.263735
H76   H     H_    0.788066 0.446619 0.849881 0.259120
H77   H     H_    0.773625 0.385107 0.818205 0.257847
H78   H     H_    0.238512 0.854925 0.467786 0.173951
H79   H     H_    0.846398 0.492098 0.802204 0.224535
H80   H     H_    0.891928 0.407290 0.796790 0.216539
H81   H     H_    0.446627 0.788065 0.849881 0.259069
H82   H     H_    0.363082 0.839610 0.847441 0.263746
H83   H     H_    0.385116 0.773622 0.818205 0.257856
H84   H     H_    0.407294 0.891924 0.796790 0.216546
H85   H     H_    0.492105 0.846398 0.802205 0.224517
H86   H     H_    0.160384 0.636918 0.847437 0.263851
H87   H     H_    0.211933 0.553375 0.849878 0.259163
H88   H     H_    0.226372 0.614884 0.818201 0.257777
H89   H     H_    0.645076 0.261485 0.967785 0.174067
H90   H     H_    0.153599 0.507892 0.802203 0.224545
H91   H     H_    0.108068 0.592700 0.796788 0.216558
H92   H     H_    0.553367 0.211933 0.849878 0.259110
H93   H     H_    0.636912 0.160388 0.847437 0.263863
H94   H     H_    0.614875 0.226375 0.818201 0.257786
H95   H     H_    0.592695 0.108072 0.796788 0.216565
H96   H     H_    0.507885 0.153598 0.802204 0.224526
N1    N     N_R   0.551162 0.963176 0.265473 -0.179021
N2    N     N_R   0.463366 0.051304 0.734490 -0.178705
N3    N     N_R   0.948690 0.536625 0.734490 -0.178712
N4    N     N_R   0.536627 0.948692 0.734490 -0.178707
N5    N     N_R   0.551310 0.963375 0.234490 -0.178711
N6    N     N_R   0.963375 0.551309 0.234490 -0.178708
N7    N     N_R   0.448694 0.036631 0.234489 -0.178709
N8    N     N_R   0.036632 0.448695 0.234489 -0.178705
N9    N     N_R   0.963176 0.551161 0.265473 -0.179033
N10   N     N_R   0.448843 0.036832 0.265473 -0.179018
N11   N     N_R   0.036833 0.448844 0.265473 -0.179031
N12   N     N_R   0.051156 0.463167 0.765473 -0.179018
N13   N     N_R   0.463166 0.051155 0.765473 -0.179031
N14   N     N_R   0.948839 0.536824 0.765473 -0.179021
N15   N     N_R   0.536826 0.948840 0.765473 -0.179033
N16   N     N_R   0.051305 0.463368 0.734490 -0.178709
O1    O     O_3   0.500000 0.000000 0.500000 -0.481160
O2    O     O_R   0.560150 0.000000 0.069320 -0.643805
O3    O     O_R   1.000000 0.560150 0.069320 -0.643583
O4    O     O_R   0.439850 0.000000 0.069320 -0.644090
O5    O     O_R   0.439930 0.000000 0.430670 -0.646191
O6    O     O_R   1.000000 0.439930 0.430670 -0.646376
O7    O     O_R   0.560070 0.000000 0.430670 -0.646435
O8    O     O_R   1.000000 0.560070 0.430670 -0.646620
O9    O     O_R   0.939930 0.500000 0.930670 -0.646435
O10   O     O_R   0.500000 0.939930 0.930670 -0.646621
O11   O     O_R   0.060070 0.500000 0.930670 -0.646191
O12   O     O_3   1.000000 0.500000 0.500000 -0.481158
O13   O     O_R   0.500000 0.060070 0.930670 -0.646377
O14   O     O_R   0.415450 0.144560 0.518170 -0.644964
O15   O     O_R   0.855440 0.415450 0.518170 -0.643001
O16   O     O_R   0.584550 0.855440 0.518170 -0.645281
O17   O     O_R   0.144560 0.584550 0.518170 -0.643022
O18   O     O_R   0.584550 0.144560 0.518170 -0.643227
O19   O     O_R   0.144560 0.415450 0.518170 -0.644932
O20   O     O_R   0.415450 0.855440 0.518170 -0.643205
O21   O     O_R   0.855440 0.584550 0.518170 -0.645254
O22   O     O_R   0.915450 0.644560 0.018170 -0.645281
O23   O     O_3   1.000000 0.500000 0.000000 -0.481160
O24   O     O_R   0.355440 0.915450 0.018170 -0.643022
O25   O     O_R   0.084550 0.355440 0.018170 -0.644964
O26   O     O_R   0.644560 0.084550 0.018170 -0.643001
O27   O     O_R   0.084550 0.644560 0.018170 -0.643205
O28   O     O_R   0.644560 0.915450 0.018170 -0.645254
O29   O     O_R   0.915450 0.355440 0.018170 -0.643227
O30   O     O_R   0.355440 0.084550 0.018170 -0.644931
O31   O     O_R   0.644640 0.915430 0.481820 -0.642501
O32   O     O_R   0.084570 0.644640 0.481820 -0.644817
O33   O     O_R   0.355360 0.084570 0.481820 -0.642755
O34   O     O_3   0.500000 0.000000 0.000000 -0.481158
O35   O     O_R   0.915430 0.355360 0.481820 -0.644906
O36   O     O_R   0.355360 0.915430 0.481820 -0.645100
O37   O     O_R   0.915430 0.644640 0.481820 -0.642549
O38   O     O_R   0.644640 0.084570 0.481820 -0.645014
O39   O     O_R   0.084570 0.355360 0.481820 -0.642813
O40   O     O_R   0.144640 0.415430 0.981820 -0.642755
O41   O     O_R   0.584570 0.144640 0.981820 -0.644906
O42   O     O_R   0.855360 0.584570 0.981820 -0.642501
O43   O     O_R   0.415430 0.855360 0.981820 -0.644817
O44   O     O_R   0.855360 0.415430 0.981820 -0.645014
O45   O     O_R   0.500000 0.939850 0.569320 -0.643583
O46   O     O_R   0.415430 0.144640 0.981820 -0.642813
O47   O     O_R   0.144640 0.584570 0.981820 -0.645099
O48   O     O_R   0.584570 0.855360 0.981820 -0.642549
O49   O     O_R   0.060150 0.500000 0.569320 -0.644090
O50   O     O_R   0.500000 0.060150 0.569320 -0.643868
O51   O     O_R   0.939850 0.500000 0.569320 -0.643805
O52   O     O_R   1.000000 0.439850 0.069320 -0.643868
Zn1   Zn    Zn3+2 0.414160 0.000000 0.474030 0.964103
Zn2   Zn    Zn3+2 0.914220 0.500000 0.525960 0.971162
Zn3   Zn    Zn3+2 0.500000 0.914220 0.525960 0.971217
Zn4   Zn    Zn3+2 0.085780 0.500000 0.525960 0.971238
Zn5   Zn    Zn3+2 1.000000 0.585780 0.025960 0.971217
Zn6   Zn    Zn3+2 0.414220 0.000000 0.025960 0.971238
Zn7   Zn    Zn3+2 1.000000 0.414220 0.025960 0.971291
Zn8   Zn    Zn3+2 0.585780 0.000000 0.025960 0.971162
Zn9   Zn    Zn3+2 1.000000 0.414160 0.474030 0.964133
Zn10  Zn    Zn3+2 0.585840 0.000000 0.474030 0.964084
Zn11  Zn    Zn3+2 1.000000 0.585840 0.474030 0.964120
Zn12  Zn    Zn3+2 0.914160 0.500000 0.974030 0.964084
Zn13  Zn    Zn3+2 0.500000 0.914160 0.974030 0.964120
Zn14  Zn    Zn3+2 0.085840 0.500000 0.974030 0.964103
Zn15  Zn    Zn3+2 0.500000 0.085840 0.974030 0.964133
Zn16  Zn    Zn3+2 0.500000 0.085780 0.525960 0.971291

loop_
_geom_bond_atom_site_label_1
_geom_bond_atom_site_label_2
_ccdc_geom_bond_type
C73   O42   A    
C34   C56   A    
C19   C20   S    
C114  H24   S    
C29   H82   S    
C31   H86   S    
C72   O21   A    
C23   H73   S    
C68   O32   A    
C54   C63   S    
C95   H5    S    
C44   C53   A    
C80   C116  S    
O22   Zn5   S    
C89   C106  D    
C117  C126  A    
C116  H26   S    
O42   Zn12  S    
O30   Zn6   S    
C33   H94   S    
C14   C121  A    
C21   C22   S    
C115  H25   S    
C66   O35   A    
C40   H42   S    
C83   H12   S    
C32   H96   S    
C41   O51   A    
C40   C58   A    
C76   O40   A    
C20   H61   S    
C69   C105  S    
C94   H4    S    
C27   H77   S    
C91   H89   S    
C92   H2    S    
O1    Zn3   S    
C25   H71   S    
C2    N9    A    
O20   Zn3   S    
C17   H58   S    
O45   Zn3   S    
C4    C122  A    
C85   N4    A    
C13   N12   A    
C64   O10   A    
C8    C126  A    
C70   O19   A    
C6    C30   S    
O19   Zn4   S    
C124  H33   S    
C84   C88   S    
C21   H69   S    
O16   Zn3   S    
O50   Zn16  S    
C39   H41   S    
C111  H20   S    
C68   O17   A    
C18   H55   S    
C46   C53   A    
C81   O30   A    
C57   C85   S    
C99   H8    S    
N7    N10   A    
C102  H11   S    
C21   H68   S    
C74   N16   A    
C100  H9    S    
C12   C117  A    
C14   C119  A    
O52   Zn7   S    
C41   C51   S    
C37   C57   A    
C3    C121  A    
C19   H63   S    
C49   H51   S    
O10   Zn13  S    
O46   Zn15  S    
C79   C115  S    
C84   C102  D    
C65   C101  S    
C48   H50   S    
O4    Zn6   S    
C73   C110  S    
C67   O16   A    
C27   H75   S    
C44   H46   S    
C34   H36   S    
C45   H47   S    
C88   H56   S    
C31   H87   S    
C40   C49   A    
C89   H67   S    
C77   O26   A    
C1    C53   S    
O17   Zn4   S    
C8    C128  A    
O6    Zn9   S    
O13   Zn15  S    
O14   Zn16  S    
C16   C125  A    
C30   H90   S    
C60   O5    A    
N2    N13   A    
C38   C58   A    
O15   Zn2   S    
C103  H13   S    
C79   O28   A    
C83   C89   S    
C15   C124  A    
C65   O33   A    
C52   O3    A    
C18   H53   S    
C61   O6    A    
N3    N14   A    
C98   H7    S    
C59   C107  S    
C82   H1    S    
C68   C100  S    
C3    C9    A    
C20   H60   S    
C17   C18   S    
O33   Zn1   S    
C96   N5    A    
C21   C128  S    
C77   C109  S    
C42   C50   A    
C121  H30   S    
O47   Zn14  S    
C93   C97   S    
C64   O13   A    
C28   H85   S    
C7    C32   S    
C83   C101  D    
C113  H22   S    
C34   C43   A    
C42   C59   A    
C29   H81   S    
O23   Zn12  S    
C90   C108  D    
O28   Zn8   S    
C88   C105  D    
C92   C110  D    
C98   C115  D    
C63   O4    A    
C94   C112  D    
O27   Zn5   S    
C42   H43   S    
C84   H23   S    
C60   O7    A    
C39   C48   A    
C91   C99   S    
C97   C114  D    
C71   C108  S    
C2    C9    S    
C22   H64   S    
C24   N13   A    
O1    Zn10  S    
C119  C127  A    
C48   C55   A    
C119  H28   S    
C15   C122  A    
C26   H79   S    
C1    O45   A    
C37   H39   S    
C61   O8    A    
C38   H40   S    
C26   C27   S    
C9    C127  A    
C28   C29   S    
C5    C11   A    
O1    Zn1   S    
C30   C31   S    
C17   C126  S    
C80   O29   A    
C96   N7    A    
C25   H70   S    
C90   H78   S    
C17   H57   S    
C122  H31   S    
C22   H65   S    
O23   Zn7   S    
C52   C55   S    
C67   O31   A    
C107  N8    A    
C78   C114  S    
O34   Zn15  S    
C29   H83   S    
C87   H45   S    
C56   C74   S    
C23   H74   S    
C67   C103  S    
C70   C106  S    
C86   C87   S    
C72   C104  S    
C63   O2    A    
N1    N5    A    
C70   O39   A    
C7    C11   A    
C36   C56   A    
O34   Zn8   S    
O3    Zn5   S    
C39   C59   A    
C65   O14   A    
C71   O36   A    
C7    C125  A    
C24   N15   A    
O18   Zn16  S    
O41   Zn15  S    
C93   C111  D    
C47   C54   A    
C62   O11   A    
C80   O44   A    
C120  H29   S    
C104  H14   S    
C99   C116  D    
C32   H95   S    
C108  H17   S    
C75   O24   A    
O23   Zn14  S    
O24   Zn6   S    
C6    C10   A    
C4    C26   S    
C101  H10   S    
C120  C128  A    
C13   N14   A    
C28   H84   S    
C75   C111  S    
C82   C90   S    
C35   C57   A    
C32   C33   S    
C25   H72   S    
C78   O27   A    
O36   Zn1   S    
C43   C51   A    
C15   C62   S    
C1    O50   A    
O23   Zn5   S    
C94   C95   S    
O48   Zn13  S    
C92   C98   S    
C87   C104  D    
O1    Zn16  S    
C107  N6    A    
C81   C113  S    
C45   C51   A    
O12   Zn9   S    
O31   Zn10  S    
C37   C46   A    
C93   H3    S    
C69   O38   A    
O34   Zn13  S    
C30   H91   S    
O37   Zn11  S    
O39   Zn9   S    
C66   C102  S    
O8    Zn11  S    
C3    C23   S    
C109  H18   S    
C6    C124  A    
C8    C118  S    
O2    Zn8   S    
O12   Zn2   S    
C16   C123  A    
O34   Zn6   S    
O9    Zn12  S    
C123  H32   S    
C18   H54   S    
C49   C54   A    
C75   O43   A    
C11   C24   S    
N6    N9    A    
C72   O37   A    
C58   C96   S    
C12   C120  A    
C62   O9    A    
O5    Zn1   S    
C86   H34   S    
C76   O25   A    
C125  H35   S    
C97   H6    S    
C52   O52   A    
C86   C103  D    
O32   Zn11  S    
C118  N1    A    
O40   Zn14  S    
O25   Zn7   S    
O49   Zn4   S    
O26   Zn8   S    
C27   H76   S    
O51   Zn2   S    
N4    N15   A    
C31   H88   S    
C71   O20   A    
C14   C61   S    
N8    N11   A    
N12   N16   A    
C50   H52   S    
C117  H27   S    
C74   N3    A    
C5    C28   S    
C118  N10   A    
C76   C112  S    
C36   H38   S    
C36   C45   A    
O12   Zn11  S    
C35   C44   A    
C38   C47   A    
O38   Zn10  S    
O7    Zn10  S    
C46   H48   S    
C4    C10   A    
C110  H19   S    
C78   O47   A    
O29   Zn7   S    
C73   O22   A    
C33   H92   S    
C79   O48   A    
O44   Zn12  S    
O12   Zn4   S    
C82   C100  D    
C26   H80   S    
C10   C13   S    
C105  H15   S    
C43   H44   S    
O35   Zn9   S    
C106  H16   S    
C85   N2    A    
C41   O49   A    
C5    C123  A    
C50   C55   A    
C77   O41   A    
C91   C109  D    
C47   H49   S    
C20   H59   S    
C95   C113  D    
O11   Zn14  S    
C19   C127  S    
C35   H37   S    
C23   C25   S    
C19   H62   S    
C12   C60   S    
C2    N11   A    
C66   O15   A    
C112  H21   S    
C22   H66   S    
C81   O46   A    
C16   C64   S    
O21   Zn2   S    
O43   Zn13  S    
C33   H93   S    
C69   O18   A    
