data_mof_unit_9507.cif
_audit_creation_date              2012-10-26T20:02:58-0400
_audit_creation_method            fapswitch 2.2
_symmetry_space_group_name_H-M    P1
_symmetry_Int_Tables_number       1
_space_group_crystal_system       triclinic
_cell_length_a                    10.722459
_cell_length_b                    12.320747
_cell_length_c                    13.185001
_cell_angle_alpha                 116.442051
_cell_angle_beta                  77.831706
_cell_angle_gamma                 101.647612
_cell_volume                      1512.93158678

loop_
_atom_site_label
_atom_site_type_symbol
_atom_type_description
_atom_site_fract_x
_atom_site_fract_y
_atom_site_fract_z
_atom_type_partial_charge
C1    C     C_R   0.507840 0.854848 0.286920 0.584673
C2    C     C_R   0.496518 0.565244 0.011456 0.001801
C3    C     C_R   0.455197 0.647187 0.125562 0.062525
C4    C     C_R   0.739664 0.001529 0.502181 0.540157
C5    C     C_R   0.463579 0.437234 0.978000 0.017775
C6    C     C_R   0.385249 0.393352 0.056255 0.030571
C7    C     C_R   0.333620 0.474965 0.162339 -0.135619
C8    C     C_R   0.361030 0.600334 0.194745 0.101549
C9    C     C_R   0.504814 0.350912 0.868440 -0.133744
C10   C     C_R   0.389221 0.184484 0.914116 -0.139168
C11   C     C_R   0.508374 0.772685 0.164533 0.022342
C12   C     C_3   0.121869 0.003035 0.502280 0.082378
C13   C     C_R   0.705071 0.349249 0.330236 -0.151047
C14   C     C_R   0.325600 0.757827 0.644375 0.038762
C15   C     C_R   0.287903 0.660403 0.675298 -0.163578
C16   C     C_R   0.483282 0.144885 0.713325 0.538011
C17   C     C_R   0.353250 0.557643 0.620868 -0.139337
C18   C     C_R   0.457982 0.550878 0.534155 -0.007633
C19   C     C_R   0.493230 0.653310 0.505400 0.176123
C20   C     C_R   0.529164 0.447029 0.475174 -0.014498
C21   C     C_R   0.633348 0.448281 0.389205 0.038378
C22   C     C_R   0.665915 0.548421 0.362493 -0.179804
C23   C     C_3   0.042463 0.999649 0.614172 -0.270635
C24   C     C_R   0.597810 0.648303 0.419215 -0.102764
C25   C     C_R   0.502402 0.341232 0.497251 0.037112
C26   C     C_R   0.674054 0.248646 0.356256 0.037499
C27   C     C_R   0.259889 0.001676 0.501942 0.591710
C28   C     C_3   0.957557 0.119377 0.494015 -0.233925
C29   C     C_3   0.099919 0.121829 0.497910 -0.231267
C30   C     C_3   0.898497 0.000668 0.614946 -0.242340
C31   C     C_3   0.926673 0.889229 0.399450 -0.231710
C32   C     C_3   0.877632 0.002779 0.502942 0.040050
C33   C     C_3   0.071196 0.888815 0.398706 -0.009988
C34   C     C_R   0.351800 0.267607 0.024882 -0.133513
C35   C     C_R   0.462373 0.226607 0.834681 -0.003625
C36   C     C_R   0.578051 0.817414 0.085365 -0.149408
C37   C     C_R   0.603641 0.739413 0.971005 -0.146524
C38   C     C_R   0.566747 0.614720 0.934447 -0.124661
Cu1   Cu    Cu3+1 0.529690 0.098270 0.475420 0.921184
Cu2   Cu    Cu3+1 0.470310 0.901730 0.524580 0.912389
H1    H     H_    0.921475 0.202806 0.565627 0.127567
H2    H     H_    0.592993 0.560399 0.844687 0.105806
H3    H     H_    0.657181 0.775282 0.910795 0.117346
H4    H     H_    0.947767 0.121576 0.412535 0.120919
H5    H     H_    0.729125 0.172038 0.311036 0.112654
H6    H     H_    0.745657 0.549957 0.296850 0.100665
H7    H     H_    0.784868 0.349770 0.264422 0.085976
H8    H     H_    0.424810 0.332341 0.560942 0.115534
H9    H     H_    0.274215 0.837037 0.687191 0.119109
H10   H     H_    0.319927 0.485073 0.648302 0.095356
H11   H     H_    0.207638 0.664562 0.741806 0.099081
H12   H     H_    0.080313 0.806387 0.409524 0.147015
H13   H     H_    0.631488 0.719807 0.392243 0.178391
H14   H     H_    0.158725 0.133451 0.422349 0.138934
H15   H     H_    0.130370 0.202899 0.574944 0.106940
H16   H     H_    0.863784 0.082215 0.690110 0.115915
H17   H     H_    0.077069 0.079703 0.689934 0.108360
H18   H     H_    0.871661 0.804446 0.404417 0.097078
H19   H     H_    0.909366 0.888608 0.318827 0.106638
H20   H     H_    0.281917 0.661822 0.360622 0.248552
H21   H     H_    0.185019 0.647435 0.269527 0.199026
H22   H     H_    0.117720 0.797457 0.224747 0.223443
H23   H     H_    0.842409 0.918263 0.624098 0.135410
H24   H     H_    0.127660 0.948895 0.269889 0.224995
H25   H     H_    0.054709 0.916049 0.621703 0.116010
H26   H     H_    0.356195 0.088211 0.889403 0.122453
H27   H     H_    0.264910 0.441416 0.218294 0.097017
H28   H     H_    0.291866 0.233896 0.084580 0.102924
H29   H     H_    0.567678 0.377557 0.806052 0.118378
H30   H     H_    0.616826 0.912809 0.112332 0.126778
N1    N     N_R   0.574690 0.246280 0.438200 -0.232733
N2    N     N_R   0.426100 0.754320 0.561190 -0.240721
N3    N     N_3   0.278932 0.677112 0.289260 -0.576105
N4    N     N_3   0.147227 0.881279 0.289622 -0.615804
O1    O     O_R   0.537340 0.972510 0.318130 -0.505552
O2    O     O_R   0.487200 0.806530 0.359650 -0.498428
O3    O     O_R   0.707380 0.082980 0.479220 -0.511590
O4    O     O_R   0.657240 0.917000 0.520740 -0.526196
O5    O     O_R   0.512800 0.193470 0.640350 -0.513906
O6    O     O_R   0.462660 0.027490 0.681870 -0.508650
O7    O     O_R   0.342760 0.083000 0.479260 -0.503732
O8    O     O_R   0.292620 0.917020 0.520780 -0.511053

loop_
_geom_bond_atom_site_label_1
_geom_bond_atom_site_label_2
_ccdc_geom_bond_type
C12   C29   S    
C28   H1    S    
C1    C11   S    
C7    C8    A    
C33   H12   S    
C4    O4    A    
C12   C23   S    
Cu1   O3    S    
C31   H18   S    
C36   C37   A    
C9    H29   S    
C38   H2    S    
C16   C35   S    
C5    C6    A    
C14   H9    S    
C20   C25   A    
H20   N3    S    
C15   C17   A    
C18   C19   A    
C31   H19   S    
C26   H5    S    
C31   C33   S    
C10   C35   A    
C25   N1    A    
Cu1   O1    S    
C21   C22   A    
C26   N1    A    
C19   N2    A    
C36   H30   S    
C10   H26   S    
C12   C27   S    
C1    O1    A    
C23   C30   S    
Cu2   O8    S    
C28   C32   S    
Cu1   O7    S    
C3    C8    A    
C34   H28   S    
Cu1   Cu2   S    
C13   H7    S    
C29   H15   S    
H21   N3    S    
C24   H13   S    
C30   H16   S    
C28   H4    S    
C6    C34   A    
C16   O6    A    
C11   C36   A    
C37   H3    S    
C5    C9    A    
C37   C38   A    
C2    C38   A    
C31   C32   S    
C27   O7    A    
Cu2   O6    S    
C17   C18   A    
C13   C21   A    
C10   C34   A    
C25   H8    S    
C4    C32   S    
Cu2   O4    S    
C22   H6    S    
C15   H11   S    
C22   C24   A    
C13   C26   A    
C2    C5    A    
C23   H17   S    
C28   C29   S    
H24   N4    S    
Cu2   N2    S    
C1    O2    A    
C14   N2    A    
C27   O8    A    
C17   H10   S    
C6    C7    A    
C16   O5    A    
C23   H25   S    
C2    C3    A    
C4    O3    A    
C30   C32   S    
C8    N3    S    
C19   C24   A    
C18   C20   A    
C3    C11   A    
C7    H27   S    
Cu2   O2    S    
C33   N4    S    
C20   C21   A    
C29   H14   S    
C9    C35   A    
Cu1   N1    S    
C14   C15   A    
H22   N4    S    
C12   C33   S    
C30   H23   S    
Cu1   O5    S    
