data_mof_unit_35266.cif
_audit_creation_date              2013-03-05T16:06:17-0500
_audit_creation_method            fapswitch 2.2
_symmetry_space_group_name_H-M    P1
_symmetry_Int_Tables_number       1
_space_group_crystal_system       triclinic
_cell_length_a                    10.793233
_cell_length_b                    9.73122
_cell_length_c                    27.722309
_cell_angle_alpha                 90.001434
_cell_angle_beta                  94.709909
_cell_angle_gamma                 88.537842
_cell_volume                      2900.92745394

loop_
_atom_site_label
_atom_site_type_symbol
_atom_site_description
_atom_site_fract_x
_atom_site_fract_y
_atom_site_fract_z
_atom_type_partial_charge
O1    O     O_R   0.319640 0.618740 0.500000 -0.554123
O2    O     O_R   0.680360 0.381260 0.500000 -0.535683
O3    O     O_R   0.680360 0.618740 0.500000 -0.549072
O4    O     O_R   0.319640 0.381260 0.500000 -0.548953
C1    C     C_R   0.263857 0.501633 0.504851 0.886450
C2    C     C_R   0.736865 0.498261 0.495727 0.871646
O5    O     O_R   0.500020 0.618770 0.430260 -0.564770
O6    O     O_R   0.499980 0.381230 0.569740 -0.580879
O7    O     O_R   0.499980 0.618770 0.569740 -0.577133
O8    O     O_R   0.500020 0.381230 0.430260 -0.583743
C3    C     C_R   0.498555 0.499878 0.407976 0.817717
C4    C     C_R   0.501908 0.500120 0.591997 0.824462
Cu1   Cu    Cu3+1 0.500000 0.640660 0.500000 1.027051
Cu2   Cu    Cu3+1 0.500000 0.359340 0.500000 1.016871
C5    C     C_R   0.487150 0.625011 0.179306 0.649771
C6    C     C_R   0.564989 0.390573 0.822689 0.644616
O9    O     O_2   0.461553 0.736557 0.205702 -0.413027
O10   O     O_2   0.580679 0.274552 0.797246 -0.413296
N1    N     N_R   0.514392 0.503867 0.203253 -0.460957
N2    N     N_R   0.531437 0.508886 0.797877 -0.464325
C7    C     C_R   0.542267 0.386420 0.179356 0.628720
C8    C     C_R   0.508093 0.628763 0.821230 0.638972
C9    C     C_R   0.622539 0.497578 0.285699 0.463339
C10   C     C_R   0.405910 0.509419 0.718758 0.422949
C11   C     C_R   0.615399 0.493980 0.335745 -0.221539
C12   C     C_R   0.402007 0.509321 0.668269 -0.249723
C13   C     C_R   0.389154 0.502596 0.324933 0.104118
C14   C     C_R   0.628360 0.496333 0.671690 0.093194
C15   C     C_R   0.396230 0.502112 0.274725 -0.120445
C16   C     C_R   0.632188 0.500311 0.722211 -0.121251
C17   C     C_R   0.511681 0.500086 0.254941 0.162272
C18   C     C_R   0.522432 0.507004 0.745913 0.176661
C19   C     C_R   0.522703 0.511867 0.103081 -0.087616
C20   C     C_R   0.543125 0.510750 0.898614 -0.087780
C21   C     C_R   0.488199 0.632720 0.128093 -0.157461
C22   C     C_R   0.578356 0.389587 0.874048 -0.138495
C23   C     C_R   0.457564 0.754576 0.100809 0.438523
C24   C     C_R   0.624355 0.273963 0.901921 0.390741
C25   C     C_R   0.549431 0.388697 0.129260 -0.027529
C26   C     C_R   0.509208 0.630878 0.871711 -0.019383
C27   C     C_R   0.500184 0.499036 0.355448 -0.097145
C28   C     C_R   0.511625 0.500945 0.644688 -0.069499
H1    H     H_    0.311969 0.504578 0.250594 0.173241
H2    H     H_    0.721088 0.497696 0.743488 0.189646
C29   C     C_R   0.505627 0.635032 0.973946 0.075937
C30   C     C_R   0.565102 0.390365 0.027773 0.077035
C31   C     C_R   0.574836 0.391927 0.976865 -0.003772
C32   C     C_R   0.501412 0.635156 0.025303 -0.022872
C33   C     C_R   0.541409 0.512569 0.949987 0.087542
C34   C     C_R   0.529864 0.512709 0.051901 0.084630
C35   C     C_R   0.474401 0.753371 0.945325 -0.165533
C36   C     C_R   0.587520 0.269056 0.055505 -0.172214
C37   C     C_R   0.476148 0.750835 0.895472 -0.047340
C38   C     C_R   0.581805 0.269244 0.105098 -0.093644
O11   O     O_2   0.482773 0.745337 0.795495 -0.455250
O12   O     O_2   0.562899 0.267583 0.204205 -0.452620
C39   C     C_R   0.466947 0.753713 0.050864 -0.248892
C40   C     C_R   0.620444 0.276946 0.952095 -0.277420
H3    H     H_    0.313283 0.515542 0.647072 0.209408
H4    H     H_    0.699900 0.488006 0.359623 0.229286
H5    H     H_    0.449091 0.843855 0.875443 0.221594
H6    H     H_    0.602895 0.174005 0.124496 0.234518
H7    H     H_    0.446487 0.850802 0.959730 0.156208
H8    H     H_    0.607499 0.170162 0.040192 0.163517
H9    H     H_    0.445500 0.849314 0.032632 0.199216
H10   H     H_    0.657823 0.187655 0.971336 0.180090
C41   C     C_R   0.068712 0.380387 0.516370 0.310396
C42   C     C_R   0.934240 0.619984 0.487263 0.313891
C43   C     C_R   0.943482 0.372387 0.499484 0.250111
C44   C     C_R   0.059149 0.626943 0.504413 0.301815
C45   C     C_R   0.872448 0.495158 0.491098 -0.364643
C46   C     C_R   0.129729 0.504506 0.511400 -0.367187
C47   C     C_R   0.432614 0.075700 0.464083 0.265164
C48   C     C_R   0.571391 0.924131 0.534724 0.275300
C49   C     C_R   0.566566 0.072183 0.536083 0.256025
C50   C     C_R   0.427910 0.927908 0.465496 0.264105
N3    N     N_R   0.500000 0.852070 0.500000 -0.180044
N4    N     N_R   0.500000 0.147930 0.500000 -0.183626
C51   C     C_3   0.263922 0.506651 0.345287 -0.777806
H11   H     H_    0.186855 0.507871 0.316172 0.246438
H12   H     H_    0.254361 0.414702 0.368195 0.221299
H13   H     H_    0.254123 0.600489 0.367497 0.226426
C52   C     C_3   0.749982 0.488220 0.648459 -0.781668
H14   H     H_    0.802728 0.393530 0.660896 0.268640
H15   H     H_    0.737904 0.485765 0.608381 0.193320
H16   H     H_    0.806029 0.578982 0.659255 0.250529
C53   C     C_3   0.366326 0.151974 0.421208 -0.653527
H17   H     H_    0.319190 0.246477 0.432291 0.254488
H18   H     H_    0.433893 0.172276 0.394172 0.235885
H19   H     H_    0.290043 0.097584 0.401241 0.202013
C54   C     C_3   0.658089 0.850291 0.572611 -0.667177
H20   H     H_    0.671534 0.740520 0.568115 0.260719
H21   H     H_    0.753535 0.888241 0.571300 0.246293
H22   H     H_    0.625483 0.867605 0.609145 0.206030
C55   C     C_3   0.631575 0.145177 0.579168 -0.647201
H23   H     H_    0.676511 0.238923 0.568165 0.272837
H24   H     H_    0.563809 0.166817 0.606368 0.230627
H25   H     H_    0.709570 0.087540 0.598602 0.204273
C56   C     C_3   0.343062 0.857480 0.427421 -0.665796
H26   H     H_    0.327713 0.749855 0.434014 0.255086
H27   H     H_    0.247477 0.901814 0.426368 0.252977
H28   H     H_    0.379583 0.867713 0.391325 0.214432
S1    S     S_3+6 0.401393 0.911171 0.125594 0.050167
O13   O     O_2   0.287155 0.883659 0.151298 -0.216044
O14   O     O_2   0.500121 0.968392 0.160824 -0.213702
O15   O     O_3   0.363968 0.029115 0.082059 -0.567055
H29   H     H_    0.334453 0.111176 0.099375 0.382458
S2    S     S_3+6 0.696895 0.125846 0.877480 0.072209
O16   O     O_2   0.600070 0.041673 0.849979 -0.187911
O17   O     O_2   0.791206 0.168583 0.843744 -0.216307
O18   O     O_3   0.769089 0.026454 0.921431 -0.518528
H30   H     H_    0.844209 0.077181 0.932994 0.358328
S3    S     S_3+6 0.264217 0.509621 0.746674 0.079050
O19   O     O_2   0.275700 0.416013 0.790006 -0.223393
O20   O     O_2   0.233388 0.652865 0.762983 -0.241854
O21   O     O_3   0.148141 0.455289 0.707580 -0.464102
H31   H     H_    0.116962 0.538270 0.689251 0.359304
S4    S     S_3+6 0.770757 0.501848 0.262939 0.061370
O22   O     O_2   0.806913 0.360016 0.246838 -0.229571
O23   O     O_2   0.767662 0.598888 0.220648 -0.264874
O24   O     O_3   0.876847 0.554153 0.306486 -0.496954
H32   H     H_    0.955598 0.558004 0.290604 0.377178
S5    S     S_3+6 0.137407 0.252057 0.556436 0.076392
O25   O     O_2   0.227899 0.317213 0.593081 -0.296413
O26   O     O_2   0.039573 0.183733 0.582807 -0.279058
O27   O     O_3   0.214020 0.134344 0.525335 -0.453742
H33   H     H_    0.268754 0.083722 0.550104 0.376466
S6    S     S_3+6 0.868878 0.753070 0.448515 0.103915
O28   O     O_2   0.776770 0.694549 0.410958 -0.280345
O29   O     O_2   0.803708 0.858355 0.477415 -0.224499
O30   O     O_3   0.981283 0.828330 0.420202 -0.478628
H34   H     H_    0.937203 0.897885 0.398563 0.407589
S7    S     S_3+6 0.893352 0.215880 0.472604 0.109540
O31   O     O_2   0.797817 0.242860 0.430881 -0.236688
O32   O     O_2   0.002065 0.139117 0.453833 -0.220617
O33   O     O_3   0.831168 0.119549 0.513911 -0.494352
H35   H     H_    0.898141 0.054059 0.525789 0.425271
S8    S     S_3+6 0.106439 0.777174 0.536126 0.065064
O34   O     O_2   0.217579 0.748324 0.571362 -0.291712
O35   O     O_2   0.136693 0.885037 0.500803 -0.202489
O36   O     O_3   0.988567 0.834663 0.567258 -0.550152
H36   H     H_    0.026137 0.901364 0.590768 0.397688

loop_
_geom_bond_atom_site_label_1
_geom_bond_atom_site_label_2
_geom_bond_distance
_ccdc_geom_bond_type
C53   H17   1.095766 S    
O27   H33   0.990814 S    
C13   C15   1.400205 A    
C55   H23   1.098805 S    
O3    C2    1.317528 A    
N1    C17   1.436090 S    
S6    O28   1.501840 D    
C9    S4    1.768679 S    
C55   H25   1.102245 S    
C49   C55   1.520279 S    
S5    O25   1.502214 D    
C31   C33   1.413473 A    
O21   H31   0.990742 S    
C50   C56   1.515161 S    
C5    N1    1.366453 A    
C19   C25   1.412299 A    
O1    C1    1.314378 A    
C21   C23   1.423554 A    
C10   C12   1.396853 A    
C1    C46   1.473291 S    
C13   C51   1.506473 S    
S5    O26   1.501393 D    
C25   C38   1.392716 A    
O15   H29   0.990827 S    
C29   C35   1.416195 A    
C30   C36   1.413528 A    
Cu2   N4    2.057278 S    
S2    O16   1.502381 D    
C51   H13   1.108998 S    
C41   C46   1.402514 A    
C14   C28   1.411397 A    
C43   C45   1.411802 A    
O7    Cu1   1.945077 S    
S4    O22   1.502508 D    
C47   C53   1.519479 S    
C4    C28   1.455901 S    
C24   C40   1.395307 A    
C37   H5    1.082983 S    
C40   H10   1.071950 S    
C52   H14   1.110436 S    
C48   N3    1.384871 A    
S7    O33   1.672990 S    
C43   S7    1.772949 S    
C47   N4    1.386216 A    
C11   H4    1.082368 S    
C12   H3    1.081955 S    
C42   S6    1.777035 S    
O3    Cu1   1.952901 S    
C6    N2    1.366641 A    
S3    O21   1.683600 S    
C32   C34   1.414931 A    
C10   S3    1.769733 S    
Cu1   Cu2   2.737587 S    
C15   H1    1.083598 S    
C14   C52   1.509197 S    
O4    Cu2   1.952901 S    
C16   H2    1.084004 S    
O2    C2    1.315150 A    
C5    C21   1.422735 A    
C49   N4    1.383884 A    
C36   C38   1.381264 A    
C2    C45   1.478995 S    
Cu1   N3    2.057277 S    
C48   C49   1.440934 A    
C32   C39   1.411689 A    
C35   H7    1.074414 S    
C50   N3    1.383302 A    
C36   H8    1.075763 S    
C11   C27   1.398411 A    
C54   H20   1.082918 S    
C51   H12   1.109100 S    
O33   H35   0.987162 S    
S5    O27   1.675696 S    
C38   H6    1.081254 S    
C19   C34   1.427275 A    
C41   S5    1.777775 S    
C35   C37   1.383924 A    
S4    O24   1.682349 S    
C9    C17   1.410769 A    
C48   C54   1.516392 S    
O5    C3    1.311392 A    
C10   C18   1.411357 A    
C54   H21   1.106582 S    
C13   C27   1.408661 A    
C56   H26   1.082392 S    
C7    C25   1.397463 A    
C29   C33   1.424465 A    
O6    C4    1.311017 A    
C8    C26   1.398652 A    
C56   H28   1.110585 S    
S1    O14   1.502910 D    
O24   H32   0.990350 S    
S8    O35   1.495777 D    
C6    O10   1.345615 S    
C52   H15   1.108306 S    
N2    C8    1.362065 A    
C44   S8    1.770605 S    
C53   H18   1.108935 S    
O8    Cu2   1.945077 S    
S7    O31   1.503456 D    
C47   C50   1.441038 A    
C20   C26   1.410731 A    
O1    Cu1   1.963722 S    
O30   H34   0.990472 S    
S6    O30   1.681096 S    
C12   C28   1.398523 A    
C23   S1    1.784105 S    
S3    O19   1.502660 D    
N2    C18   1.436003 S    
C29   C32   1.428176 A    
C5    O9    1.344586 S    
C30   C31   1.423879 A    
C20   C33   1.425921 A    
O6    Cu2   1.945065 S    
O18   H30   0.990726 S    
N1    C7    1.360434 A    
C39   H9    1.069745 S    
O4    C1    1.315296 A    
S8    O36   1.679393 S    
S6    O29   1.497358 D    
C7    O12   1.350239 S    
C55   H24   1.109332 S    
C8    O11   1.350097 S    
C30   C34   1.424120 A    
S2    O18   1.683115 S    
C22   C24   1.420593 A    
C15   C17   1.401763 A    
O36   H36   0.990214 S    
C6    C22   1.419262 A    
C54   H22   1.110635 S    
C16   C18   1.401140 A    
S3    O20   1.503054 D    
C42   C45   1.408766 A    
C14   C16   1.398348 A    
C19   C21   1.422179 A    
S2    O17   1.503916 D    
C3    C27   1.457770 S    
S1    O15   1.683281 S    
C20   C22   1.420631 A    
C9    C11   1.396336 A    
C24   S2    1.782994 S    
O2    Cu2   1.963722 S    
O7    C4    1.308038 A    
S4    O23   1.503116 D    
O8    C3    1.308614 A    
C51   H11   1.110292 S    
O5    Cu1   1.945065 S    
C52   H16   1.110461 S    
C42   C44   1.395554 A    
C26   C37   1.393266 A    
C53   H19   1.100827 S    
S1    O13   1.503609 D    
S7    O32   1.503708 D    
C44   C46   1.402458 A    
C41   C43   1.397707 A    
C56   H27   1.106194 S    
C23   C39   1.396578 A    
S8    O34   1.504100 D    
C31   C40   1.411792 A    
