data_mof_unit_59766.cif
_audit_creation_date              2012-12-10T18:33:41-0500
_audit_creation_method            fapswitch 2.2
_symmetry_space_group_name_H-M    P1
_symmetry_Int_Tables_number       1
_space_group_crystal_system       triclinic
_cell_length_a                    10.510241
_cell_length_b                    14.943177
_cell_length_c                    15.556304
_cell_angle_alpha                 80.959795
_cell_angle_beta                  89.579248
_cell_angle_gamma                 104.838711
_cell_volume                      2329.50118938

loop_
_atom_site_label
_atom_site_type_symbol
_atom_type_description
_atom_site_fract_x
_atom_site_fract_y
_atom_site_fract_z
_atom_type_partial_charge
C1    C     C_R   0.481549 0.440244 0.662193 0.882966
C2    C     C_R   0.519355 0.559778 0.337721 0.883213
C3    C     C_R   0.465875 0.461132 0.812939 -0.281305
C4    C     C_R   0.543650 0.538439 0.186974 -0.297713
C5    C     C_R   0.509658 0.450154 0.897724 0.045084
C6    C     C_R   0.536699 0.562900 0.096974 0.043122
C7    C     C_R   0.553592 0.368954 0.927882 0.017797
C8    C     C_R   0.508304 0.649423 0.064824 0.024740
C9    C     C_R   0.512610 0.518489 0.952301 0.047162
C10   C     C_R   0.547867 0.500032 0.039579 0.042774
C11   C     C_R   0.595405 0.420140 0.066838 -0.326431
C12   C     C_R   0.485116 0.605782 0.921735 -0.326979
C13   C     C_R   0.597389 0.354541 0.012350 0.441619
C14   C     C_R   0.483375 0.670995 0.976894 0.439548
C15   C     C_R   0.710936 0.845780 0.627026 0.052758
C16   C     C_R   0.302436 0.158769 0.362930 0.047962
C17   C     C_R   0.669175 0.754153 0.609639 0.024221
C18   C     C_R   0.337926 0.248454 0.385391 0.025674
C19   C     C_R   0.511326 0.793691 0.513628 -0.074972
C20   C     C_R   0.488478 0.205822 0.485875 -0.079934
C21   C     C_R   0.548334 0.887440 0.527218 -0.041174
C22   C     C_R   0.456061 0.113816 0.467518 -0.040900
C23   C     C_R   0.742267 0.500622 0.501027 0.911877
C24   C     C_R   0.257788 0.499516 0.498739 0.910106
C25   C     C_R   0.662340 0.916234 0.575424 0.061091
C26   C     C_R   0.346893 0.086783 0.415118 0.063165
C27   C     C_R   0.477901 0.953079 0.492373 0.047261
C28   C     C_R   0.527176 0.048377 0.500926 0.045734
C29   C     C_R   0.651893 0.077375 0.535479 -0.204510
C30   C     C_R   0.355008 0.925060 0.454874 -0.202542
C31   C     C_R   0.724093 0.013563 0.566818 0.160133
C32   C     C_R   0.286021 0.989767 0.419861 0.158723
C33   C     C_3   0.926515 0.416794 0.542819 -0.273492
C34   C     C_3   0.073724 0.583717 0.456603 -0.282350
C35   C     C_3   0.038126 0.485619 0.582705 -0.313841
C36   C     C_3   0.962035 0.514948 0.416738 -0.320455
C37   C     C_3   0.122617 0.498880 0.498282 -0.065516
C38   C     C_3   0.877553 0.501596 0.501181 -0.065957
C39   C     C_3   0.013159 0.431936 0.459316 0.527683
C40   C     C_3   0.987040 0.568627 0.540093 0.527324
C41   C     C_R   0.481828 0.402324 0.755057 -0.179598
C42   C     C_R   0.530734 0.598729 0.244358 -0.170488
C43   C     C_R   0.555343 0.303713 0.872170 -0.135978
C44   C     C_R   0.502404 0.712555 0.121910 -0.139569
C45   C     C_R   0.519744 0.319277 0.786166 0.399043
C46   C     C_R   0.517576 0.689440 0.210831 0.395467
H1    H     H_    0.073472 0.475267 0.649708 0.159849
H2    H     H_    0.926653 0.525316 0.349746 0.158794
H3    H     H_    0.558687 0.228488 0.533361 0.156438
H4    H     H_    0.438009 0.768796 0.468851 0.155913
H5    H     H_    0.298611 0.303857 0.351870 0.171800
H6    H     H_    0.711259 0.699702 0.642045 0.176151
H7    H     H_    0.699959 0.150897 0.532451 0.147202
H8    H     H_    0.306613 0.852031 0.456084 0.146126
H9    H     H_    0.863036 0.348692 0.576380 0.171028
H10   H     H_    0.137226 0.651808 0.423037 0.165688
H11   H     H_    0.550460 0.469290 0.214734 0.179144
H12   H     H_    0.422634 0.517374 0.788202 0.169194
H13   H     H_    0.587122 0.240853 0.894460 0.218126
H14   H     H_    0.485138 0.780340 0.097978 0.218040
H15   H     H_    0.637204 0.408770 0.129355 0.139646
H16   H     H_    0.468804 0.627334 0.854391 0.140310
N1    N     N_R   0.574200 0.731700 0.552740 -0.128209
N2    N     N_R   0.425800 0.268300 0.447260 -0.125210
O1    O     O_R   0.462600 0.383110 0.605620 -0.615242
O2    O     O_R   0.537400 0.616890 0.394380 -0.611612
O3    O     O_R   0.510210 0.531900 0.639510 -0.618332
O4    O     O_R   0.489790 0.468100 0.360490 -0.625384
O5    O     O_R   0.662240 0.425610 0.483080 -0.635671
O6    O     O_R   0.337760 0.574390 0.516920 -0.638104
O7    O     O_R   0.709860 0.574400 0.516970 -0.578743
O8    O     O_R   0.290140 0.425600 0.483030 -0.575706
Zn1   Zn    Zn3+2 0.468210 0.400660 0.477370 0.954513
Zn2   Zn    Zn3+2 0.531790 0.599340 0.522630 0.954512
C47   C     C_3   0.793189 0.862195 0.705914 -0.460417
C48   C     C_3   0.727226 0.797784 0.789171 -0.803917
H17   H     H_    0.625568 0.804476 0.798374 0.268686
H18   H     H_    0.724113 0.723440 0.786690 0.250260
H19   H     H_    0.783710 0.818324 0.846188 0.262204
H20   H     H_    0.891611 0.850439 0.694085 0.218013
H21   H     H_    0.806390 0.934516 0.719483 0.226040
C49   C     C_3   0.235432 0.146970 0.277630 -0.455968
C50   C     C_3   0.315828 0.214227 0.200120 -0.805369
H22   H     H_    0.319441 0.288278 0.204425 0.248824
H23   H     H_    0.417915 0.206145 0.197506 0.268031
H24   H     H_    0.269379 0.198022 0.138559 0.258559
H25   H     H_    0.224789 0.075529 0.262383 0.225009
H26   H     H_    0.136008 0.159497 0.282121 0.216585
O9    O     O_3   0.032899 0.360689 0.416541 -0.772199
H27   H     H_    0.948397 0.336628 0.389643 0.317971
O10   O     O_3   0.967474 0.640035 0.582746 -0.771732
H28   H     H_    0.054710 0.668767 0.604050 0.319937
O11   O     O_3   0.642946 0.276292 0.040270 -0.779250
H29   H     H_    0.668021 0.275698 0.101641 0.333542
O12   O     O_3   0.453331 0.754954 0.946658 -0.780877
H30   H     H_    0.425999 0.755636 0.885761 0.331332
O13   O     O_3   0.510929 0.754839 0.262681 -0.764714
H31   H     H_    0.587296 0.760219 0.300206 0.348117
O14   O     O_3   0.529311 0.254298 0.734441 -0.769074
H32   H     H_    0.449724 0.243510 0.699904 0.348497
C51   C     C_3   0.871219 0.052600 0.576683 -0.453726
C52   C     C_3   0.941358 0.111753 0.492095 -0.813261
H33   H     H_    0.917532 0.072174 0.437005 0.254216
H34   H     H_    0.911993 0.178384 0.477125 0.270154
H35   H     H_    0.049706 0.129314 0.498943 0.261213
H36   H     H_    0.886381 0.095872 0.629500 0.217505
H37   H     H_    0.921782 0.996211 0.592519 0.213579
C53   C     C_3   0.141853 0.951866 0.400737 -0.454370
C54   C     C_3   0.061189 0.887941 0.479847 -0.818439
H38   H     H_    0.085664 0.819286 0.491754 0.266727
H39   H     H_    0.080231 0.921638 0.538872 0.255351
H40   H     H_    0.954396 0.874530 0.467830 0.259581
H41   H     H_    0.092811 0.008999 0.383594 0.213969
H42   H     H_    0.135410 0.912391 0.345366 0.216606

loop_
_geom_bond_atom_site_label_1
_geom_bond_atom_site_label_2
_ccdc_geom_bond_type
C33   H9    S    
C15   C47   S    
C26   C32   A    
O11   H29   S    
C34   C37   S    
C23   O5    A    
O12   H30   S    
C48   H19   S    
C35   H1    S    
O13   H31   S    
C24   O6    A    
C34   H10   S    
C30   H8    S    
C33   C39   S    
C4    C42   A    
C34   C40   S    
C31   C51   S    
C28   C29   A    
C35   C37   S    
C48   H18   S    
C2    O4    A    
C54   H39   S    
C15   C25   A    
C49   H25   S    
O2    Zn2   S    
O1    Zn1   S    
C53   C54   S    
C52   H35   S    
C42   C46   A    
C53   H42   S    
C33   C35   S    
O14   H32   S    
C19   N1    A    
C4    H11   S    
O6    Zn2   S    
C1    O1    A    
N2    Zn1   S    
O5    Zn1   S    
C7    C43   A    
C9    C10   A    
C43   H13   S    
C21   C27   A    
C38   C40   S    
C22   C28   A    
C27   C30   A    
C17   H6    S    
C44   C46   A    
C18   H5    S    
C16   C26   A    
C37   C39   S    
C51   C52   S    
C23   O7    A    
C48   H17   S    
C4    C6    A    
C45   O14   S    
C54   H40   S    
O10   H28   S    
C5    C7    A    
C47   H21   S    
C6    C8    A    
C11   H15   S    
O4    Zn1   S    
C13   O11   S    
C53   H41   S    
C20   N2    A    
C47   C48   S    
C5    C9    A    
C20   H3    S    
C12   H16   S    
C50   H22   S    
C16   C49   S    
C24   C37   S    
O3    Zn2   S    
C44   H14   S    
C52   H34   S    
C43   C45   A    
C51   H37   S    
C1    C41   S    
C50   H23   S    
C46   O13   S    
C12   C14   A    
C32   C53   S    
C14   O12   S    
C24   O8    A    
C47   H20   S    
C51   H36   S    
C15   C17   A    
C21   C25   A    
C3    C41   A    
C8    C14   A    
C19   C21   A    
C25   C31   A    
C36   C39   S    
C8    C44   A    
C20   C22   A    
O8    Zn1   S    
C3    C5    A    
C6    C10   A    
O7    Zn2   S    
C2    O2    A    
N1    Zn2   S    
C23   C38   S    
C33   C38   S    
C36   C38   S    
C35   C40   S    
C29   C31   A    
C54   H38   S    
C17   N1    A    
C30   C32   A    
C11   C13   A    
C19   H4    S    
C18   N2    A    
C29   H7    S    
C2    C42   S    
C49   H26   S    
C1    O3    A    
C36   H2    S    
C34   C36   S    
C40   O10   S    
C52   H33   S    
C9    C12   A    
C10   C11   A    
C3    H12   S    
C7    C13   A    
C50   H24   S    
C16   C18   A    
C49   C50   S    
C22   C26   A    
C27   C28   A    
C41   C45   A    
O9    H27   S    
C39   O9    S    
