data_mof_unit_27282.cif
_audit_creation_date              2012-12-10T19:12:58-0500
_audit_creation_method            fapswitch 2.2
_symmetry_space_group_name_H-M    P1
_symmetry_Int_Tables_number       1
_space_group_crystal_system       triclinic
_cell_length_a                    8.741451
_cell_length_b                    16.011224
_cell_length_c                    14.766644
_cell_angle_alpha                 90.170418
_cell_angle_beta                  97.958426
_cell_angle_gamma                 89.967341
_cell_volume                      2046.84466831

loop_
_atom_site_label
_atom_site_type_symbol
_atom_type_description
_atom_site_fract_x
_atom_site_fract_y
_atom_site_fract_z
_atom_type_partial_charge
C1    C     C_R   0.499912 0.340986 0.499839 0.825321
C2    C     C_R   0.499726 0.659021 0.500136 0.825451
C3    C     C_R   0.500283 0.499931 0.902885 0.058324
C4    C     C_R   0.500498 0.499863 0.097174 0.058247
C5    C     C_R   0.460260 0.427739 0.948591 -0.162342
C6    C     C_R   0.540707 0.572016 0.051480 -0.162484
C7    C     C_1   0.500075 0.499980 0.802721 0.109972
C8    C     C_1   0.500261 0.499921 0.197305 0.110188
C9    C     C_R   0.203151 0.500001 0.476795 0.881540
C10   C     C_R   0.796848 0.499997 0.523205 0.882281
C11   C     C_2   0.037730 0.500006 0.463737 -0.369954
C12   C     C_2   0.962267 0.499988 0.536262 -0.370126
C13   C     C_R   0.507276 0.956771 0.584555 0.033565
C14   C     C_R   0.483134 0.043277 0.415076 0.033885
C15   C     C_R   0.496477 0.912607 0.500900 0.030310
C16   C     C_R   0.496468 0.087434 0.498804 0.030372
C17   C     C_R   0.484652 0.955110 0.416692 -0.049485
C18   C     C_R   0.508750 0.044945 0.583040 -0.049532
C19   C     C_1   0.497485 0.822691 0.500854 -0.039958
C20   C     C_1   0.497717 0.177338 0.498893 -0.040254
C21   C     C_1   0.498850 0.252189 0.499366 -0.173828
C22   C     C_1   0.498567 0.747832 0.500460 -0.173796
C23   C     C_R   0.540552 0.572067 0.955675 -0.165034
C24   C     C_R   0.460432 0.427690 0.044402 -0.164209
Cu1   Cu    Cu3+1 0.500040 0.500000 0.589220 0.974446
Cu2   Cu    Cu3+1 0.499960 0.500000 0.410780 0.974383
H1    H     H_    0.977793 0.500027 0.394113 0.179321
H2    H     H_    0.022204 0.499966 0.605887 0.179203
H3    H     H_    0.572480 0.628538 0.089972 0.123465
H4    H     H_    0.428596 0.371187 0.910109 0.122582
H5    H     H_    0.572028 0.628686 0.922777 0.125473
H6    H     H_    0.429078 0.371057 0.077314 0.124674
N1    N     N_1   0.500050 0.499980 0.276720 -0.154717
N2    N     N_1   0.499950 0.500020 0.723280 -0.154774
O1    O     O_R   0.500070 0.380310 0.575330 -0.565864
O2    O     O_R   0.499930 0.619690 0.424670 -0.565860
O3    O     O_R   0.500000 0.380310 0.424640 -0.577698
O4    O     O_R   0.500000 0.619690 0.575360 -0.577700
O5    O     O_R   0.274870 0.500000 0.557960 -0.573854
O6    O     O_R   0.725130 0.500000 0.442040 -0.573345
O7    O     O_R   0.274790 0.500000 0.407270 -0.582081
O8    O     O_R   0.725210 0.500000 0.592730 -0.581324
C25   C     C_R   0.525061 0.093717 0.669389 0.131480
C26   C     C_R   0.672278 0.111950 0.715958 -0.143158
C27   C     C_R   0.687559 0.159405 0.796355 -0.131162
C28   C     C_R   0.556159 0.189176 0.830287 -0.107074
C29   C     C_R   0.409236 0.171598 0.783803 -0.136281
C30   C     C_R   0.393478 0.124047 0.703445 -0.156564
H7    H     H_    0.774746 0.089796 0.689742 0.112934
H8    H     H_    0.801250 0.173317 0.832201 0.123345
H9    H     H_    0.568223 0.225956 0.892483 0.118133
H10   H     H_    0.307631 0.194921 0.809974 0.122040
H11   H     H_    0.279272 0.110958 0.667682 0.121058
C31   C     C_R   0.475000 0.906378 0.330537 0.132528
C32   C     C_R   0.331171 0.878795 0.286638 -0.163098
C33   C     C_R   0.322404 0.831554 0.206285 -0.128981
C34   C     C_R   0.456993 0.811462 0.169661 -0.107160
C35   C     C_R   0.600620 0.838416 0.213466 -0.137742
C36   C     C_R   0.609858 0.885656 0.293851 -0.138568
H12   H     H_    0.226397 0.893877 0.314701 0.121030
H13   H     H_    0.211335 0.810454 0.172458 0.124859
H14   H     H_    0.449964 0.774967 0.107417 0.116496
H15   H     H_    0.704768 0.822560 0.185223 0.121579
H16   H     H_    0.721664 0.905809 0.327663 0.113047
C37   C     C_3   0.515911 0.909516 0.674635 -0.384921
C38   C     C_3   0.680777 0.879026 0.706948 -0.326332
C39   C     C_3   0.688447 0.829534 0.795620 -0.856254
H17   H     H_    0.651484 0.869130 0.850575 0.252267
H18   H     H_    0.612745 0.773624 0.785218 0.255869
H19   H     H_    0.808956 0.808559 0.817501 0.240450
H20   H     H_    0.721619 0.838496 0.653996 0.223645
H21   H     H_    0.759936 0.933422 0.718603 0.212671
H22   H     H_    0.476471 0.948777 0.728991 0.200487
H23   H     H_    0.434986 0.855633 0.666524 0.199313
C40   C     C_3   0.467273 0.090535 0.324740 -0.385841
C41   C     C_3   0.625293 0.119640 0.302989 -0.326702
C42   C     C_3   0.609270 0.169088 0.213983 -0.853192
H24   H     H_    0.555320 0.129831 0.156076 0.251972
H25   H     H_    0.537361 0.225642 0.219464 0.255795
H26   H     H_    0.725264 0.189033 0.199860 0.240812
H27   H     H_    0.682550 0.159811 0.359154 0.224427
H28   H     H_    0.700389 0.064559 0.296481 0.212842
H29   H     H_    0.410937 0.051652 0.267287 0.200560
H30   H     H_    0.389347 0.145081 0.327594 0.198614

loop_
_geom_bond_atom_site_label_1
_geom_bond_atom_site_label_2
_ccdc_geom_bond_type
C26   H7    S    
C32   C33   A    
C1    C21   S    
C10   O8    A    
C3    C23   A    
C4    C8    S    
C40   H29   S    
C34   H14   S    
C13   C37   S    
C42   H24   S    
C15   C19   S    
C36   H16   S    
C13   C18   A    
C12   H2    S    
C3    C7    S    
C4    C24   A    
C40   H30   S    
C9    O5    A    
C37   H22   S    
C33   C34   A    
C10   O6    A    
C28   C29   A    
C38   H21   S    
C38   H20   S    
C2    C22   S    
C25   C30   A    
C1    O3    A    
Cu1   N2    S    
C38   C39   S    
C32   H12   S    
C14   C17   A    
C31   C36   A    
C42   H25   S    
C30   H11   S    
C39   H17   S    
C19   C22   T    
C41   C42   S    
C4    C6    A    
C41   H28   S    
C35   C36   A    
C27   C28   A    
C28   H9    S    
C37   H23   S    
C39   H18   S    
C23   H5    S    
C41   H27   S    
C40   C41   S    
C24   H6    S    
Cu1   O4    S    
C2    O4    A    
Cu2   N1    S    
C29   C30   A    
C11   H1    S    
C16   C20   S    
C9    C11   S    
C10   C12   S    
Cu1   O1    S    
Cu2   O2    S    
C13   C15   A    
C25   C26   A    
C7    N2    T    
C14   C16   A    
C26   C27   A    
C1    O1    A    
C5    H4    S    
C42   H26   S    
C2    O2    A    
C35   H15   S    
C15   C17   A    
C31   C32   A    
C3    C5    A    
Cu1   O8    S    
C11   C12   D    
Cu2   O3    S    
C29   H10   S    
C9    O7    A    
C39   H19   S    
C14   C40   S    
Cu1   Cu2   S    
C18   C25   S    
Cu1   O5    S    
Cu2   O6    S    
C34   C35   A    
C5    C24   A    
C27   H8    S    
C6    C23   A    
C8    N1    T    
C6    H3    S    
C20   C21   T    
C16   C18   A    
C37   C38   S    
C33   H13   S    
C17   C31   S    
Cu2   O7    S    
