data_mof_unit_8311.cif
_audit_creation_date              2012-12-11T14:57:57-0500
_audit_creation_method            fapswitch 2.2
_symmetry_space_group_name_H-M    P1
_symmetry_Int_Tables_number       1
_space_group_crystal_system       triclinic
_cell_length_a                    6.943577
_cell_length_b                    16.782692
_cell_length_c                    16.995246
_cell_angle_alpha                 100.368985
_cell_angle_beta                  89.424629
_cell_angle_gamma                 91.577437
_cell_volume                      1947.38093112

loop_
_atom_site_label
_atom_site_type_symbol
_atom_type_description
_atom_site_fract_x
_atom_site_fract_y
_atom_site_fract_z
_atom_type_partial_charge
O1    O     O_R   0.506180 0.438940 0.579430 -0.540018
O2    O     O_R   0.170520 0.406230 0.413590 -0.540742
O3    O     O_R   0.005180 0.561060 0.420570 -0.536377
C1    C     C_R   0.338851 0.383156 0.385096 0.694134
O4    O     O_R   0.176140 0.429310 0.578370 -0.546692
O5    O     O_R   0.010830 0.584300 0.586530 -0.534914
C2    C     C_R   0.341817 0.413248 0.605067 0.696199
O6    O     O_R   0.500520 0.415700 0.413470 -0.534825
O7    O     O_3   0.340830 0.550820 0.502480 -0.363704
V1    V     V_3+5 0.064040 0.490570 0.499540 1.412563
O8    O     O_R   0.681400 0.593770 0.586410 -0.538145
C3    C     C_R   0.851252 0.616514 0.614731 0.694359
O9    O     O_R   0.675790 0.570690 0.421630 -0.539126
C4    C     C_R   0.846684 0.586449 0.395177 0.693671
V2    V     V_3+5 0.564650 0.509430 0.500460 1.421863
O10   O     O_3   0.837730 0.449180 0.497520 -0.370481
C5    C     C_R   0.904509 0.862713 0.167703 -0.059971
C6    C     C_R   0.864100 0.636306 0.331712 -0.049244
C7    C     C_R   0.956427 0.648454 0.195415 -0.183340
C8    C     C_R   0.932331 0.601648 0.255504 -0.180418
C9    C     C_R   0.823595 0.719305 0.347765 -0.234939
C10   C     C_R   0.852254 0.767334 0.288244 0.158147
C11   C     C_R   0.917372 0.731504 0.211052 0.162341
C12   C     C_R   0.942546 0.779409 0.151125 -0.244142
C13   C     C_R   0.847034 0.897956 0.245277 -0.144123
C14   C     C_R   0.819465 0.850825 0.304777 -0.192804
H1    H     H_    0.989090 0.751912 0.091560 0.105435
H2    H     H_    0.825545 0.962488 0.260177 0.160930
H3    H     H_    0.007331 0.619827 0.136932 0.117811
H4    H     H_    0.773418 0.879823 0.363880 0.120546
H5    H     H_    0.966107 0.537962 0.242403 0.116834
H6    H     H_    0.774350 0.746683 0.406976 0.104340
H7    H     H_    0.640832 0.641600 0.973548 0.114202
C15   C     C_R   0.039985 0.901572 0.726170 -0.144380
C16   C     C_R   0.098329 0.912681 0.650118 -0.122439
C17   C     C_R   0.080049 0.849390 0.585315 -0.124675
C18   C     C_R   0.003679 0.774439 0.596089 -0.133138
C19   C     C_R   0.944435 0.761087 0.672706 0.070803
C20   C     C_R   0.962708 0.826020 0.739112 0.067749
C21   C     C_R   0.864753 0.685050 0.683507 -0.184513
C22   C     C_R   0.802807 0.674031 0.760711 0.067369
C23   C     C_R   0.821060 0.738967 0.827116 0.070583
C24   C     C_R   0.900823 0.814992 0.816321 -0.181939
C25   C     C_R   0.725472 0.598487 0.773648 -0.143642
C26   C     C_R   0.667016 0.587392 0.849690 -0.123378
C27   C     C_R   0.685253 0.650689 0.914490 -0.124886
C28   C     C_R   0.761710 0.725628 0.903724 -0.132931
H8    H     H_    0.055217 0.953026 0.774385 0.105356
H9    H     H_    0.157070 0.970900 0.641382 0.117377
H10   H     H_    0.124368 0.858493 0.526248 0.114020
H11   H     H_    0.990270 0.727491 0.543579 0.098862
H12   H     H_    0.710256 0.547031 0.725434 0.105771
H13   H     H_    0.608212 0.529181 0.858421 0.116437
H14   H     H_    0.775071 0.772579 0.956232 0.097505
H15   H     H_    0.632610 0.482399 0.156979 0.119722
C29   C     C_R   0.180332 0.222344 0.390443 -0.145223
C30   C     C_R   0.112468 0.145739 0.398142 -0.115585
C31   C     C_R   0.159290 0.079275 0.341284 -0.192194
C32   C     C_R   0.273812 0.088139 0.274997 -0.003524
C33   C     C_R   0.326782 0.167745 0.260286 0.064367
C34   C     C_R   0.285250 0.235560 0.321923 0.051476
C35   C     C_R   0.416863 0.182114 0.187434 -0.181863
C36   C     C_R   0.475781 0.262278 0.180011 0.051655
C37   C     C_R   0.445059 0.328173 0.244096 0.078980
C38   C     C_R   0.351423 0.314906 0.315370 -0.184718
C39   C     C_R   0.561960 0.278880 0.108444 -0.144066
C40   C     C_R   0.619258 0.357333 0.100891 -0.116668
C41   C     C_R   0.589914 0.421379 0.163478 -0.136465
C42   C     C_R   0.502731 0.407448 0.234023 -0.138744
H16   H     H_    0.147094 0.270807 0.439133 0.121589
H17   H     H_    0.029534 0.137420 0.450495 0.119301
H18   H     H_    0.115449 0.019595 0.351903 0.106229
H19   H     H_    0.585602 0.231940 0.057063 0.104151
H20   H     H_    0.685277 0.368546 0.045800 0.112426
H21   H     H_    0.477897 0.459969 0.279728 0.112856
C43   C     C_R   0.430384 0.140708 0.834250 -0.067618
C44   C     C_R   0.335351 0.359445 0.665965 -0.071420
C45   C     C_R   0.145317 0.298294 0.762791 -0.204513
C46   C     C_R   0.164458 0.353432 0.710438 -0.164917
C47   C     C_R   0.489016 0.309543 0.676274 -0.245333
C48   C     C_R   0.469644 0.253068 0.728414 0.159904
C49   C     C_R   0.296065 0.247101 0.771821 0.159824
C50   C     C_R   0.276704 0.190620 0.823962 -0.247134
C51   C     C_R   0.601257 0.146725 0.789762 -0.164758
C52   C     C_R   0.620390 0.201873 0.737429 -0.204739
H22   H     H_    0.144866 0.187268 0.858085 0.122411
H23   H     H_    0.722250 0.108929 0.795901 0.127224
H24   H     H_    0.011714 0.295306 0.795745 0.121075
H25   H     H_    0.753993 0.204865 0.704470 0.121503
H26   H     H_    0.043476 0.391221 0.704271 0.127867
H27   H     H_    0.620851 0.312885 0.642153 0.123163
O11   O     O_R   0.265840 0.084300 0.086750 -0.547331
O12   O     O_R   0.589750 0.070740 0.921690 -0.550656
O13   O     O_R   0.755020 0.915730 0.913400 -0.538349
C53   C     C_R   0.424004 0.086852 0.895104 0.680886
O14   O     O_R   0.595830 0.093740 0.086480 -0.521075
O15   O     O_R   0.761150 0.938890 0.079360 -0.504631
C54   C     C_R   0.427430 0.116267 0.115604 0.769645
O16   O     O_R   0.259710 0.061140 0.920790 -0.543108
O17   O     O_3   0.425260 0.949200 0.997610 -0.359336
V3    V     V_3+5 0.702060 0.009430 0.000450 1.464773
O18   O     O_R   0.090530 0.929220 0.078150 -0.548124
C55   C     C_R   0.919958 0.913026 0.104394 0.708363
O19   O     O_R   0.084440 0.906220 0.913360 -0.540570
C56   C     C_R   0.914512 0.883504 0.885115 0.683957
V4    V     V_3+5 0.201450 0.990520 0.999290 1.433947
O20   O     O_3   0.928380 0.050800 0.002390 -0.376109
C57   C     C_2   0.350875 0.011533 0.230982 0.341522
H28   H     H_    0.261630 0.956650 0.222137 0.055840
O21   O     O_2   0.519518 0.007143 0.210868 -0.541166

loop_
_geom_bond_atom_site_label_1
_geom_bond_atom_site_label_2
_ccdc_geom_bond_type
V3    O20   S    
O13   C56   A    
C6    C9    A    
C22   C23   A    
C4    C6    S    
O2    C1    A    
C7    C8    A    
C12   H1    S    
C1    O6    A    
C43   C51   A    
O19   V4    S    
H15   C41   S    
O11   C54   A    
C26   C27   A    
C29   C30   A    
C13   H2    S    
C35   C36   A    
C17   C18   A    
C43   C53   S    
O5    C3    A    
C19   C20   A    
C18   H11   S    
C53   O16   A    
V4    O20   S    
V2    O10   S    
C57   H28   S    
C33   C35   A    
C15   C16   A    
C24   C56   S    
C46   H26   S    
C35   C54   S    
O8    V2    S    
C16   C17   A    
O13   V3    S    
C41   C42   A    
O14   C54   A    
C16   H9    S    
C11   C12   A    
C51   H23   S    
C42   H21   S    
O1    V2    S    
O9    C4    A    
O7    V1    S    
C2    C44   S    
C25   H12   S    
C39   C40   A    
C36   C39   A    
C26   H13   S    
C32   C33   A    
O12   C53   A    
O14   V3    S    
H7    C27   S    
C43   C50   A    
O19   C56   A    
C48   C49   A    
C44   C46   A    
C9    H6    S    
C5    C12   A    
C40   C41   A    
C51   C52   A    
O12   V3    S    
O4    C2    A    
C52   H25   S    
C45   C46   A    
C20   C24   A    
C31   C32   A    
C39   H19   S    
C15   C20   A    
C33   C34   A    
C3    C21   S    
C7    C11   A    
C18   C19   A    
C45   C49   A    
C5    C55   S    
C29   C34   A    
C40   H20   S    
C37   C42   A    
C30   H17   S    
O15   C55   A    
O3    C4    A    
C28   H14   S    
O11   V4    S    
C21   C22   A    
C14   H4    S    
O6    V2    S    
C29   H16   S    
O9    V2    S    
C22   C25   A    
C15   H8    S    
C23   C24   A    
O2    V1    S    
C17   H10   S    
C25   C26   A    
C44   C47   A    
C45   H24   S    
O16   V4    S    
C27   C28   A    
O1    C2    A    
C47   C48   A    
O5    V1    S    
O8    C3    A    
O17   V4    S    
C32   C57   S    
C5    C13   A    
C37   C38   A    
C47   H27   S    
C13   C14   A    
O4    V1    S    
O3    V1    S    
V1    O10   S    
C19   C21   A    
C31   H18   S    
C30   C31   A    
C1    C38   S    
O17   V3    S    
C57   O21   D    
O18   V4    S    
C6    C8    A    
C23   C28   A    
O7    V2    S    
O18   C55   A    
O15   V3    S    
C36   C37   A    
C34   C38   A    
C50   H22   S    
C49   C50   A    
C10   C14   A    
C10   C11   A    
C9    C10   A    
C48   C52   A    
C8    H5    S    
C7    H3    S    
