data_mof_unit_43974.cif
_audit_creation_date              2012-12-11T15:36:46-0500
_audit_creation_method            fapswitch 2.2
_symmetry_space_group_name_H-M    P1
_symmetry_Int_Tables_number       1
_space_group_crystal_system       triclinic
_cell_length_a                    15.003553
_cell_length_b                    15.061102
_cell_length_c                    34.884357
_cell_angle_alpha                 91.614159
_cell_angle_beta                  91.686496
_cell_angle_gamma                 60.164472
_cell_volume                      6834.21421738

loop_
_atom_site_label
_atom_site_type_symbol
_atom_type_description
_atom_site_fract_x
_atom_site_fract_y
_atom_site_fract_z
_atom_type_partial_charge
C1    C     C_R   0.611120 0.301874 0.443868 0.560420
C2    C     C_R   0.709580 0.672459 0.177346 0.038573
C3    C     C_R   0.632553 0.121704 0.825943 0.073059
C4    C     C_R   0.714384 0.127792 0.843871 0.279367
C5    C     C_R   0.731505 0.112980 0.883483 0.069976
C6    C     C_R   0.583334 0.233343 0.768827 0.109317
C7    C     C_R   0.585894 0.244082 0.729271 -0.097525
C8    C     C_R   0.623204 0.158377 0.704770 0.033288
C9    C     C_R   0.654588 0.061687 0.719579 -0.102893
C10   C     C_R   0.651831 0.049883 0.759203 0.053961
C11   C     C_R   0.617669 0.135881 0.784033 0.128447
C12   C     C_R   0.533879 0.212270 0.641889 0.268894
C13   C     C_R   0.795965 0.600969 0.156653 0.096545
C14   C     C_R   0.533032 0.242938 0.604126 -0.177379
C15   C     C_R   0.713908 0.192088 0.609628 0.239989
C16   C     C_R   0.715384 0.160387 0.647164 -0.161486
C17   C     C_R   0.625529 0.172677 0.663476 -0.003687
C18   C     C_R   0.620053 0.240685 0.588795 -0.023952
C19   C     C_R   0.046225 0.739233 0.048421 0.575505
C20   C     C_R   0.746290 0.746271 0.063780 0.558014
C21   C     C_R   0.750837 0.041057 0.050686 0.552619
C22   C     C_R   0.015757 0.722773 0.939378 0.536189
C23   C     C_R   0.717278 0.729468 0.954899 0.562029
C24   C     C_R   0.809344 0.622832 0.119053 0.294940
C25   C     C_R   0.721284 0.025034 0.941888 0.582515
C26   C     C_R   0.662324 0.602859 0.232304 0.103427
C27   C     C_R   0.655944 0.596703 0.271926 -0.042156
C28   C     C_R   0.691101 0.647226 0.297243 0.044750
C29   C     C_R   0.731995 0.705036 0.283106 -0.134492
C30   C     C_R   0.738820 0.711423 0.243772 -0.127149
C31   C     C_R   0.704361 0.660533 0.218447 0.082308
C32   C     C_R   0.625485 0.728136 0.360632 -0.165907
C33   C     C_R   0.593820 0.609341 0.449403 0.563308
C34   C     C_R   0.600546 0.721123 0.398351 0.071904
C35   C     C_R   0.700031 0.535573 0.392354 -0.150409
C36   C     C_R   0.727390 0.542263 0.355044 0.266273
C37   C     C_R   0.683618 0.639253 0.338531 0.023429
C38   C     C_R   0.633903 0.623941 0.413652 0.018979
C39   C     C_R   0.106132 0.729291 0.084239 0.024881
C40   C     C_R   0.172578 0.631687 0.099663 0.202539
C41   C     C_R   0.198927 0.623313 0.138897 -0.131024
C42   C     C_R   0.163624 0.711075 0.162168 -0.031607
C43   C     C_R   0.110358 0.807653 0.145717 -0.090675
C44   C     C_R   0.303896 0.591137 0.442261 0.565652
C45   C     C_R   0.083770 0.817569 0.106695 0.219043
C46   C     C_R   0.268475 0.664856 0.222196 -0.143698
C47   C     C_R   0.278741 0.654262 0.262118 0.071569
C48   C     C_R   0.191137 0.681084 0.284070 0.096756
C49   C     C_R   0.093949 0.719271 0.266192 0.105762
C50   C     C_R   0.084429 0.729903 0.225948 0.110795
C51   C     C_R   0.172313 0.702347 0.204149 0.026321
C52   C     C_R   0.220746 0.571576 0.340784 0.105712
C53   C     C_R   0.244438 0.552921 0.379911 -0.155297
C54   C     C_R   0.228557 0.720880 0.389314 0.251725
C55   C     C_R   0.605726 0.299063 0.553385 0.541631
C56   C     C_R   0.201811 0.740481 0.350206 -0.107734
C57   C     C_R   0.202742 0.664770 0.325794 0.078861
C58   C     C_R   0.253216 0.624715 0.404092 0.010798
C59   C     C_R   0.722516 0.102356 0.086590 0.021345
C60   C     C_R   0.793766 0.123824 0.105569 -0.096517
C61   C     C_R   0.779778 0.156570 0.143813 -0.110057
C62   C     C_R   0.692690 0.171640 0.163115 0.025427
C63   C     C_R   0.616221 0.160735 0.143159 -0.122763
C64   C     C_R   0.631271 0.125662 0.105152 -0.133113
C65   C     C_R   0.609419 0.269357 0.222848 -0.117624
C66   C     C_R   0.588849 0.607896 0.558668 0.566588
C67   C     C_R   0.603496 0.275069 0.262787 -0.110811
C68   C     C_R   0.675866 0.193444 0.285276 0.073513
C69   C     C_R   0.754711 0.106594 0.267152 -0.074176
C70   C     C_R   0.761952 0.101971 0.227347 -0.114308
C71   C     C_R   0.688974 0.182862 0.205022 0.030119
C72   C     C_R   0.751024 0.179285 0.351899 0.300329
C73   C     C_R   0.735511 0.199428 0.391658 0.249386
C74   C     C_R   0.553882 0.251389 0.382373 0.040384
C75   C     C_R   0.571188 0.228673 0.343209 -0.180936
C76   C     C_R   0.666838 0.199131 0.327504 -0.024896
C77   C     C_R   0.297410 0.589545 0.551780 0.559704
C78   C     C_R   0.634437 0.245205 0.406440 -0.004402
C79   C     C_R   0.692777 0.688678 0.919411 0.008279
C80   C     C_R   0.767420 0.596589 0.901688 0.076425
C81   C     C_R   0.754784 0.576927 0.863060 -0.160823
C82   C     C_R   0.669149 0.647230 0.841874 0.054238
C83   C     C_R   0.588912 0.732410 0.860555 0.295303
C84   C     C_R   0.600661 0.751569 0.899285 -0.136127
C85   C     C_R   0.599307 0.612711 0.781134 0.135354
C86   C     C_R   0.595177 0.607838 0.740813 0.057318
C87   C     C_R   0.658945 0.631838 0.719187 0.046387
C88   C     C_R   0.732616 0.713365 0.101570 -0.021887
C89   C     C_R   0.728645 0.655940 0.737867 0.142392
C90   C     C_R   0.734283 0.658076 0.778055 0.050410
C91   C     C_R   0.669107 0.636694 0.799723 0.033530
C92   C     C_R   0.727191 0.551914 0.654853 0.268705
C93   C     C_R   0.713953 0.550574 0.614597 0.214568
C94   C     C_R   0.556387 0.715691 0.618737 0.245635
C95   C     C_R   0.569824 0.717842 0.658518 0.061934
C96   C     C_R   0.652036 0.633600 0.676875 -0.018015
C97   C     C_R   0.622697 0.627247 0.597069 -0.048260
C98   C     C_R   0.058163 0.701226 0.900610 0.002859
C99   C     C_R   0.643424 0.779657 0.121909 -0.166613
C100  C     C_R   0.062325 0.778729 0.880682 -0.136792
C101  C     C_R   0.081768 0.767637 0.841695 -0.149071
C102  C     C_R   0.098185 0.678753 0.821959 0.062907
C103  C     C_R   0.099580 0.597854 0.841886 0.111133
C104  C     C_R   0.079973 0.609685 0.881315 -0.105991
C105  C     C_R   0.200577 0.595229 0.764012 -0.066295
C106  C     C_R   0.214326 0.591534 0.724399 0.148452
C107  C     C_R   0.135999 0.666683 0.701163 0.089497
C108  C     C_R   0.046346 0.744958 0.717572 -0.158024
C109  C     C_R   0.033739 0.748336 0.757044 -0.135840
C110  C     C_R   0.631949 0.760758 0.159770 0.072327
C111  C     C_R   0.110699 0.673376 0.780318 0.022415
C112  C     C_R   0.180247 0.730676 0.644726 -0.177716
C113  C     C_R   0.221381 0.712835 0.607982 0.062068
C114  C     C_R   0.192371 0.568020 0.600341 -0.147374
C115  C     C_R   0.149989 0.587165 0.636720 0.278427
C116  C     C_R   0.150297 0.664764 0.659801 0.027019
C117  C     C_R   0.232984 0.627059 0.586266 0.009612
C118  C     C_R   0.677198 0.076186 0.904484 0.017936
C119  C     C_R   0.590741 0.076596 0.886928 0.080996
C120  C     C_R   0.566730 0.102519 0.847925 0.075013
Cr1   Cr    Cr6+3 0.426010 0.422500 0.497000 1.008957
Cr2   Cr    Cr6+3 0.651300 0.426310 0.501970 1.039180
Cr3   Cr    Cr6+3 0.422670 0.651170 0.501050 1.081018
Cr4   Cr    Cr6+3 0.905130 0.911420 0.992650 1.040681
Cr5   Cr    Cr6+3 0.911860 0.682710 0.002320 1.078132
Cr6   Cr    Cr6+3 0.682710 0.906840 0.004710 1.027238
H1    H     H_    0.583676 0.849052 0.108881 0.144364
H2    H     H_    0.724789 0.460535 0.403683 0.151962
H3    H     H_    0.182727 0.813789 0.338478 0.105452
H4    H     H_    0.335439 0.643781 0.205055 0.104609
H5    H     H_    0.241124 0.548325 0.151630 0.125440
H6    H     H_    0.261949 0.479405 0.390940 0.151266
H7    H     H_    0.084386 0.875799 0.163605 0.135627
H8    H     H_    0.863768 0.108498 0.091825 0.161719
H9    H     H_    0.574527 0.110768 0.091154 0.124682
H10   H     H_    0.508241 0.238348 0.324414 0.118254
H11   H     H_    0.542101 0.342981 0.276172 0.099098
H12   H     H_    0.552129 0.331970 0.205876 0.104120
H13   H     H_    0.839243 0.165144 0.158929 0.122136
H14   H     H_    0.809170 0.041297 0.283596 0.108782
H15   H     H_    0.822549 0.033779 0.213800 0.107448
H16   H     H_    0.548659 0.171893 0.157828 0.113023
H17   H     H_    0.540334 0.820283 0.912636 0.147820
H18   H     H_    0.622861 0.553334 0.283156 0.137157
H19   H     H_    0.814866 0.509329 0.848974 0.114168
H20   H     H_    0.045827 0.850176 0.894777 0.134667
H21   H     H_    0.076655 0.549576 0.896421 0.122117
H22   H     H_    0.260549 0.538681 0.782266 0.130213
H23   H     H_    0.081711 0.829607 0.826620 0.106956
H24   H     H_    0.986494 0.803177 0.699804 0.098617
H25   H     H_    0.964064 0.809243 0.769515 0.108540
H26   H     H_    0.178665 0.791589 0.662537 0.120917
H27   H     H_    0.198490 0.502900 0.584097 0.141151
H28   H     H_    0.785896 0.129725 0.664109 0.125728
H29   H     H_    0.560476 0.319166 0.717673 0.096552
H30   H     H_    0.682299 0.995545 0.700512 0.111327
H31   H     H_    0.759131 0.744327 0.302481 0.112057
H32   H     H_    0.462505 0.273465 0.587333 0.136385
H33   H     H_    0.770554 0.756404 0.232935 0.109851
H34   H     H_    0.594772 0.802828 0.347919 0.114527
O1    O     O_R   0.324990 0.503440 0.453910 -0.515199
O2    O     O_R   0.639980 0.519500 0.542640 -0.475959
O3    O     O_R   0.500750 0.673190 0.545480 -0.460335
O4    O     O_R   0.336260 0.640450 0.538210 -0.448732
O5    O     O_3   0.499990 0.499990 0.500010 -0.266360
O6    O     O_R   0.834210 0.019400 0.034570 -0.488987
O7    O     O_R   0.002210 0.824620 0.031030 -0.463927
O8    O     O_R   0.024400 0.669340 0.039790 -0.483218
O9    O     O_R   0.830490 0.694950 0.045870 -0.456191
O10   O     O_R   0.675430 0.831160 0.051290 -0.531943
O11   O     O_R   0.698870 0.998880 0.039560 -0.507159
O12   O     O_R   0.522030 0.339050 0.458320 -0.473757
O13   O     O_R   0.811290 0.006780 0.950620 -0.490062
O14   O     O_R   0.980960 0.812920 0.953200 -0.511750
O15   O     O_R   0.001480 0.656720 0.955830 -0.510404
O16   O     O_R   0.809240 0.683250 0.968050 -0.452400
O17   O     O_R   0.652500 0.818540 0.967340 -0.523111
O18   O     O_R   0.677620 0.987170 0.961730 -0.468456
O19   O     O_3   0.833240 0.833660 0.999890 -0.264911
O20   O     O_R   0.676180 0.324490 0.458320 -0.479173
O21   O     O_R   0.643570 0.521510 0.464260 -0.517748
O22   O     O_R   0.504630 0.675350 0.460920 -0.485549
O23   O     O_R   0.339850 0.642450 0.459830 -0.454641
O24   O     O_R   0.321120 0.501280 0.538470 -0.539322
O25   O     O_R   0.518440 0.337050 0.536710 -0.519754
O26   O     O_R   0.672300 0.322330 0.542880 -0.491389
N1    N     N_3   0.540158 0.812240 0.420594 -0.616507
H35   H     H_    0.580995 0.851677 0.423374 0.224312
H36   H     H_    0.472531 0.858628 0.405138 0.209971
N2    N     N_3   0.871852 0.506891 0.173667 -0.601677
H37   H     H_    0.902086 0.524128 0.198300 0.218576
H38   H     H_    0.835850 0.466342 0.181802 0.266109
O27   O     O_3   0.201191 0.544381 0.077474 -0.569407
C121  C     C_3   0.307282 0.497291 0.070394 -0.117718
H39   H     H_    0.327174 0.551070 0.056778 0.115362
H40   H     H_    0.353762 0.465891 0.097111 0.110514
H41   H     H_    0.328156 0.432140 0.050095 0.148998
O28   O     O_3   0.023868 0.914470 0.092149 -0.550995
C122  C     C_3   0.089406 0.951957 0.082278 -0.115994
H42   H     H_    0.042655 0.027400 0.068565 0.137781
H43   H     H_    0.147672 0.900378 0.061139 0.113511
H44   H     H_    0.127773 0.963512 0.108185 0.102711
N3    N     N_3   0.377707 0.616302 0.280637 -0.641974
H45   H     H_    0.400205 0.543415 0.290863 0.222972
H46   H     H_    0.432714 0.607002 0.260793 0.218131
N4    N     N_3   0.006021 0.746179 0.289185 -0.633191
H47   H     H_    0.972884 0.702291 0.280009 0.238903
H48   H     H_    0.952499 0.823472 0.285132 0.208348
O29   O     O_3   0.895376 0.553943 0.098971 -0.535359
C123  C     C_3   0.979389 0.565731 0.111323 -0.044774
H49   H     H_    0.961486 0.646758 0.109797 0.125214
H50   H     H_    0.044488 0.519032 0.092097 0.198501
H51   H     H_    0.005327 0.537148 0.140851 0.132436
N5    N     N_3   0.986751 0.765989 0.206774 -0.638439
H52   H     H_    0.959229 0.716268 0.212508 0.222713
H53   H     H_    0.935257 0.838674 0.217646 0.219192
N6    N     N_3   0.218089 0.495155 0.315898 -0.614394
H54   H     H_    0.225740 0.433884 0.331828 0.217585
H55   H     H_    0.282222 0.465728 0.298332 0.218123
O30   O     O_3   0.225875 0.796267 0.413803 -0.560819
C124  C     C_3   0.295041 0.827092 0.401571 -0.093768
H56   H     H_    0.261140 0.881759 0.377599 0.094437
H57   H     H_    0.370630 0.760725 0.393315 0.142316
H58   H     H_    0.309548 0.867777 0.425801 0.154896
O31   O     O_3   0.785755 0.455684 0.332385 -0.562564
C125  C     C_3   0.874859 0.383108 0.352201 -0.089333
H59   H     H_    0.857096 0.334574 0.370288 0.177614
H60   H     H_    0.911935 0.419361 0.369665 0.101494
H61   H     H_    0.931531 0.331687 0.330785 0.160818
O32   O     O_3   0.844066 0.155455 0.335908 -0.549319
C126  C     C_3   0.920547 0.055098 0.345673 -0.107971
H62   H     H_    0.890038 0.001943 0.349710 0.085728
H63   H     H_    0.964056 0.056988 0.371644 0.171684
H64   H     H_    0.976075 0.022811 0.321938 0.125964
O33   O     O_3   0.817997 0.185546 0.414740 -0.548351
C127  C     C_3   0.845501 0.101978 0.439064 -0.122934
H65   H     H_    0.860401 0.031685 0.422566 0.092049
H66   H     H_    0.785934 0.120140 0.460821 0.113096
H67   H     H_    0.917584 0.084813 0.454736 0.146108
N7    N     N_3   0.453170 0.286112 0.397162 -0.589302
H68   H     H_    0.401307 0.293686 0.375074 0.207895
H69   H     H_    0.458628 0.228963 0.415026 0.224797
N8    N     N_3   0.858469 0.525105 0.922060 -0.586384
H70   H     H_    0.861621 0.454149 0.921295 0.228362
H71   H     H_    0.922085 0.517007 0.907484 0.223192
N9    N     N_3   0.497942 0.806437 0.679910 -0.582854
H72   H     H_    0.538701 0.835309 0.695583 0.225981
H73   H     H_    0.460624 0.784524 0.699151 0.247003
N10   N     N_3   0.525671 0.578441 0.722880 -0.662890
H74   H     H_    0.522531 0.584347 0.693116 0.225696
H75   H     H_    0.554328 0.500967 0.728456 0.210511
N11   N     N_3   0.530818 0.595646 0.803616 -0.573794
H76   H     H_    0.455343 0.647895 0.795259 0.270933
H77   H     H_    0.543770 0.521973 0.797655 0.221813
N12   N     N_3   0.792843 0.679691 0.715618 -0.609335
H78   H     H_    0.777279 0.753718 0.723009 0.228572
H79   H     H_    0.869555 0.628666 0.722895 0.264029
N13   N     N_3   0.803441 0.686837 0.796306 -0.653358
H80   H     H_    0.761587 0.749958 0.814421 0.241426
H81   H     H_    0.857392 0.625907 0.812766 0.229953
O34   O     O_3   0.816921 0.476657 0.671870 -0.553611
C128  C     C_3   0.797169 0.407473 0.691549 -0.128674
H82   H     H_    0.865824 0.330062 0.689495 0.137513
H83   H     H_    0.730465 0.401439 0.679654 0.084505
H84   H     H_    0.785894 0.428441 0.722462 0.139078
O35   O     O_3   0.792978 0.480939 0.591515 -0.559338
C129  C     C_3   0.813300 0.380323 0.597583 -0.011515
H85   H     H_    0.837183 0.337279 0.569981 0.173390
H86   H     H_    0.745294 0.376576 0.607513 0.141509
H87   H     H_    0.878924 0.341041 0.617986 0.157139
O36   O     O_3   0.498060 0.797439 0.841543 -0.552865
C130  C     C_3   0.510438 0.870138 0.821212 -0.126251
H88   H     H_    0.537389 0.841190 0.791793 0.127042
H89   H     H_    0.563648 0.892548 0.835751 0.121051
H90   H     H_    0.434211 0.940179 0.818376 0.159772
O37   O     O_3   0.472963 0.798158 0.601763 -0.520884
C131  C     C_3   0.506227 0.863330 0.587554 -0.074751
H91   H     H_    0.565243 0.824059 0.565124 0.106922
H92   H     H_    0.536367 0.893179 0.611088 0.132858
H93   H     H_    0.439452 0.929960 0.574075 0.143109
N14   N     N_3   0.626718 0.551274 0.206137 -0.640447
H94   H     H_    0.605029 0.506058 0.221130 0.220526
H95   H     H_    0.560410 0.607225 0.192328 0.219871
O38   O     O_3   0.120973 0.521232 0.651370 -0.575740
C132  C     C_3   0.014564 0.563023 0.644667 -0.100056
H96   H     H_    0.995724 0.569787 0.613396 0.126339
H97   H     H_    0.969695 0.638728 0.659360 0.122048
H98   H     H_    0.990605 0.510760 0.656590 0.198119
N15   N     N_3   0.307888 0.513265 0.707618 -0.626775
H99   H     H_    0.355199 0.460861 0.728318 0.216475
H100  H     H_    0.347654 0.548542 0.697814 0.230792
N16   N     N_3   0.256973 0.778129 0.594133 -0.565207
H101  H     H_    0.194819 0.852892 0.593628 0.221891
H102  H     H_    0.311531 0.776717 0.613816 0.276774
N17   N     N_3   0.116220 0.506449 0.821697 -0.632852
H103  H     H_    0.053073 0.526436 0.803265 0.238484
H104  H     H_    0.117848 0.453340 0.840784 0.221331
N18   N     N_3   0.543445 0.832613 0.181091 -0.622865
H105  H     H_    0.500070 0.797461 0.186335 0.226143
H106  H     H_    0.496488 0.897214 0.164755 0.222912
N19   N     N_3   0.527112 0.051273 0.908706 -0.586256
H107  H     H_    0.525755 0.989046 0.895319 0.243014
H108  H     H_    0.452322 0.113662 0.908280 0.250500
N20   N     N_3   0.804421 0.135574 0.902402 -0.585446
H109  H     H_    0.782776 0.211753 0.897122 0.254945
H110  H     H_    0.876944 0.088594 0.890834 0.240419
N21   N     N_3   0.549890 0.320705 0.793830 -0.616036
H111  H     H_    0.475911 0.376073 0.785139 0.212901
H112  H     H_    0.599056 0.350142 0.790193 0.240850
N22   N     N_3   0.474398 0.110852 0.831250 -0.650231
H113  H     H_    0.493357 0.062973 0.807050 0.235283
H114  H     H_    0.428077 0.186085 0.822077 0.249241
N23   N     N_3   0.688315 0.950066 0.774464 -0.669520
H115  H     H_    0.764591 0.903536 0.766263 0.227797
H116  H     H_    0.644997 0.919713 0.761830 0.225975
O39   O     O_3   0.448302 0.216950 0.658537 -0.565819
C133  C     C_3   0.356747 0.308195 0.649520 -0.081039
H117  H     H_    0.323189 0.298825 0.621946 0.123962
H118  H     H_    0.368079 0.375797 0.648618 0.145543
H119  H     H_    0.300166 0.323855 0.672171 0.198277
O40   O     O_3   0.774287 0.155060 0.823198 -0.564557
C134  C     C_3   0.859243 0.065366 0.808603 -0.133765
H120  H     H_    0.835506 0.032393 0.784242 0.127537
H121  H     H_    0.899934 0.006220 0.830879 0.100474
H122  H     H_    0.915111 0.085869 0.797550 0.139346
O41   O     O_3   0.802980 0.181776 0.594883 -0.587024
C135  C     C_3   0.850762 0.090215 0.573033 -0.119376
H123  H     H_    0.801242 0.092262 0.548274 0.112751
H124  H     H_    0.871884 0.022482 0.591082 0.112376
H125  H     H_    0.922740 0.081296 0.561296 0.137186

loop_
_geom_bond_atom_site_label_1
_geom_bond_atom_site_label_2
_ccdc_geom_bond_type
C20   O10   A    
N12   H79   S    
C121  H40   S    
C114  C115  A    
N19   H107  S    
N3    H46   S    
C14   H32   S    
C66   C97   S    
O38   C132  S    
C109  H25   S    
C21   C59   S    
C95   N9    S    
C121  H41   S    
C106  C107  A    
O36   C130  S    
C56   C57   A    
C43   H7    S    
C15   O41   S    
C26   N14   S    
Cr3   O23   S    
C46   C47   A    
C9    H30   S    
C130  H88   S    
Cr5   O19   S    
O41   C135  S    
Cr5   O9    S    
C56   H3    S    
C59   C60   A    
C104  H21   S    
C102  C111  S    
C19   O7    A    
C54   C56   A    
N22   H114  S    
Cr5   O8    S    
C106  N15   S    
C6    C11   A    
C41   H5    S    
N4    H47   S    
C72   C73   A    
C93   O35   S    
C94   C97   A    
C99   C110  A    
C82   C91   S    
O39   C133  S    
C32   C34   A    
C133  H119  S    
C75   C76   A    
Cr3   O3    S    
C24   O29   S    
Cr1   O1    S    
C53   H6    S    
C35   H2    S    
C87   C89   A    
C44   O1    A    
C90   N13   S    
C60   H8    S    
C33   C38   S    
C4    C5    A    
C53   C58   A    
C6    C7    A    
C8    C17   S    
N16   H102  S    
N14   H94   S    
C132  H97   S    
C130  H90   S    
C110  N18   S    
C63   H16   S    
Cr6   O18   S    
C126  H64   S    
C74   N7    S    
C69   C70   A    
C23   O17   A    
C88   C99   A    
C3    C11   S    
C134  H122  S    
C25   O13   A    
C135  H123  S    
C10   N23   S    
C49   N4    S    
O40   C134  S    
C33   O22   A    
N11   H76   S    
C15   C18   A    
N2    H37   S    
C22   C98   S    
C22   O15   A    
N23   H115  S    
C7    C8    A    
N17   H104  S    
C85   C86   A    
C108  C109  A    
C20   O9    A    
C52   N6    S    
C29   C30   A    
C72   O32   S    
C36   C37   A    
C109  C111  A    
C79   C84   A    
C129  H87   S    
N5    H53   S    
Cr2   O26   S    
Cr4   O14   S    
C115  C116  A    
C92   C96   A    
C127  H65   S    
C122  H44   S    
C107  C108  A    
C9    C10   A    
C39   C45   A    
C77   O4    A    
N20   H110  S    
Cr2   O5    S    
C131  H91   S    
C94   C95   A    
O30   C124  S    
N15   H99   S    
C40   O27   S    
C30   H33   S    
C35   C38   A    
C39   C40   A    
C135  H124  S    
C16   C17   A    
N6    H54   S    
C105  H22   S    
C46   C51   A    
C13   N2    S    
C124  H56   S    
Cr6   O10   S    
C83   C84   A    
O29   C123  S    
C32   C37   A    
C43   C45   A    
C44   O23   A    
C18   C55   S    
Cr1   O24   S    
C108  H24   S    
O27   C121  S    
C123  H50   S    
C16   H28   S    
C4    O40   S    
C113  C117  A    
C3    C4    A    
C93   C97   A    
C112  C116  A    
C52   C53   A    
N9    H72   S    
N20   H109  S    
C70   H15   S    
C120  N22   S    
C46   H4    S    
C129  H85   S    
C103  N17   S    
C128  H82   S    
C6    N21   S    
C68   C76   S    
C123  H51   S    
Cr1   O5    S    
C81   H19   S    
Cr2   O2    S    
C127  H67   S    
C5    C118  A    
N13   H80   S    
C28   C37   S    
N7    H68   S    
C62   C71   S    
C121  H39   S    
C34   N1    S    
C67   H11   S    
C107  C116  S    
C114  C117  A    
C10   C11   A    
C63   C64   A    
C122  H42   S    
Cr1   O12   S    
O37   C131  S    
C130  H89   S    
C125  H59   S    
C131  H93   S    
Cr5   O16   S    
C101  C102  A    
C41   C42   A    
C35   C36   A    
C25   C118  S    
C128  H84   S    
C134  H121  S    
Cr2   O20   S    
C26   C27   A    
C36   O31   S    
C28   C29   A    
C75   H10   S    
C124  H58   S    
C94   O37   S    
C30   C31   A    
C1    O20   A    
N4    H48   S    
N8    H70   S    
C66   O2    A    
C55   O26   A    
C133  H118  S    
Cr4   O19   S    
Cr2   O21   S    
C44   C58   S    
C68   C69   A    
C65   C67   A    
C12   C17   A    
O33   C127  S    
C112  H26   S    
C70   C71   A    
C92   O34   S    
C61   C62   A    
C69   H14   S    
C134  H120  S    
C105  C111  A    
C1    C78   S    
N18   H106  S    
N19   H108  S    
C67   C68   A    
C12   O39   S    
C48   C57   S    
N17   H103  S    
C86   C87   A    
C29   H31   S    
C21   O11   A    
N21   H111  S    
C60   C61   A    
C132  H96   S    
Cr4   O7    S    
C50   C51   A    
N10   H74   S    
C47   N3    S    
Cr6   O19   S    
C126  H63   S    
C83   O36   S    
C24   C88   A    
C65   H12   S    
C48   C49   A    
C98   C100  A    
C33   O21   A    
N14   H95   S    
C19   O8    A    
N11   H77   S    
N22   H113  S    
C2    C110  A    
N2    H38   S    
C25   O18   A    
C99   H1    S    
C119  C120  A    
C80   N8    S    
N18   H105  S    
C23   O16   A    
C132  H98   S    
C105  C106  A    
C1    O12   A    
N1    H35   S    
Cr3   O4    S    
C129  H86   S    
C90   C91   A    
O34   C128  S    
C20   C88   S    
C92   C93   A    
C127  H66   S    
O32   C126  S    
C73   O33   S    
N23   H116  S    
C52   C57   A    
C21   O6    A    
C7    H29   S    
C82   C83   A    
C74   C78   A    
C103  C104  A    
C122  H43   S    
C89   C90   A    
N3    H45   S    
C14   C18   A    
C95   C96   A    
C72   C76   A    
C81   C82   A    
C85   C91   A    
C113  N16   S    
C59   C64   A    
C62   C63   A    
N16   H101  S    
Cr3   O22   S    
C77   C117  S    
C50   N5    S    
C15   C16   A    
C77   O24   A    
Cr6   O17   S    
C2    C13   A    
C118  C119  A    
C100  C101  A    
Cr6   O11   S    
C100  H20   S    
C8    C9    A    
N8    H71   S    
C73   C78   A    
O28   C122  S    
C114  H27   S    
C42   C51   S    
C64   H9    S    
C26   C31   A    
C102  C103  A    
C112  C113  A    
C22   O14   A    
C27   H18   S    
N9    H73   S    
N10   H75   S    
C74   C75   A    
O35   C129  S    
N5    H52   S    
C61   H13   S    
C128  H83   S    
Cr4   O13   S    
C84   H17   S    
C45   O28   S    
C65   C71   A    
C13   C24   A    
C2    C31   S    
N21   H112  S    
N13   H81   S    
C47   C48   A    
C87   C96   S    
N7    H69   S    
O31   C125  S    
C119  N19   S    
C19   C39   S    
Cr4   O6    S    
C40   C41   A    
C12   C14   A    
C49   C50   A    
C125  H60   S    
C131  H92   S    
C89   N12   S    
N12   H78   S    
Cr5   O15   S    
C126  H62   S    
C54   C58   A    
C34   C38   A    
C80   C81   A    
C135  H125  S    
C54   O30   S    
C115  O38   S    
N6    H55   S    
C125  H61   S    
C124  H57   S    
C86   N10   S    
C98   C104  A    
C101  H23   S    
N15   H100  S    
C66   O3    A    
C55   O25   A    
C133  H117  S    
C5    N20   S    
N1    H36   S    
C3    C120  A    
Cr1   O25   S    
C79   C80   A    
Cr3   O5    S    
C85   N11   S    
C123  H49   S    
C42   C43   A    
C27   C28   A    
C23   C79   S    
C32   H34   S    
