data_mof_unit_17418.cif
_audit_creation_date              2012-12-10T17:35:45-0500
_audit_creation_method            fapswitch 2.2
_symmetry_space_group_name_H-M    P1
_symmetry_Int_Tables_number       1
_space_group_crystal_system       triclinic
_cell_length_a                    10.468762
_cell_length_b                    12.073315
_cell_length_c                    12.777962
_cell_angle_alpha                 92.826674
_cell_angle_beta                  90.685503
_cell_angle_gamma                 86.147606
_cell_volume                      1609.3701101

loop_
_atom_site_label
_atom_site_type_symbol
_atom_type_description
_atom_site_fract_x
_atom_site_fract_y
_atom_site_fract_z
_atom_type_partial_charge
C1    C     C_R   0.496665 0.521684 0.699971 0.951204
C2    C     C_R   0.503335 0.478316 0.300030 0.951231
C3    C     C_R   0.569959 0.469605 0.870402 -0.322173
C4    C     C_R   0.430046 0.530394 0.129599 -0.322204
C5    C     C_R   0.551372 0.466988 0.976621 0.119486
C6    C     C_R   0.448637 0.533015 0.023382 0.119465
C7    C     C_R   0.409719 0.954730 0.383776 -0.398117
C8    C     C_R   0.590280 0.045270 0.616224 -0.398136
C9    C     C_R   0.412327 0.839662 0.397086 0.147797
C10   C     C_R   0.587672 0.160338 0.602914 0.147803
C11   C     C_R   0.535299 0.859175 0.553062 -0.081798
C12   C     C_R   0.464702 0.140825 0.446937 -0.081855
C13   C     C_R   0.531519 0.975901 0.542949 0.100454
C14   C     C_R   0.468480 0.024099 0.457051 0.100476
C15   C     C_R   0.742320 0.499679 0.497340 0.971789
C16   C     C_R   0.257680 0.500321 0.502659 0.971763
C17   C     C_3   0.967332 0.398438 0.462030 -0.283046
C18   C     C_3   0.032667 0.601562 0.537964 -0.283007
C19   C     C_3   0.047100 0.419292 0.563165 -0.282441
C20   C     C_3   0.952900 0.580709 0.436831 -0.282350
C21   C     C_3   0.122743 0.500690 0.503549 -0.111386
C22   C     C_3   0.877256 0.499311 0.496447 -0.111384
C23   C     C_3   0.044272 0.480330 0.404402 0.542374
C24   C     C_3   0.955728 0.519672 0.595593 0.542386
C25   C     C_R   0.513881 0.464912 0.189226 -0.142308
C26   C     C_R   0.486126 0.535091 0.810776 -0.142351
C27   C     C_R   0.366980 0.601565 0.963519 -0.311562
C28   C     C_R   0.633035 0.398444 0.036486 -0.311690
C29   C     C_R   0.386413 0.604137 0.856254 0.433836
C30   C     C_R   0.613604 0.395876 0.143754 0.433899
H1    H     H_    0.089975 0.355757 0.615408 0.168902
H2    H     H_    0.910027 0.644243 0.384585 0.168922
H3    H     H_    0.935865 0.317399 0.430177 0.175760
H4    H     H_    0.064132 0.682604 0.569813 0.175760
H5    H     H_    0.352313 0.581241 0.166656 0.195360
H6    H     H_    0.647688 0.418755 0.833344 0.195337
H7    H     H_    0.287190 0.650889 0.999209 0.147494
H8    H     H_    0.712832 0.349130 0.000796 0.147459
H9    H     H_    0.414253 0.178237 0.381705 0.137490
H10   H     H_    0.585749 0.821763 0.618293 0.137450
H11   H     H_    0.359874 0.990063 0.317011 0.137824
H12   H     H_    0.640124 0.009937 0.682990 0.137820
N1    N     N_R   0.523490 0.207800 0.519350 -0.123103
N2    N     N_R   0.476510 0.792200 0.480650 -0.123079
O1    O     O_R   0.506270 0.421700 0.658830 -0.630930
O2    O     O_R   0.493730 0.578300 0.341170 -0.630943
O3    O     O_R   0.491200 0.609310 0.646410 -0.613485
O4    O     O_R   0.508800 0.390690 0.353590 -0.613441
O5    O     O_R   0.693580 0.406210 0.506230 -0.563965
O6    O     O_R   0.306420 0.593790 0.493770 -0.563986
O7    O     O_R   0.678510 0.593830 0.493810 -0.640100
O8    O     O_R   0.321490 0.406170 0.506190 -0.640104
Zn1   Zn    Zn3+2 0.510060 0.374730 0.508290 0.982984
Zn2   Zn    Zn3+2 0.489940 0.625270 0.491710 0.982975
O9    O     O_3   0.104290 0.461464 0.306281 -0.609900
C31   C     C_3   0.011457 0.438292 0.228908 0.126677
H13   H     H_    0.934273 0.506345 0.226907 0.149447
H14   H     H_    0.968719 0.358509 0.243038 0.168666
C32   C     C_3   0.075189 0.427342 0.122223 -0.820295
H15   H     H_    0.152805 0.359898 0.121372 0.254287
H16   H     H_    0.003388 0.407192 0.060735 0.211654
H17   H     H_    0.116592 0.506653 0.104730 0.254350
O10   O     O_3   0.895709 0.538563 0.693712 -0.609882
C33   C     C_3   0.988563 0.561632 0.771098 0.126497
H18   H     H_    0.031608 0.641255 0.756881 0.168835
H19   H     H_    0.065514 0.493395 0.773228 0.149424
C34   C     C_3   0.924754 0.572933 0.877744 -0.820235
H20   H     H_    0.883053 0.493783 0.895344 0.254377
H21   H     H_    0.996583 0.593008 0.939235 0.211649
H22   H     H_    0.847354 0.640561 0.878455 0.254252
O11   O     O_3   0.700983 0.337809 0.206027 -0.638465
C35   C     C_3   0.677515 0.223957 0.197401 0.104308
H23   H     H_    0.706215 0.187438 0.118809 0.132239
H24   H     H_    0.574593 0.210683 0.210622 0.141479
C36   C     C_3   0.756202 0.163124 0.280287 -0.814920
H25   H     H_    0.730686 0.199144 0.359555 0.276090
H26   H     H_    0.736534 0.073758 0.276004 0.207284
H27   H     H_    0.859874 0.170737 0.267269 0.238054
O12   O     O_3   0.299041 0.662225 0.793994 -0.638482
C37   C     C_3   0.322653 0.776048 0.802521 0.104380
H28   H     H_    0.425566 0.789214 0.789151 0.141559
H29   H     H_    0.294152 0.812634 0.881134 0.132219
C38   C     C_3   0.243871 0.836903 0.719704 -0.815101
H30   H     H_    0.140220 0.829456 0.732911 0.238121
H31   H     H_    0.263707 0.926223 0.723859 0.207321
H32   H     H_    0.269128 0.800780 0.640430 0.276110
C39   C     C_2   0.655500 0.225751 0.683229 0.456969
H33   H     H_    0.633546 0.218283 0.765276 0.001241
O13   O     O_2   0.743461 0.280705 0.660107 -0.547497
C40   C     C_2   0.344500 0.774249 0.316772 0.456966
H34   H     H_    0.366455 0.781715 0.234724 0.001247
O14   O     O_2   0.256537 0.719296 0.339894 -0.547483

loop_
_geom_bond_atom_site_label_1
_geom_bond_atom_site_label_2
_ccdc_geom_bond_type
O9    C31   S    
C16   C21   S    
C27   C29   A    
C18   C21   S    
C39   H33   S    
C19   H1    S    
C30   O11   S    
C2    O2    A    
O6    Zn2   S    
C18   C24   S    
C19   C21   S    
C8    H12   S    
C12   N1    A    
C37   C38   S    
C5    C6    A    
C37   H28   S    
C31   H13   S    
N1    Zn1   S    
C15   C22   S    
C38   H30   S    
C32   H17   S    
C15   O7    A    
C15   O5    A    
C4    H5    S    
O1    Zn1   S    
C32   H15   S    
C13   C14   A    
C17   H3    S    
C35   C36   S    
C4    C25   A    
C7    C14   A    
O4    Zn1   S    
C10   C39   S    
C32   H16   S    
C34   H20   S    
C33   C34   S    
C35   H24   S    
C1    O3    A    
C2    O4    A    
O12   C37   S    
C34   H21   S    
C33   H19   S    
C36   H25   S    
C5    C28   A    
C36   H26   S    
C40   O14   D    
C6    C27   A    
C29   O12   S    
C20   C23   S    
C28   H8    S    
O2    Zn2   S    
C11   N2    A    
C17   C23   S    
C18   H4    S    
O3    Zn2   S    
C4    C6    A    
C38   H31   S    
C20   C22   S    
C24   O10   S    
C21   C23   S    
C1    C26   S    
C22   C24   S    
O8    Zn1   S    
C20   H2    S    
C25   C30   A    
C7    C9    A    
C9    N2    A    
C10   N1    A    
C3    C26   A    
C16   O8    A    
C12   C14   A    
C35   H23   S    
C3    C5    A    
C9    C40   S    
C23   O9    S    
C17   C22   S    
C31   C32   S    
O7    Zn2   S    
C33   H18   S    
C34   H22   S    
C12   H9    S    
C39   O13   D    
C19   C24   S    
O11   C35   S    
C11   C13   A    
C1    O1    A    
C40   H34   S    
C3    H6    S    
C27   H7    S    
O5    Zn1   S    
C28   C30   A    
C17   C19   S    
C37   H29   S    
C31   H14   S    
C2    C25   S    
C18   C20   S    
C7    H11   S    
C11   H10   S    
C16   O6    A    
C36   H27   S    
O10   C33   S    
C8    C13   A    
N2    Zn2   S    
C38   H32   S    
C26   C29   A    
C8    C10   A    
