data_mof_unit_37049.cif
_audit_creation_date              2012-12-10T17:59:47-0500
_audit_creation_method            fapswitch 2.2
_symmetry_space_group_name_H-M    P1
_symmetry_Int_Tables_number       1
_space_group_crystal_system       triclinic
_cell_length_a                    10.849261
_cell_length_b                    9.497641
_cell_length_c                    15.915513
_cell_angle_alpha                 90.013771
_cell_angle_beta                  90.130296
_cell_angle_gamma                 90.00775
_cell_volume                      1639.96813237

loop_
_atom_site_label
_atom_site_type_symbol
_atom_type_description
_atom_site_fract_x
_atom_site_fract_y
_atom_site_fract_z
_atom_type_partial_charge
C1    C     C_R   0.262066 0.499992 0.499453 0.814876
C2    C     C_3   0.614006 0.462445 0.952310 -0.451353
C3    C     C_3   0.616665 0.475756 0.048889 -0.371816
C4    C     C_1   0.491397 0.501425 0.824392 -0.025851
C5    C     C_1   0.492081 0.500531 0.175570 -0.047891
C6    C     C_1   0.496561 0.500059 0.250856 -0.111270
C7    C     C_R   0.065400 0.372695 0.486814 -0.245043
C8    C     C_R   0.065431 0.627355 0.487333 -0.243513
C9    C     C_R   0.938534 0.370820 0.475795 -0.022427
C10   C     C_R   0.938578 0.629354 0.476320 -0.022975
C11   C     C_R   0.872028 0.500076 0.478288 -0.067202
C12   C     C_R   0.128591 0.499993 0.493787 -0.014436
C13   C     C_R   0.419906 0.074455 0.450221 0.007278
C14   C     C_R   0.419910 0.925479 0.450218 0.010967
C15   C     C_R   0.499861 0.499990 0.340214 0.838568
C16   C     C_R   0.580316 0.925547 0.549699 0.029151
C17   C     C_R   0.580322 0.074515 0.549694 0.022191
C18   C     C_R   0.737545 0.500016 0.491220 0.817025
C19   C     C_R   0.499974 0.500034 0.659798 0.827113
C20   C     C_3   0.442506 0.649780 0.050470 -0.235785
C21   C     C_3   0.401481 0.379005 0.049357 -0.234794
C22   C     C_3   0.387954 0.388431 0.950037 -0.095988
C23   C     C_3   0.450617 0.657577 0.950419 -0.107154
C24   C     C_1   0.496291 0.500330 0.749128 -0.097361
C25   C     C_3   0.484842 0.501751 0.083283 0.071007
C26   C     C_3   0.484071 0.503264 0.916872 0.036700
Cu1   Cu    Cu3+1 0.500020 0.640660 0.500000 1.003891
Cu2   Cu    Cu3+1 0.500020 0.359340 0.500000 0.994169
H1    H     H_    0.644576 0.869296 0.589453 0.109915
H2    H     H_    0.644591 0.130816 0.589443 0.110060
H3    H     H_    0.453980 0.281226 0.064689 0.202325
H4    H     H_    0.510793 0.725221 0.077451 0.224082
H5    H     H_    0.678911 0.563809 0.067293 0.194882
H6    H     H_    0.656682 0.378015 0.076347 0.200298
H7    H     H_    0.688395 0.528489 0.925126 0.177991
H8    H     H_    0.638479 0.352812 0.934646 0.185326
H9    H     H_    0.115572 0.273893 0.486727 0.146938
H10   H     H_    0.115615 0.726165 0.487670 0.147726
H11   H     H_    0.355795 0.130717 0.410355 0.126822
H12   H     H_    0.355806 0.869166 0.410345 0.131725
N1    N     N_R   0.500030 0.852070 0.500020 -0.158344
N2    N     N_R   0.500030 0.147930 0.500020 -0.157502
O1    O     O_R   0.319660 0.618740 0.500000 -0.594699
O2    O     O_R   0.319660 0.381260 0.500000 -0.596353
O3    O     O_R   0.500020 0.618840 0.379440 -0.556248
O4    O     O_R   0.500020 0.381160 0.379440 -0.563825
O5    O     O_R   0.680370 0.618830 0.500010 -0.565244
O6    O     O_R   0.680370 0.381170 0.500010 -0.563710
O7    O     O_R   0.500010 0.618730 0.620560 -0.569932
O8    O     O_R   0.500010 0.381270 0.620560 -0.584937
C27   C     C_2   0.333950 0.715541 0.907925 0.465828
H13   H     H_    0.246725 0.723233 0.940266 0.058948
O9    O     O_2   0.335382 0.751631 0.834194 -0.511825
C28   C     C_2   0.257267 0.425321 0.921732 0.448346
H14   H     H_    0.192015 0.473042 0.964551 0.045964
O10   O     O_2   0.225011 0.407863 0.848826 -0.525107
C29   C     C_2   0.320374 0.695169 0.087985 0.370212
H15   H     H_    0.236236 0.638750 0.073740 0.031914
O11   O     O_2   0.315169 0.796944 0.134751 -0.478897
C30   C     C_2   0.281893 0.357575 0.097217 0.336763
H16   H     H_    0.253633 0.429830 0.146226 0.076294
O12   O     O_2   0.217298 0.255053 0.082819 -0.457223
C31   C     C_2   0.415137 0.242718 0.913340 0.501321
H17   H     H_    0.484438 0.228380 0.865069 0.056479
O13   O     O_2   0.356560 0.139738 0.936150 -0.442712
C32   C     C_2   0.551504 0.762904 0.926461 0.449254
H18   H     H_    0.618141 0.738160 0.877958 0.063565
O14   O     O_2   0.553337 0.881077 0.956874 -0.513422
C33   C     C_2   0.883107 0.231552 0.456994 0.408056
H19   H     H_    0.916634 0.138349 0.489210 0.033595
O15   O     O_2   0.806537 0.218094 0.401205 -0.491206
C34   C     C_2   0.883226 0.768848 0.458122 0.406710
H20   H     H_    0.916557 0.861608 0.490920 0.032745
O16   O     O_2   0.806973 0.783045 0.402202 -0.490976

loop_
_geom_bond_atom_site_label_1
_geom_bond_atom_site_label_2
_ccdc_geom_bond_type
C2    H7    S    
C4    C26   S    
C31   O13   D    
C11   C18   S    
C20   C25   S    
C9    C11   A    
Cu1   N1    S    
C1    O2    A    
C32   O14   D    
Cu1   O5    S    
C15   O4    A    
C20   C23   S    
C8    C12   A    
C18   O5    A    
Cu1   O3    S    
C19   C24   S    
C7    H9    S    
C33   O15   D    
C27   H13   S    
C2    C26   S    
C6    C15   S    
C13   C14   A    
C30   O12   D    
C17   H2    S    
C21   H3    S    
C19   O8    A    
Cu2   O4    S    
C29   H15   S    
C33   H19   S    
C1    C12   S    
C8    H10   S    
C14   N1    A    
C5    C25   S    
Cu2   O8    S    
C23   C32   S    
Cu2   N2    S    
C13   N2    A    
C9    C33   S    
C2    C3    S    
C7    C9    A    
C22   C28   S    
C20   H4    S    
C5    C6    T    
C4    C24   T    
C28   O10   D    
C7    C12   A    
C13   H11   S    
C1    O1    A    
C29   O11   D    
C10   C11   A    
C3    H5    S    
C14   H12   S    
C31   H17   S    
Cu1   O1    S    
C3    C25   S    
C32   H18   S    
C16   H1    S    
C21   C30   S    
C34   O16   D    
C17   N2    A    
C22   C26   S    
C23   C26   S    
C2    H8    S    
Cu1   Cu2   S    
C20   C29   S    
C19   O7    A    
C28   H14   S    
C34   H20   S    
C21   C25   S    
C3    H6    S    
C22   C31   S    
C21   C22   S    
C23   C27   S    
C16   N1    A    
Cu2   O2    S    
C8    C10   A    
Cu2   O6    S    
Cu1   O7    S    
C16   C17   A    
C10   C34   S    
C30   H16   S    
C27   O9    D    
C15   O3    A    
C18   O6    A    
