data_mof_unit_23999.cif
_audit_creation_date              2012-12-11T15:16:37-0500
_audit_creation_method            fapswitch 2.2
_symmetry_space_group_name_H-M    P1
_symmetry_Int_Tables_number       1
_space_group_crystal_system       triclinic
_cell_length_a                    25.121981
_cell_length_b                    7.235989
_cell_length_c                    21.866765
_cell_angle_alpha                 90.001984
_cell_angle_beta                  110.098846
_cell_angle_gamma                 90.001737
_cell_volume                      3732.9201577

loop_
_atom_site_label
_atom_site_type_symbol
_atom_type_description
_atom_site_fract_x
_atom_site_fract_y
_atom_site_fract_z
_atom_type_partial_charge
O1    O     O_R   0.554350 0.505270 0.581390 -0.532040
O2    O     O_R   0.445650 0.005270 0.418610 -0.532040
O3    O     O_R   0.553380 0.177580 0.454800 -0.539017
O4    O     O_R   0.446620 0.677580 0.545200 -0.539000
C1    C     C_R   0.565791 0.344582 0.438351 0.739981
C2    C     C_R   0.434213 0.844582 0.561655 0.739966
O5    O     O_R   0.560970 0.175640 0.583140 -0.529043
O6    O     O_R   0.439030 0.675640 0.416860 -0.529033
O7    O     O_R   0.453290 0.004120 0.547860 -0.532247
O8    O     O_R   0.546710 0.504120 0.452140 -0.532235
C3    C     C_R   0.575765 0.343934 0.607721 0.711753
C4    C     C_R   0.424233 0.843923 0.392278 0.711760
O9    O     O_3   0.464660 0.338800 0.488280 -0.374902
O10   O     O_3   0.535340 0.838800 0.511720 -0.374911
V1    V     V_3+5 0.506560 0.064420 0.502170 1.488405
V2    V     V_3+5 0.493440 0.564420 0.497830 1.488443
C5    C     C_R   0.146594 0.899855 0.288013 -0.107934
C6    C     C_R   0.853413 0.399260 0.712000 -0.107942
H1    H     H_    0.061541 0.899588 0.220730 0.158642
H2    H     H_    0.938461 0.398964 0.779293 0.158655
H3    H     H_    0.131652 0.887221 0.328620 0.174777
H4    H     H_    0.868357 0.386345 0.671403 0.174768
C7    C     C_R   0.121855 0.936718 0.171667 -0.071613
C8    C     C_R   0.878150 0.436651 0.828328 -0.071610
C9    C     C_R   0.397546 0.811553 0.272648 0.130114
C10   C     C_R   0.602434 0.311934 0.727362 0.130079
C11   C     C_R   0.357039 0.793711 0.210769 -0.094645
C12   C     C_R   0.642931 0.294306 0.789255 -0.094641
C13   C     C_R   0.299780 0.820798 0.200695 -0.133538
C14   C     C_R   0.700195 0.321277 0.799329 -0.133531
C15   C     C_R   0.281167 0.876635 0.251707 0.084203
C16   C     C_R   0.718827 0.376760 0.748296 0.084197
C17   C     C_R   0.322002 0.878116 0.316138 0.004397
C18   C     C_R   0.677999 0.378043 0.683861 0.004392
C19   C     C_R   0.222388 0.909625 0.241601 0.027763
C20   C     C_R   0.777614 0.409593 0.758396 0.027768
C21   C     C_R   0.204748 0.903066 0.296987 0.056414
C22   C     C_R   0.795259 0.402670 0.703018 0.056422
C23   C     C_R   0.245530 0.899585 0.360322 0.158049
C24   C     C_R   0.754481 0.399025 0.639681 0.158058
C25   C     C_R   0.303102 0.895796 0.369178 -0.192468
C26   C     C_R   0.696908 0.395398 0.630819 -0.192455
C27   C     C_R   0.180088 0.947898 0.179213 0.067496
C28   C     C_R   0.819916 0.448037 0.820769 0.067513
C29   C     C_R   0.105991 0.908213 0.226055 -0.186112
C30   C     C_R   0.894013 0.407775 0.773958 -0.186117
C31   C     C_R   0.380641 0.849986 0.326310 -0.117303
C32   C     C_R   0.619354 0.350054 0.673690 -0.117284
H5    H     H_    0.270217 0.785532 0.153341 0.167149
H6    H     H_    0.729748 0.286186 0.846706 0.167146
H7    H     H_    0.369853 0.753529 0.170186 0.172356
H8    H     H_    0.630104 0.254398 0.829854 0.172357
H9    H     H_    0.332944 0.896130 0.418573 0.121294
H10   H     H_    0.667069 0.395595 0.581424 0.121272
C33   C     C_R   0.138528 0.777041 0.905038 -0.221113
C34   C     C_R   0.861477 0.277048 0.094977 -0.221182
H11   H     H_    0.135817 0.663267 0.936023 0.191786
H12   H     H_    0.864172 0.163283 0.063978 0.191757
C35   C     C_R   0.176195 0.762879 0.870451 0.217374
C36   C     C_R   0.823825 0.262883 0.129584 0.217351
C37   C     C_R   0.180947 0.909585 0.829840 -0.118956
C38   C     C_R   0.819094 0.409579 0.170212 -0.118941
C39   C     C_R   0.148534 0.069989 0.826854 -0.196853
C40   C     C_R   0.851514 0.569972 0.173200 -0.196866
H13   H     H_    0.151094 0.184239 0.795976 0.192201
H14   H     H_    0.848970 0.684209 0.204093 0.192177
C41   C     C_R   0.111606 0.084499 0.862230 0.642266
C42   C     C_R   0.888429 0.584483 0.137808 0.642274
C43   C     C_R   0.105734 0.936939 0.901446 -0.201045
C44   C     C_R   0.894278 0.436937 0.098570 -0.201057
N1    N     N_R   0.246127 0.053536 0.780798 -0.228966
N2    N     N_R   0.753902 0.553500 0.219241 -0.228942
N3    N     N_R   0.278842 0.047101 0.743993 -0.204390
N4    N     N_R   0.721190 0.547063 0.256051 -0.204384
C45   C     C_R   0.284908 0.887778 0.714134 0.587772
C46   C     C_R   0.715152 0.387769 0.285939 0.587751
N5    N     N_R   0.257219 0.734615 0.723273 -0.172214
N6    N     N_R   0.742866 0.234638 0.276828 -0.172201
N7    N     N_R   0.224578 0.740965 0.760153 -0.224809
N8    N     N_R   0.775504 0.240990 0.239943 -0.224817
C47   C     C_R   0.218589 0.900184 0.790092 0.548597
C48   C     C_R   0.781463 0.400179 0.209972 0.548582
C49   C     C_R   0.355997 0.721005 0.677227 0.673058
C50   C     C_R   0.644079 0.220928 0.322857 0.673059
C51   C     C_R   0.391370 0.708484 0.639894 -0.196539
C52   C     C_R   0.608688 0.208424 0.360168 -0.196522
H15   H     H_    0.417001 0.585700 0.643961 0.178857
H16   H     H_    0.583073 0.085601 0.356113 0.178823
C53   C     C_R   0.395067 0.854728 0.599417 -0.167697
C54   C     C_R   0.604953 0.354725 0.400608 -0.167674
C55   C     C_R   0.361603 0.012564 0.595981 -0.147055
C56   C     C_R   0.638403 0.512599 0.404035 -0.147072
H17   H     H_    0.362932 0.125574 0.564054 0.161899
H18   H     H_    0.637050 0.625646 0.435939 0.161873
C57   C     C_R   0.324842 0.024780 0.631764 0.188215
C58   C     C_R   0.675180 0.524811 0.368271 0.188219
C59   C     C_R   0.322153 0.878933 0.673828 -0.175036
C60   C     C_R   0.677901 0.378912 0.326239 -0.175017
O11   O     O_R   0.953220 0.285790 0.047790 -0.545615
O12   O     O_R   0.046780 0.785790 0.952210 -0.545613
O13   O     O_R   0.939020 0.617570 0.916840 -0.530128
O14   O     O_R   0.060980 0.117570 0.083160 -0.530161
C61   C     C_R   0.923651 0.448258 0.892727 0.726951
C62   C     C_R   0.076351 0.948270 0.107272 0.726989
O15   O     O_R   0.946600 0.615450 0.045180 -0.496721
O16   O     O_R   0.053400 0.115450 0.954820 -0.496725
O17   O     O_R   0.054370 0.786770 0.081410 -0.533188
O18   O     O_R   0.945630 0.286770 0.918590 -0.533211
C63   C     C_R   0.934217 0.447042 0.061566 0.756140
C64   C     C_R   0.065785 0.947042 0.938437 0.756158
O19   O     O_3   0.035300 0.454160 0.011680 -0.373281
O20   O     O_3   0.964700 0.954160 0.988320 -0.373269
V3    V     V_3+5 0.993450 0.728620 0.997830 1.563595
V4    V     V_3+5 0.006550 0.228620 0.002170 1.563553
I1    I     I_    0.227535 0.521784 0.887753 -0.215998
I2    I     I_    0.772475 0.021802 0.112295 -0.216021
F1    F     F_    0.080513 0.241180 0.856347 -0.679268
F2    F     F_    0.919534 0.741147 0.143696 -0.679263
F3    F     F_    0.356223 0.580099 0.718300 -0.612450
F4    F     F_    0.643893 0.079948 0.281825 -0.612466
I3    I     I_    0.271634 0.261613 0.614054 -0.178617
I4    I     I_    0.728367 0.761714 0.385972 -0.178533
I5    I     I_    0.224765 0.901782 0.446881 -0.353825
I6    I     I_    0.775252 0.400754 0.553123 -0.353798
I7    I     I_    0.199319 0.074714 0.100275 -0.390262
I8    I     I_    0.800705 0.575309 0.899646 -0.390226
I9    I     I_    0.483735 0.765173 0.282640 -0.316610
I10   I     I_    0.516238 0.265709 0.717367 -0.316603

loop_
_geom_bond_atom_site_label_1
_geom_bond_atom_site_label_2
_ccdc_geom_bond_type
C22   C24   A    
C39   H13   S    
O12   C64   A    
C7    C29   A    
C33   C35   A    
C11   C13   A    
O13   V3    S    
O1    C3    A    
C45   C59   S    
O2    C4    A    
C27   I7    S    
O11   V4    S    
C23   I5    S    
C23   C25   A    
C13   H5    S    
O5    C3    A    
C28   I8    S    
N4    C46   A    
O16   V4    S    
C16   C20   A    
O15   V3    S    
C19   C21   A    
C5    C29   A    
N6    N8    A    
C46   C60   S    
O11   C63   A    
C56   C58   A    
C7    C27   A    
C36   C38   A    
C49   F3    S    
C37   C39   A    
O17   V3    S    
C38   C40   A    
C50   C60   A    
C42   F2    S    
C18   C26   A    
C58   C60   A    
C15   C17   A    
C61   O18   A    
C53   C55   A    
C19   C27   A    
C9    C31   A    
C1    C54   S    
C50   F4    S    
C57   I3    S    
C24   C26   A    
C14   H6    S    
O6    V2    S    
N3    C45   A    
C3    C32   S    
C2    O7    A    
C4    C31   S    
C6    C30   A    
O20   V3    S    
C11   H7    S    
N5    N7    A    
C24   I6    S    
C39   C41   A    
C35   C37   A    
C9    I9    S    
C51   H15   S    
N2    N4    A    
C52   C54   A    
N1    N3    A    
C51   C53   A    
C5    C21   A    
O5    V1    S    
C6    C22   A    
C5    H3    S    
H1    C29   S    
C34   C36   A    
C41   C43   A    
C40   H14   S    
O4    V2    S    
O18   V4    S    
O14   V4    S    
C44   C63   S    
C55   H17   S    
C41   F1    S    
C43   C64   S    
C54   C56   A    
C7    C62   S    
O6    C4    A    
C56   H18   S    
O1    V2    S    
C10   I10   S    
O14   C62   A    
O2    V1    S    
C45   N5    A    
C25   H9    S    
C33   C43   A    
O4    C2    A    
C49   C51   A    
C34   C44   A    
C33   H11   S    
C17   C31   A    
C15   C19   A    
C20   C28   A    
C18   C32   A    
C40   C42   A    
O3    V1    S    
N7    C47   A    
O16   C64   A    
O15   C63   A    
C6    H4    S    
O12   V3    S    
C46   N6    A    
O3    C1    A    
C57   C59   A    
C10   C32   A    
C9    C11   A    
C2    C53   S    
C10   C12   A    
O13   C61   A    
C58   I4    S    
C8    C61   S    
C17   C25   A    
C12   C14   A    
O7    V1    S    
C8    C30   A    
C1    O8    A    
C13   C15   A    
O8    V2    S    
C26   H10   S    
C14   C16   A    
C12   H8    S    
C8    C28   A    
C20   C22   A    
N8    C48   A    
C34   H12   S    
O19   V4    S    
C52   H16   S    
C38   C48   S    
H2    C30   S    
C36   I2    S    
C55   C57   A    
C21   C23   A    
C35   I1    S    
C49   C59   A    
O9    V2    S    
C42   C44   A    
O10   V1    S    
C50   C52   A    
C37   C47   S    
C62   O17   A    
N2    C48   A    
C16   C18   A    
N1    C47   A    
