data_mof_unit_16424.cif
_audit_creation_date              2012-12-10T16:58:35-0500
_audit_creation_method            fapswitch 2.2
_symmetry_space_group_name_H-M    P1
_symmetry_Int_Tables_number       1
_space_group_crystal_system       triclinic
_cell_length_a                    13.163134
_cell_length_b                    13.112058
_cell_length_c                    15.540753
_cell_angle_alpha                 108.378725
_cell_angle_beta                  74.191112
_cell_angle_gamma                 91.440068
_cell_volume                      2443.74510146

loop_
_atom_site_label
_atom_site_type_symbol
_atom_type_description
_atom_site_fract_x
_atom_site_fract_y
_atom_site_fract_z
_atom_type_partial_charge
C1    C     C_R   0.217679 0.540262 0.536259 0.883300
C2    C     C_R   0.499762 0.470233 0.113798 -0.227435
C3    C     C_R   0.660667 0.366435 0.086600 -0.320737
C4    C     C_R   0.780690 0.459505 0.465600 0.838679
C5    C     C_R   0.435488 0.577680 0.855539 -0.113259
C6    C     C_2   0.893683 0.446571 0.452126 -0.282435
C7    C     C_2   0.935057 0.481710 0.525048 -0.321982
C8    C     C_2   0.101405 0.546910 0.555788 -0.427955
C9    C     C_2   0.050355 0.467457 0.508285 0.544277
C10   C     C_2   0.545014 0.895688 0.541670 0.379188
C11   C     C_2   0.495398 0.942580 0.497797 -0.240271
C12   C     C_R   0.303968 0.634070 0.008264 0.518372
C13   C     C_2   0.456785 0.104442 0.462416 -0.368296
C14   C     C_2   0.503362 0.057284 0.508035 -0.091370
C15   C     C_R   0.469535 0.218710 0.472812 0.857488
C16   C     C_R   0.530651 0.781179 0.528244 0.718934
C17   C     C_R   0.544954 0.442662 0.247648 0.822588
C18   C     C_R   0.458220 0.557335 0.752777 0.824755
C19   C     C_R   0.691588 0.361526 0.992084 0.511045
C20   C     C_R   0.565889 0.420826 0.146784 -0.055317
C21   C     C_R   0.338077 0.630432 0.914119 -0.313193
C22   C     C_3   0.682824 0.898335 0.611485 0.067293
C23   C     C_R   0.364216 0.578842 0.042666 -0.251885
C24   C     C_3   0.647308 0.860607 0.698472 -0.350565
C25   C     C_3   0.727632 0.777139 0.696253 -0.976957
C26   C     C_3   0.760390 0.332853 0.713239 0.136089
C27   C     C_3   0.845184 0.241160 0.662121 -0.852566
C28   C     C_3   0.778543 0.198683 0.904505 0.106896
C29   C     C_3   0.888412 0.141232 0.854423 -0.294327
C30   C     C_3   0.881449 0.021071 0.807506 -1.001919
C31   C     C_3   0.209525 0.794157 0.090986 0.090727
C32   C     C_3   0.105476 0.846509 0.162163 -0.797364
C33   C     C_3   0.079309 0.281745 0.450201 0.095300
C34   C     C_R   0.465084 0.527869 0.986812 0.041775
C35   C     C_3   0.136739 0.259253 0.516676 -0.362071
C36   C     C_3   0.128215 0.143031 0.516971 -0.971477
C37   C     C_R   0.502731 0.533355 0.894038 0.032081
C38   C     C_R   0.529814 0.472211 0.020115 -0.012746
C39   C     C_R   0.629418 0.419296 0.958784 -0.054659
C40   C     C_R   0.666043 0.428433 0.867455 0.470205
C41   C     C_R   0.606614 0.494302 0.841190 -0.332895
H1    H     H_    0.712777 0.330148 0.113751 0.152455
H2    H     H_    0.328926 0.578090 0.113541 0.156313
H3    H     H_    0.643265 0.514987 0.778347 0.163995
H4    H     H_    0.747651 0.952971 0.620862 0.152735
H5    H     H_    0.718679 0.830384 0.545914 0.148107
H6    H     H_    0.637522 0.931155 0.763348 0.219122
H7    H     H_    0.569791 0.824462 0.702149 0.237303
H8    H     H_    0.733992 0.703582 0.634491 0.257127
H9    H     H_    0.701483 0.754378 0.761565 0.264180
H10   H     H_    0.806639 0.810296 0.691871 0.273188
H11   H     H_    0.777141 0.393924 0.676187 0.160326
H12   H     H_    0.885121 0.524017 0.595544 0.144268
H13   H     H_    0.682690 0.299179 0.708188 0.150059
H14   H     H_    0.825565 0.173548 0.690950 0.246454
H15   H     H_    0.849493 0.211434 0.585873 0.209692
H16   H     H_    0.923102 0.269584 0.670550 0.268590
H17   H     H_    0.729127 0.179957 0.854238 0.149151
H18   H     H_    0.741458 0.167580 0.964109 0.110301
H19   H     H_    0.931265 0.177012 0.799863 0.245639
H20   H     H_    0.934466 0.152423 0.906626 0.221096
H21   H     H_    0.839190 0.983274 0.860763 0.273913
H22   H     H_    0.962366 0.981413 0.773211 0.274433
H23   H     H_    0.056522 0.616843 0.611039 0.124540
H24   H     H_    0.838918 0.008453 0.752718 0.261248
H25   H     H_    0.220922 0.822024 0.028528 0.141572
H26   H     H_    0.274541 0.821481 0.124635 0.132134
H27   H     H_    0.092308 0.821302 0.226004 0.255951
H28   H     H_    0.107676 0.935547 0.183221 0.198390
H29   H     H_    0.038911 0.822216 0.130484 0.262882
H30   H     H_    0.104642 0.217038 0.380857 0.167593
H31   H     H_    0.992467 0.277284 0.477409 0.132117
H32   H     H_    0.221603 0.273799 0.493633 0.265836
H33   H     H_    0.102592 0.314867 0.589532 0.199565
H34   H     H_    0.944544 0.413856 0.380398 0.176208
H35   H     H_    0.044110 0.124103 0.536901 0.269515
H36   H     H_    0.166754 0.131086 0.568679 0.273097
H37   H     H_    0.168751 0.086635 0.445946 0.265049
H38   H     H_    0.549706 0.104046 0.553069 0.225125
H39   H     H_    0.449914 0.894904 0.452147 0.112077
H40   H     H_    0.409986 0.058846 0.417285 0.161500
H41   H     H_    0.429073 0.512877 0.165406 0.136981
H42   H     H_    0.285714 0.664745 0.885934 0.178802
O1    O     O_3   0.500000 0.500000 0.500000 -0.480249
O2    O     O_R   0.468210 0.402800 0.293550 -0.636429
O3    O     O_R   0.410220 0.615430 0.721590 -0.646085
O4    O     O_R   0.602670 0.506150 0.290200 -0.631004
O5    O     O_R   0.518910 0.475630 0.694660 -0.655216
O6    O     O_3   0.599045 0.957925 0.604029 -0.660608
O7    O     O_3   0.763924 0.379711 0.807933 -0.573890
O8    O     O_3   0.789083 0.310821 0.936562 -0.585087
O9    O     O_3   0.205540 0.681087 0.064890 -0.598920
O10   O     O_3   0.107338 0.380447 0.433848 -0.605335
O11   O     O_R   0.526920 0.270960 0.524520 -0.644505
O12   O     O_R   0.454490 0.752910 0.584610 -0.641315
O13   O     O_R   0.270990 0.462040 0.468400 -0.589802
O14   O     O_R   0.747590 0.514090 0.422470 -0.632751
O15   O     O_R   0.265290 0.607490 0.589320 -0.648113
O16   O     O_R   0.716130 0.416380 0.519810 -0.654771
O17   O     O_R   0.423930 0.265320 0.430520 -0.655090
O18   O     O_R   0.594650 0.710810 0.460350 -0.652041
Zn1   Zn    Zn3+2 0.564370 0.417180 0.558730 0.936904
Zn2   Zn    Zn3+2 0.417220 0.409120 0.424430 0.981586
Zn3   Zn    Zn3+2 0.609330 0.556780 0.419650 0.972174
Zn4   Zn    Zn3+2 0.409080 0.616930 0.597190 0.964609

loop_
_geom_bond_atom_site_label_1
_geom_bond_atom_site_label_2
_ccdc_geom_bond_type
C31   H25   S    
C3    H1    S    
C5    C37   A    
C1    C8    S    
O1    Zn1   S    
C35   C36   S    
C15   O17   A    
C15   O11   A    
C6    H34   S    
C35   H33   S    
C31   H26   S    
C12   C23   A    
C26   C27   S    
C18   O3    A    
O15   Zn4   S    
C17   O2    A    
C28   C29   S    
C36   H36   S    
C38   C39   A    
C11   C14   S    
C27   H14   S    
C34   C37   A    
C13   H40   S    
C17   C20   S    
C23   H2    S    
C25   H9    S    
O12   Zn4   S    
C33   H31   S    
C21   H42   S    
C10   O6    S    
C8    C9    D    
C3    C19   A    
C36   H35   S    
O2    Zn2   S    
C32   H27   S    
C17   O4    A    
C13   C14   D    
C26   H13   S    
C29   H20   S    
C2    C20   A    
C24   H7    S    
C24   C25   S    
C4    C6    S    
C27   H16   S    
C39   C40   A    
C27   H15   S    
C32   H29   S    
C5    C18   S    
C12   C21   A    
O17   Zn2   S    
C18   O5    A    
C25   H10   S    
C29   C30   S    
C26   H11   S    
C2    C38   A    
C31   C32   S    
C29   H19   S    
C23   C34   A    
O16   Zn1   S    
O1    Zn4   S    
C3    C20   A    
C14   H38   S    
C32   H28   S    
C19   C39   A    
C8    H23   S    
C40   C41   A    
C22   H5    S    
O18   Zn3   S    
C10   C11   D    
C13   C15   S    
C30   H24   S    
O1    Zn3   S    
C41   H3    S    
C22   C24   S    
C2    H41   S    
O3    Zn4   S    
C7    H12   S    
C9    O10   S    
C28   H18   S    
C7    C9    S    
C35   H32   S    
C16   O12   A    
C34   C38   A    
C24   H6    S    
C12   O9    S    
C33   O10   S    
C1    O15   A    
O5    Zn1   S    
C6    C7    D    
C28   H17   S    
C26   O7    S    
C30   H21   S    
C10   C16   S    
O13   Zn2   S    
C1    O13   A    
C30   H22   S    
C33   C35   S    
C22   O6    S    
C28   O8    S    
C37   C41   A    
C25   H8    S    
O14   Zn3   S    
C19   O8    S    
C11   H39   S    
C33   H30   S    
O4    Zn3   S    
C16   O18   A    
C22   H4    S    
C5    C21   A    
O11   Zn1   S    
C31   O9    S    
C4    O16   A    
O1    Zn2   S    
C36   H37   S    
C40   O7    S    
C4    O14   A    
