data_mof_unit_60242.cif
_audit_creation_date              2012-12-10T17:53:35-0500
_audit_creation_method            fapswitch 2.2
_symmetry_space_group_name_H-M    P1
_symmetry_Int_Tables_number       1
_space_group_crystal_system       triclinic
_cell_length_a                    19.638622
_cell_length_b                    19.665828
_cell_length_c                    51.509502
_cell_angle_alpha                 90.109053
_cell_angle_beta                  89.961862
_cell_angle_gamma                 90.015993
_cell_volume                      19893.4313204

loop_
_atom_site_label
_atom_site_type_symbol
_atom_type_description
_atom_site_fract_x
_atom_site_fract_y
_atom_site_fract_z
_atom_type_partial_charge
C1    C     C_R   0.618286 0.949108 0.013404 0.378310
C2    C     C_R   0.411517 0.086735 0.986653 0.361621
C3    C     C_R   0.974657 0.623373 0.014134 0.416579
C4    C     C_R   0.021709 0.379110 0.985908 0.389149
C5    C     C_R   0.417863 0.094650 0.013765 0.375015
C6    C     C_R   0.617810 0.948826 0.986061 0.364588
C7    C     C_R   0.019522 0.377956 0.013289 0.472560
C8    C     C_R   0.974552 0.623606 0.986853 0.419719
C9    C     C_R   0.084964 0.409412 0.513465 0.373015
C10   C     C_R   0.912038 0.588057 0.486473 0.371476
C11   C     C_R   0.595136 0.080031 0.513615 0.372821
C12   C     C_R   0.407984 0.916449 0.486307 0.372031
C13   C     C_R   0.915292 0.591123 0.513734 0.373084
C14   C     C_R   0.088172 0.412689 0.486212 0.371583
C15   C     C_R   0.405018 0.919831 0.513566 0.372721
C16   C     C_R   0.592130 0.083429 0.486361 0.371955
C17   C     C_R   0.472521 0.059595 0.054902 0.647556
C18   C     C_R   0.557918 0.974079 0.944960 0.644628
C19   C     C_R   0.003946 0.439670 0.054726 0.651721
C20   C     C_R   0.997184 0.562904 0.945658 0.633569
C21   C     C_R   0.567577 0.988741 0.054813 0.626745
C22   C     C_R   0.459868 0.045576 0.945065 0.647138
C23   C     C_R   0.991820 0.560297 0.055160 0.644737
C24   C     C_R   0.998881 0.441905 0.945198 0.630690
C25   C     C_R   0.957914 0.543657 0.555091 0.647726
C26   C     C_R   0.041708 0.456359 0.444861 0.646756
C27   C     C_R   0.454403 0.960024 0.555009 0.647871
C28   C     C_R   0.545877 0.039639 0.444919 0.647427
C29   C     C_R   0.042007 0.456235 0.554960 0.648291
C30   C     C_R   0.958185 0.544304 0.444985 0.647433
C31   C     C_R   0.545720 0.039915 0.555034 0.647852
C32   C     C_R   0.454093 0.960290 0.444896 0.647336
C33   C     C_R   0.567320 0.984433 0.027365 -0.162830
C34   C     C_R   0.460565 0.049087 0.972511 -0.159765
C35   C     C_R   0.988124 0.562218 0.027817 -0.182432
C36   C     C_R   0.006570 0.440119 0.972424 -0.180780
C37   C     C_R   0.467772 0.057563 0.027500 -0.154200
C38   C     C_R   0.563046 0.978427 0.972288 -0.163033
C39   C     C_R   0.006687 0.438758 0.027324 -0.162551
C40   C     C_R   0.989718 0.563379 0.972888 -0.185726
C41   C     C_R   0.042704 0.454738 0.527496 -0.165358
C42   C     C_R   0.956260 0.544632 0.472446 -0.166486
C43   C     C_R   0.547474 0.040362 0.527570 -0.165879
C44   C     C_R   0.453568 0.958464 0.472357 -0.166308
C45   C     C_R   0.957300 0.545450 0.527632 -0.165713
C46   C     C_R   0.043720 0.455960 0.472317 -0.166974
C47   C     C_R   0.452638 0.959557 0.527545 -0.165812
C48   C     C_R   0.546470 0.041456 0.472382 -0.166160
C49   C     C_R   0.514844 0.017447 0.013650 -0.136006
C50   C     C_R   0.512560 0.014619 0.986144 -0.122696
C51   C     C_R   0.997692 0.500804 0.013851 -0.133649
C52   C     C_R   0.998023 0.501427 0.986419 -0.113858
C53   C     C_R   0.999973 0.500121 0.513767 -0.126955
C54   C     C_R   0.999968 0.500223 0.486178 -0.126220
C55   C     C_R   0.500042 0.999965 0.513760 -0.126854
C56   C     C_R   0.500024 0.999965 0.486168 -0.126561
C57   C     C_R   0.952018 0.461012 0.390237 0.265336
C58   C     C_R   0.045774 0.541507 0.609700 0.263921
C59   C     C_R   0.538510 0.951541 0.390188 0.265591
C60   C     C_R   0.458998 0.046300 0.609729 0.264316
C61   C     C_R   0.047728 0.539652 0.390251 0.265309
C62   C     C_R   0.954240 0.458101 0.609672 0.264320
C63   C     C_R   0.461369 0.048373 0.390281 0.265649
C64   C     C_R   0.541145 0.953705 0.609648 0.264312
C65   C     C_R   0.460698 0.961082 0.891179 0.265533
C66   C     C_R   0.540797 0.950939 0.109995 0.302930
C67   C     C_R   0.059029 0.487264 0.891037 0.250858
C68   C     C_R   0.056846 0.521651 0.109229 0.262742
C69   C     C_R   0.549534 0.047238 0.889491 0.262284
C70   C     C_R   0.442873 0.023476 0.109935 0.304646
C71   C     C_R   0.939399 0.518655 0.890746 0.253831
C72   C     C_R   0.941478 0.476699 0.109523 0.261503
C73   C     C_R   0.999870 0.500358 0.403903 0.053209
C74   C     C_R   0.999987 0.499817 0.596033 0.051282
C75   C     C_R   0.499947 0.999960 0.403892 0.052686
C76   C     C_R   0.500069 0.999994 0.596035 0.052119
C77   C     C_R   0.505763 0.005408 0.904001 0.048874
C78   C     C_R   0.499609 0.997360 0.095869 -0.021215
C79   C     C_R   0.998966 0.503111 0.904463 0.057450
C80   C     C_R   0.998852 0.499316 0.095808 0.031583
C81   C     C_R   0.999996 0.499860 0.179614 0.910604
C82   C     C_R   0.999943 0.500247 0.820446 0.903264
C83   C     C_R   0.500643 0.999798 0.179727 0.939013
C84   C     C_R   0.500305 0.000147 0.820305 0.927125
C85   C     C_R   0.500021 0.000004 0.679701 0.933961
C86   C     C_R   0.499980 0.999994 0.320281 0.934826
C87   C     C_R   0.999994 0.499940 0.679710 0.933314
C88   C     C_R   0.999990 0.500062 0.320274 0.934259
C89   C     C_R   0.870496 0.629513 0.250001 0.834087
C90   C     C_R   0.129500 0.370484 0.750001 0.837370
C91   C     C_R   0.370486 0.870494 0.250003 0.839051
C92   C     C_R   0.629523 0.129496 0.750003 0.845915
C93   C     C_R   0.129533 0.370536 0.249984 0.833936
C94   C     C_R   0.870471 0.629466 0.750018 0.837207
C95   C     C_R   0.629511 0.129467 0.250012 0.835372
C96   C     C_R   0.370482 0.870542 0.749993 0.842586
C97   C     C_R   0.870477 0.370504 0.749997 0.842883
C98   C     C_R   0.129518 0.629499 0.249999 0.848158
C99   C     C_R   0.370509 0.129524 0.749994 0.844104
C100  C     C_R   0.629500 0.870487 0.249999 0.852806
C101  C     C_R   0.129521 0.629455 0.750005 0.841930
C102  C     C_R   0.870484 0.370541 0.249991 0.847466
C103  C     C_R   0.629521 0.870527 0.749978 0.844231
C104  C     C_R   0.370470 0.129463 0.250016 0.855683
C105  C     C_R   0.951752 0.460920 0.362895 0.185026
C106  C     C_R   0.046245 0.541412 0.637040 0.185008
C107  C     C_R   0.538582 0.951307 0.362846 0.184295
C108  C     C_R   0.459042 0.046701 0.637073 0.184739
C109  C     C_R   0.048045 0.539597 0.362908 0.185074
C110  C     C_R   0.953812 0.458201 0.637017 0.184779
C111  C     C_R   0.461291 0.048613 0.362938 0.184239
C112  C     C_R   0.541094 0.953327 0.636992 0.184732
C113  C     C_R   0.458618 0.959081 0.863831 0.183360
C114  C     C_R   0.545260 0.956103 0.137206 0.179855
C115  C     C_R   0.059131 0.483353 0.863780 0.202400
C116  C     C_R   0.056701 0.524513 0.136493 0.188605
C117  C     C_R   0.548676 0.044719 0.862180 0.187386
C118  C     C_R   0.446081 0.029398 0.137212 0.168190
C119  C     C_R   0.940008 0.520767 0.863463 0.201547
C120  C     C_R   0.942635 0.473830 0.136770 0.191014
C121  C     C_1   0.181199 0.681157 0.249998 -0.098835
C122  C     C_1   0.818801 0.318839 0.750001 -0.103134
C123  C     C_1   0.318752 0.181097 0.250040 -0.098690
C124  C     C_1   0.681237 0.818887 0.749950 -0.105002
C125  C     C_1   0.818770 0.318898 0.249978 -0.098394
C126  C     C_1   0.181232 0.681105 0.750019 -0.102482
C127  C     C_1   0.681165 0.818809 0.249996 -0.097429
C128  C     C_1   0.318846 0.181207 0.749992 -0.105431
C129  C     C_1   0.181177 0.318814 0.749994 -0.107649
C130  C     C_1   0.818825 0.681192 0.250005 -0.111605
C131  C     C_1   0.318775 0.818887 0.749977 -0.104297
C132  C     C_1   0.681218 0.181125 0.250031 -0.111708
C133  C     C_1   0.818743 0.681095 0.750039 -0.106738
C134  C     C_1   0.181256 0.318899 0.249962 -0.111102
C135  C     C_1   0.681199 0.181160 0.750003 -0.103588
C136  C     C_1   0.318811 0.818825 0.250009 -0.110292
C137  C     C_1   0.224596 0.724562 0.250002 0.041098
C138  C     C_1   0.775409 0.275427 0.750002 0.039807
C139  C     C_1   0.275388 0.224538 0.250020 0.040804
C140  C     C_1   0.724601 0.775446 0.749970 0.037581
C141  C     C_1   0.775387 0.275465 0.249993 0.040296
C142  C     C_1   0.224611 0.724541 0.750008 0.039665
C143  C     C_1   0.724568 0.775414 0.249998 0.040919
C144  C     C_1   0.275442 0.224602 0.749990 0.037264
C145  C     C_1   0.224589 0.275426 0.749992 0.036422
C146  C     C_1   0.775418 0.724586 0.250003 0.035767
C147  C     C_1   0.275399 0.775447 0.749987 0.039045
C148  C     C_1   0.724596 0.224564 0.250019 0.035274
C149  C     C_1   0.775372 0.724530 0.750015 0.036839
C150  C     C_1   0.224621 0.275458 0.249981 0.035938
C151  C     C_1   0.724590 0.224572 0.750003 0.039701
C152  C     C_1   0.275418 0.775413 0.250007 0.037060
C153  C     C_R   0.999926 0.500201 0.349062 -0.263876
C154  C     C_R   0.000025 0.499826 0.650895 -0.266403
C155  C     C_R   0.499942 0.999967 0.349059 -0.263027
C156  C     C_R   0.500060 0.000015 0.650892 -0.265830
C157  C     C_R   0.502669 0.001000 0.849130 -0.267391
C158  C     C_R   0.499749 0.998428 0.150945 -0.265192
C159  C     C_R   0.999691 0.501370 0.849492 -0.288883
C160  C     C_R   0.999833 0.499373 0.150673 -0.286202
N1    N     N_R   0.511433 0.012705 0.068033 -0.328077
N2    N     N_R   0.507463 0.007881 0.932033 -0.327006
N3    N     N_R   0.998149 0.499759 0.067854 -0.326897
N4    N     N_R   0.998307 0.502684 0.932415 -0.320245
N5    N     N_R   0.999943 0.499879 0.568000 -0.326911
N6    N     N_R   0.999918 0.500341 0.431940 -0.326428
N7    N     N_R   0.500064 0.999976 0.568000 -0.326766
N8    N     N_R   0.499968 0.999968 0.431927 -0.326573
O1    O     O_3   0.000000 0.500000 0.250000 -0.512621
O2    O     O_3   0.000000 0.500000 0.750000 -0.512814
O3    O     O_3   0.500000 0.000000 0.250000 -0.512163
O4    O     O_3   0.500000 0.000000 0.750000 -0.512077
O5    O     O_R   0.055830 0.500000 0.192320 -0.603556
O6    O     O_R   0.944170 0.500000 0.807680 -0.602135
O7    O     O_R   0.500000 0.055830 0.192320 -0.611727
O8    O     O_R   0.500000 0.944170 0.807680 -0.606175
O9    O     O_R   0.944170 0.500000 0.192320 -0.604021
O10   O     O_R   0.055830 0.500000 0.807680 -0.601560
O11   O     O_R   0.500000 0.944170 0.192320 -0.605513
O12   O     O_R   0.500000 0.055830 0.807680 -0.607625
O13   O     O_R   0.555830 0.000000 0.692320 -0.608138
O14   O     O_R   0.444170 0.000000 0.307680 -0.608438
O15   O     O_R   0.000000 0.555830 0.692320 -0.606962
O16   O     O_R   0.000000 0.444170 0.307680 -0.606951
O17   O     O_R   0.444170 0.000000 0.692320 -0.607826
O18   O     O_R   0.555830 0.000000 0.307680 -0.607932
O19   O     O_R   0.000000 0.444170 0.692320 -0.607464
O20   O     O_R   0.000000 0.555830 0.307680 -0.607478
O21   O     O_R   0.865940 0.578550 0.235150 -0.624659
O22   O     O_R   0.134060 0.421450 0.764850 -0.613842
O23   O     O_R   0.421450 0.865940 0.235150 -0.626041
O24   O     O_R   0.578550 0.134060 0.764850 -0.612371
O25   O     O_R   0.134060 0.421450 0.235150 -0.624990
O26   O     O_R   0.865940 0.578550 0.764850 -0.613527
O27   O     O_R   0.578550 0.134060 0.235150 -0.629428
O28   O     O_R   0.421450 0.865940 0.764850 -0.614092
O29   O     O_R   0.865940 0.421450 0.764850 -0.624445
O30   O     O_R   0.134060 0.578550 0.235150 -0.616894
O31   O     O_R   0.421450 0.134060 0.764850 -0.630197
O32   O     O_R   0.578550 0.865940 0.235150 -0.618528
O33   O     O_R   0.134060 0.578550 0.764850 -0.624533
O34   O     O_R   0.865940 0.421450 0.235150 -0.616680
O35   O     O_R   0.578550 0.865940 0.764850 -0.629485
O36   O     O_R   0.421450 0.134060 0.235150 -0.620136
O37   O     O_R   0.365940 0.078550 0.735150 -0.616923
O38   O     O_R   0.634060 0.921450 0.264850 -0.619519
O39   O     O_R   0.921450 0.365940 0.735150 -0.618308
O40   O     O_R   0.078550 0.634060 0.264850 -0.619428
O41   O     O_R   0.634060 0.921450 0.735150 -0.617179
O42   O     O_R   0.365940 0.078550 0.264850 -0.618669
O43   O     O_R   0.078550 0.634060 0.735150 -0.617951
O44   O     O_R   0.921450 0.365940 0.264850 -0.619071
O45   O     O_R   0.365940 0.921450 0.264850 -0.628785
O46   O     O_R   0.634060 0.078550 0.735150 -0.633376
O47   O     O_R   0.921450 0.634060 0.264850 -0.629256
O48   O     O_R   0.078550 0.365940 0.735150 -0.632530
O49   O     O_R   0.634060 0.078550 0.264850 -0.628515
O50   O     O_R   0.365940 0.921450 0.735150 -0.633077
O51   O     O_R   0.078550 0.365940 0.264850 -0.628782
O52   O     O_R   0.921450 0.634060 0.735150 -0.632300
O53   O     O_2   0.443400 0.111428 0.067920 -0.487225
O54   O     O_2   0.602677 0.936287 0.931275 -0.479479
O55   O     O_2   0.007311 0.381287 0.068379 -0.474454
O56   O     O_2   0.003801 0.621697 0.932443 -0.482205
O57   O     O_2   0.625540 0.975106 0.067752 -0.455893
O58   O     O_2   0.412616 0.079931 0.931359 -0.479019
O59   O     O_2   0.989602 0.618208 0.069172 -0.496500
O60   O     O_2   0.991639 0.383762 0.931522 -0.483378
O61   O     O_2   0.916725 0.584915 0.568945 -0.480795
O62   O     O_2   0.080745 0.413006 0.431024 -0.480256
O63   O     O_2   0.411255 0.920739 0.568784 -0.480749
O64   O     O_2   0.590900 0.076777 0.431146 -0.480708
O65   O     O_2   0.083123 0.414805 0.568692 -0.480946
O66   O     O_2   0.919095 0.587680 0.431266 -0.480336
O67   O     O_2   0.588871 0.079218 0.568835 -0.480710
O68   O     O_2   0.409035 0.923158 0.431105 -0.480649
Zn1   Zn    Zn3+2 0.000000 0.579740 0.272110 1.041173
Zn2   Zn    Zn3+2 0.000000 0.420260 0.727890 1.039119
Zn3   Zn    Zn3+2 0.420260 0.000000 0.272110 1.045107
Zn4   Zn    Zn3+2 0.579740 0.000000 0.727890 1.041609
Zn5   Zn    Zn3+2 0.000000 0.420260 0.272110 1.041397
Zn6   Zn    Zn3+2 0.000000 0.579740 0.727890 1.039153
Zn7   Zn    Zn3+2 0.579740 0.000000 0.272110 1.042509
Zn8   Zn    Zn3+2 0.420260 0.000000 0.727890 1.040870
Zn9   Zn    Zn3+2 0.500000 0.079740 0.772110 1.044862
Zn10  Zn    Zn3+2 0.500000 0.920260 0.227890 1.047920
Zn11  Zn    Zn3+2 0.920260 0.500000 0.772110 1.044690
Zn12  Zn    Zn3+2 0.079740 0.500000 0.227890 1.042547
Zn13  Zn    Zn3+2 0.500000 0.920260 0.772110 1.044407
Zn14  Zn    Zn3+2 0.500000 0.079740 0.227890 1.040379
Zn15  Zn    Zn3+2 0.079740 0.500000 0.772110 1.044387
Zn16  Zn    Zn3+2 0.920260 0.500000 0.227890 1.042283
O69   O     O_3   0.670905 0.916831 0.026278 -0.557508
C161  C     C_3   0.656381 0.846580 0.027511 0.180206
H1    H     H_    0.652185 0.823862 0.007760 0.163282
H2    H     H_    0.608135 0.837255 0.038311 0.170740
C162  C     C_3   0.714007 0.810786 0.041627 -0.737665
H3    H     H_    0.718923 0.831201 0.061657 0.296670
H4    H     H_    0.703497 0.755375 0.042653 0.206441
H5    H     H_    0.762613 0.818885 0.031025 0.238066
O70   O     O_3   0.358350 0.118891 0.974086 -0.570525
C163  C     C_3   0.300413 0.076445 0.975169 0.182466
H6    H     H_    0.286826 0.063279 0.995560 0.163470
H7    H     H_    0.309205 0.028752 0.963954 0.170673
C164  C     C_3   0.240313 0.113747 0.963290 -0.757363
H8    H     H_    0.251487 0.126824 0.942757 0.283775
H9    H     H_    0.194251 0.081044 0.963972 0.213520
H10   H     H_    0.230293 0.161182 0.974385 0.240272
O71   O     O_3   0.966646 0.684801 0.027052 -0.523134
C165  C     C_3   0.898028 0.692625 0.034933 0.132123
H11   H     H_    0.876437 0.645267 0.043532 0.142433
H12   H     H_    0.865949 0.708069 0.018291 0.123906
C166  C     C_3   0.893790 0.748846 0.055227 -0.670496
H13   H     H_    0.910670 0.797906 0.046702 0.251135
H14   H     H_    0.840531 0.754153 0.062138 0.194509
H15   H     H_    0.926613 0.736624 0.072114 0.296294
O72   O     O_3   0.035816 0.319329 0.972680 -0.549904
C167  C     C_3   0.103046 0.322224 0.962634 0.123324
H16   H     H_    0.141184 0.332730 0.978073 0.104288
H17   H     H_    0.108747 0.362430 0.947756 0.203591
C168  C     C_3   0.120130 0.254543 0.949904 -0.719020
H18   H     H_    0.085214 0.245104 0.933333 0.287346
H19   H     H_    0.173347 0.255435 0.942605 0.217617
H20   H     H_    0.114615 0.212682 0.964180 0.235482
O73   O     O_3   0.369529 0.132228 0.027057 -0.559591
C169  C     C_3   0.385287 0.202003 0.024625 0.173943
H21   H     H_    0.381605 0.218973 0.004081 0.169944
H22   H     H_    0.437419 0.213136 0.032052 0.159802
C170  C     C_3   0.334467 0.242877 0.040495 -0.719242
H23   H     H_    0.338675 0.229239 0.061348 0.294087
H24   H     H_    0.344669 0.298086 0.038214 0.206737
H25   H     H_    0.282059 0.231607 0.033674 0.238121
O74   O     O_3   0.671078 0.917819 0.973058 -0.568585
C171  C     C_3   0.723531 0.966156 0.969661 0.167516
H26   H     H_    0.742606 0.985093 0.988716 0.162578
H27   H     H_    0.705467 0.010050 0.957865 0.169153
C172  C     C_3   0.782625 0.932924 0.955421 -0.721256
H28   H     H_    0.765337 0.913111 0.936323 0.282903
H29   H     H_    0.823773 0.970738 0.952229 0.214845
H30   H     H_    0.803042 0.890342 0.967170 0.241737
O75   O     O_3   0.022543 0.316445 0.026485 -0.540248
C173  C     C_3   0.089609 0.289695 0.028032 0.176743
H31   H     H_    0.104411 0.264718 0.009665 0.147413
H32   H     H_    0.088382 0.247986 0.042523 0.198784
C174  C     C_3   0.144463 0.340292 0.037072 -0.891778
H33   H     H_    0.131332 0.361965 0.056307 0.306477
H34   H     H_    0.193745 0.313373 0.038971 0.229607
H35   H     H_    0.151403 0.381992 0.022828 0.231719
O76   O     O_3   0.959819 0.684012 0.974260 -0.534206
C175  C     C_3   0.891488 0.682499 0.965416 0.153529
H36   H     H_    0.856059 0.657578 0.979386 0.084264
H37   H     H_    0.887731 0.654631 0.946737 0.213067
C176  C     C_3   0.867182 0.754926 0.960932 -0.749129
H38   H     H_    0.899092 0.779743 0.945872 0.279219
H39   H     H_    0.813394 0.754536 0.954286 0.222200
H40   H     H_    0.870720 0.784617 0.979244 0.241523
O77   O     O_3   0.127063 0.364086 0.526245 -0.558542
C177  C     C_3   0.094817 0.299897 0.526879 0.152372
H41   H     H_    0.087350 0.279403 0.506916 0.166253
H42   H     H_    0.044507 0.303066 0.536862 0.153554
C178  C     C_3   0.139465 0.250327 0.541790 -0.688848
H43   H     H_    0.146872 0.268659 0.562000 0.284820
H44   H     H_    0.114835 0.199508 0.542333 0.198112
H45   H     H_    0.189895 0.245592 0.532166 0.255108
O78   O     O_3   0.867289 0.630792 0.473701 -0.561189
C179  C     C_3   0.802832 0.599002 0.472664 0.150320
H46   H     H_    0.781815 0.591048 0.492518 0.166567
H47   H     H_    0.805920 0.549080 0.462432 0.157520
C180  C     C_3   0.753790 0.644319 0.457793 -0.681180
H48   H     H_    0.772831 0.652516 0.437731 0.284698
H49   H     H_    0.702879 0.619844 0.456826 0.201722
H50   H     H_    0.748832 0.694257 0.467730 0.253933
O79   O     O_3   0.643049 0.119161 0.526465 -0.559010
C181  C     C_3   0.705001 0.082752 0.527276 0.152274
H51   H     H_    0.725332 0.073900 0.507364 0.165829
H52   H     H_    0.698313 0.032884 0.537223 0.154139
C182  C     C_3   0.757235 0.123973 0.542369 -0.690263
H53   H     H_    0.738912 0.132836 0.562499 0.285194
H54   H     H_    0.806262 0.095920 0.543130 0.198299
H55   H     H_    0.765703 0.173754 0.532735 0.254802
O80   O     O_3   0.363094 0.873893 0.473461 -0.561070
C183  C     C_3   0.391734 0.808069 0.472416 0.148976
H56   H     H_    0.398555 0.786775 0.492265 0.166861
H57   H     H_    0.441854 0.808693 0.462239 0.157062
C184  C     C_3   0.344065 0.761360 0.457461 -0.680030
H58   H     H_    0.336907 0.780715 0.437404 0.284736
H59   H     H_    0.366042 0.709400 0.456488 0.201850
H60   H     H_    0.293845 0.758891 0.467346 0.253955
O81   O     O_3   0.873736 0.636875 0.526644 -0.558702
C185  C     C_3   0.906916 0.700586 0.527519 0.152009
H61   H     H_    0.914794 0.721275 0.507629 0.165779
H62   H     H_    0.957104 0.696548 0.537508 0.153724
C186  C     C_3   0.862932 0.750596 0.542595 -0.689076
H63   H     H_    0.854875 0.731911 0.562701 0.285147
H64   H     H_    0.888465 0.800955 0.543430 0.198230
H65   H     H_    0.812763 0.756465 0.532906 0.254788
O82   O     O_3   0.133424 0.370579 0.473320 -0.561303
C187  C     C_3   0.197367 0.403361 0.472209 0.149720
H66   H     H_    0.218404 0.411658 0.492040 0.166188
H67   H     H_    0.193436 0.453212 0.462044 0.157660
C188  C     C_3   0.246960 0.358800 0.457193 -0.680925
H68   H     H_    0.227847 0.350243 0.437161 0.284764
H69   H     H_    0.297441 0.384107 0.456151 0.201674
H70   H     H_    0.252818 0.308992 0.467073 0.254020
O83   O     O_3   0.357246 0.880563 0.526392 -0.559022
C189  C     C_3   0.295190 0.916783 0.527283 0.152261
H71   H     H_    0.274921 0.925711 0.507392 0.165812
H72   H     H_    0.301697 0.966589 0.537357 0.154454
C190  C     C_3   0.243031 0.875301 0.542268 -0.690707
H73   H     H_    0.261278 0.866370 0.562380 0.285155
H74   H     H_    0.193922 0.903193 0.543082 0.198309
H75   H     H_    0.234783 0.825567 0.532508 0.254760
O84   O     O_3   0.637110 0.125877 0.473542 -0.561079
C191  C     C_3   0.608691 0.191806 0.472633 0.149310
H76   H     H_    0.601996 0.213104 0.492522 0.166910
H77   H     H_    0.558533 0.191357 0.462505 0.156981
C192  C     C_3   0.656477 0.238394 0.457711 -0.679933
H78   H     H_    0.663518 0.219044 0.437615 0.284641
H79   H     H_    0.634679 0.290439 0.456843 0.201949
H80   H     H_    0.706743 0.240692 0.467548 0.253946
Br1   Br    Br    0.887057 0.407588 0.409439 -0.389761
Br2   Br    Br    0.107779 0.598281 0.590475 -0.380477
Br3   Br    Br    0.590754 0.885679 0.409338 -0.387524
Br4   Br    Br    0.403277 0.109196 0.590544 -0.382746
Br5   Br    Br    0.112680 0.593148 0.409473 -0.390405
Br6   Br    Br    0.892217 0.401337 0.590409 -0.379807
Br7   Br    Br    0.409130 0.114229 0.409557 -0.387303
Br8   Br    Br    0.596873 0.890796 0.590353 -0.382910
Br9   Br    Br    0.402214 0.903285 0.911517 -0.360205
Br10  Br    Br    0.565971 0.864324 0.094899 -0.383092
Br11  Br    Br    0.141606 0.472498 0.910517 -0.404995
Br12  Br    Br    0.136705 0.547532 0.089724 -0.346506
Br13  Br    Br    0.610213 0.108249 0.907493 -0.376199
Br14  Br    Br    0.352963 0.022954 0.094473 -0.314528
Br15  Br    Br    0.856575 0.535702 0.909891 -0.402836
Br16  Br    Br    0.860967 0.450572 0.090458 -0.352912
Br17  Br    Br    0.882995 0.409509 0.344636 -0.378122
Br18  Br    Br    0.112916 0.595761 0.655201 -0.372626
Br19  Br    Br    0.589060 0.882026 0.344503 -0.379521
Br20  Br    Br    0.405448 0.113828 0.655309 -0.374064
Br21  Br    Br    0.116806 0.590939 0.344666 -0.378339
Br22  Br    Br    0.887196 0.403853 0.655157 -0.372835
Br23  Br    Br    0.410804 0.117891 0.344726 -0.379505
Br24  Br    Br    0.594688 0.886222 0.655115 -0.374026
Br25  Br    Br    0.392713 0.901397 0.846830 -0.364553
Br26  Br    Br    0.614061 0.904388 0.155240 -0.375966
Br27  Br    Br    0.141087 0.449478 0.847311 -0.339029
Br28  Br    Br    0.133836 0.567095 0.153326 -0.342351
Br29  Br    Br    0.613530 0.098831 0.842995 -0.370571
Br30  Br    Br    0.372985 0.073687 0.155753 -0.381675
Br31  Br    Br    0.858631 0.554139 0.846514 -0.337434
Br32  Br    Br    0.866405 0.430559 0.153941 -0.344504

loop_
_geom_bond_atom_site_label_1
_geom_bond_atom_site_label_2
_ccdc_geom_bond_type
C98   C121  S    
C67   Br11  S    
C4    C36   A    
O82   C187  S    
C111  Br23  S    
C130  C146  T    
C100  C127  S    
C180  H49   S    
O41   Zn4   S    
C102  C125  S    
O11   Zn10  S    
C90   O48   A    
C182  H53   S    
C104  C123  S    
O75   C173  S    
C26   O62   S    
C168  H20   S    
C104  O36   A    
C5    C37   A    
C20   C40   A    
C64   C112  A    
C21   C33   A    
C166  H15   S    
C187  C188  S    
C84   O12   A    
C192  H80   S    
C161  H2    S    
C82   O6    A    
C179  H46   S    
O15   Zn6   S    
O37   Zn8   S    
C11   O79   S    
C129  C145  T    
C169  C170  S    
C190  H75   S    
C2    C34   A    
O2    Zn2   S    
C16   O84   S    
C98   O40   A    
C24   N4    A    
C186  H64   S    
C188  H70   S    
C175  H37   S    
C65   C77   A    
C57   C105  A    
C51   C52   A    
C7    O75   S    
C72   Br16  S    
C67   C79   A    
C3    C8    A    
C183  H56   S    
O7    Zn14  S    
O79   C181  S    
C91   O23   A    
C60   C76   A    
O51   Zn5   S    
O46   Zn4   S    
C80   N3    S    
C82   O10   A    
C179  C180  S    
C20   O56   S    
C127  C143  T    
C184  H60   S    
C128  C144  T    
C29   O65   S    
C68   C116  A    
O13   Zn4   S    
C31   N7    A    
C32   N8    A    
C35   C51   A    
C95   C132  S    
C165  H12   S    
C118  C158  A    
C92   C135  S    
C115  Br27  S    
C182  H55   S    
C13   C45   A    
C32   O68   S    
C77   N2    S    
C177  C178  S    
C94   O26   A    
C65   C113  A    
C64   Br8   S    
C144  C145  S    
C183  C184  S    
O40   Zn1   S    
C70   Br14  S    
C99   C128  S    
C63   Br7   S    
C138  C151  S    
C139  C150  S    
C9    C41   A    
C71   C119  A    
O48   Zn2   S    
C18   C38   A    
C12   C44   A    
C101  O33   A    
O83   C189  S    
C169  H22   S    
C181  C182  S    
O18   Zn7   S    
O4    Zn9   S    
C95   O49   A    
C63   C111  A    
C185  H61   S    
C17   O53   S    
C28   N8    A    
C68   Br12  S    
C91   O45   A    
C178  H43   S    
C120  C160  A    
C7    C39   A    
C14   O82   S    
C8    C40   A    
C113  C157  A    
C111  C155  A    
C74   N5    S    
C107  C155  A    
C13   O81   S    
C105  C153  A    
O81   C185  S    
C69   C77   A    
O38   Zn7   S    
C104  O42   A    
C170  H25   S    
C71   C79   A    
C53   C54   A    
C24   C36   A    
C31   C43   A    
C99   O37   A    
O21   Zn16  S    
C87   O15   A    
O69   C161  S    
C88   O16   A    
C123  C139  T    
O4    Zn13  S    
C162  H3    S    
C121  C137  T    
C62   Br6   S    
C191  H76   S    
C177  H42   S    
O39   Zn2   S    
C90   C129  S    
C91   C136  S    
C125  C141  T    
C174  H34   S    
C6    C38   A    
C131  C147  T    
O47   Zn1   S    
O50   Zn8   S    
C28   O64   S    
C36   C52   A    
C45   C53   A    
C81   C160  S    
O72   C167  S    
C69   Br13  S    
C172  H29   S    
O43   Zn6   S    
C4    C7    A    
O14   Zn3   S    
C166  H13   S    
O17   Zn8   S    
C85   O17   A    
C22   C34   A    
C173  H32   S    
C97   O29   A    
C181  H51   S    
C87   O19   A    
C161  C162  S    
C106  C154  A    
O9    Zn16  S    
C31   O67   S    
O29   Zn11  S    
C59   C107  A    
C191  C192  S    
C81   O5    A    
O44   Zn5   S    
C3    C35   A    
C178  H45   S    
C72   C120  A    
C170  H23   S    
C19   N3    A    
C187  H67   S    
C164  H9    S    
C189  C190  S    
C41   C53   A    
C17   N1    A    
C12   O80   S    
C96   C131  S    
C100  O32   A    
O5    Zn12  S    
C43   C55   A    
C105  Br17  S    
C2    C5    A    
C25   C45   A    
O19   Zn2   S    
C58   C74   A    
C90   O22   A    
C27   C47   A    
C28   C48   A    
C85   O13   A    
C29   C41   A    
C142  C147  S    
C62   C74   A    
O1    Zn5   S    
C163  H6    S    
C22   O58   S    
C168  H19   S    
C3    O71   S    
C83   O11   A    
C93   O51   A    
C162  H5    S    
O42   Zn3   S    
C81   O9    A    
C72   C80   A    
C63   C75   A    
C70   C118  A    
O22   Zn15  S    
C166  H14   S    
O25   Zn12  S    
C5    O73   S    
O1    Zn12  S    
C192  H79   S    
C113  Br25  S    
C60   Br4   S    
O4    Zn8   S    
C78   N1    S    
C49   C50   A    
C112  C156  A    
C167  H16   S    
C71   Br15  S    
C140  C149  S    
C112  Br24  S    
C190  H74   S    
C143  C146  S    
C55   C56   A    
C10   C42   A    
C189  H72   S    
C39   C51   A    
C79   N4    S    
C103  O41   A    
C163  C164  S    
C186  H63   S    
C6    O74   S    
C14   C46   A    
C177  H41   S    
C101  O43   A    
C188  H69   S    
C25   O61   S    
C116  C160  A    
C117  Br29  S    
C171  H26   S    
C22   N2    A    
C183  H57   S    
C33   C49   A    
C20   N4    A    
O27   Zn14  S    
C116  Br28  S    
C94   C133  S    
C180  H48   S    
C29   N5    A    
C189  H71   S    
C114  C158  A    
O20   Zn1   S    
C136  C152  T    
O35   Zn13  S    
C109  Br21  S    
O10   Zn15  S    
O30   Zn12  S    
O33   Zn15  S    
C167  C168  S    
C137  C152  S    
C92   O46   A    
C75   N8    S    
C184  H59   S    
C109  C153  A    
C60   C108  A    
O3    Zn7   S    
O12   Zn9   S    
O1    Zn1   S    
O71   C165  S    
C4    O72   S    
C165  C166  S    
C103  C124  S    
C182  H54   S    
C1    O69   S    
O6    Zn11  S    
C66   C78   A    
C10   O78   S    
C19   O55   S    
C122  C138  T    
C171  C172  S    
O8    Zn13  S    
C185  C186  S    
C25   N5    A    
O76   C175  S    
O52   Zn6   S    
C126  C142  T    
C65   Br9   S    
C89   C130  S    
C1    C6    A    
C115  C159  A    
C85   C156  S    
C9    C14   A    
C161  H1    S    
C37   C49   A    
C11   C16   A    
C15   O83   S    
C23   O59   S    
C108  C156  A    
C12   C15   A    
C173  C174  S    
C46   C54   A    
C94   O52   A    
C87   C154  S    
C30   O66   S    
C185  H62   S    
C9    O77   S    
C86   O18   A    
C23   C35   A    
O26   Zn11  S    
O2    Zn11  S    
C59   Br3   S    
C186  H65   S    
C175  H36   S    
C95   O27   A    
C66   C114  A    
C124  C140  T    
C119  C159  A    
C93   O25   A    
C61   Br5   S    
C61   C73   A    
C102  O34   A    
C42   C54   A    
C82   C159  S    
C18   N2    A    
C102  O44   A    
C176  H38   S    
O70   C163  S    
C83   C158  S    
C135  C151  T    
C106  Br18  S    
O78   C179  S    
C18   O54   S    
C191  H77   S    
C176  H39   S    
C26   C46   A    
C96   O28   A    
C174  H33   S    
C99   O31   A    
C86   O14   A    
O23   Zn10  S    
C89   O21   A    
C165  H11   S    
C30   C42   A    
C84   O8    A    
C92   O24   A    
C175  C176  S    
C68   C80   A    
O34   Zn16  S    
C83   O7    A    
C70   C78   A    
C172  H28   S    
C15   C47   A    
C86   C155  S    
C61   C109  A    
C16   C48   A    
C1    C33   A    
O80   C183  S    
O3    Zn14  S    
O73   C169  S    
O1    Zn16  S    
C58   Br2   S    
C169  H21   S    
C181  H52   S    
C2    O70   S    
C114  Br26  S    
C107  Br19  S    
C134  C150  T    
C108  Br20  S    
C76   N7    S    
C44   C56   A    
C67   C115  A    
C141  C148  S    
O74   C171  S    
C178  H44   S    
C8    O76   S    
C119  Br31  S    
O16   Zn5   S    
C11   C43   A    
C164  H8    S    
C89   O47   A    
O36   Zn14  S    
O77   C177  S    
C118  Br30  S    
C23   N3    A    
C34   C50   A    
C21   N1    A    
C98   O30   A    
O3    Zn10  S    
C117  C157  A    
C132  C148  T    
C133  C149  T    
C30   N6    A    
C93   C134  S    
O32   Zn10  S    
C100  O38   A    
C176  H40   S    
C163  H7    S    
C172  H30   S    
C168  H18   S    
C40   C52   A    
O24   Zn9   S    
C162  H4    S    
O28   Zn13  S    
O49   Zn7   S    
C97   C122  S    
C110  C154  A    
C58   C106  A    
C62   C110  A    
C174  H35   S    
C101  C126  S    
C64   C76   A    
C17   C37   A    
C97   O39   A    
C192  H78   S    
C19   C39   A    
C27   O63   S    
C57   Br1   S    
C180  H50   S    
C167  H17   S    
C59   C75   A    
C120  Br32  S    
C47   C55   A    
C190  H73   S    
C48   C56   A    
C173  H31   S    
C26   N6    A    
C66   Br10  S    
C57   C73   A    
O2    Zn6   S    
C73   N6    S    
O45   Zn3   S    
C10   C13   A    
C179  H47   S    
C84   C157  S    
C38   C50   A    
C21   O57   S    
C188  H68   S    
O4    Zn4   S    
C88   C153  S    
O84   C191  S    
C171  H27   S    
O3    Zn3   S    
C96   O50   A    
C69   C117  A    
C170  H24   S    
O2    Zn15  S    
C187  H66   S    
C164  H10   S    
C103  O35   A    
O31   Zn9   S    
C88   O20   A    
C32   C44   A    
C27   N7    A    
C184  H58   S    
C24   O60   S    
C110  Br22  S    
