data_mof_unit_5586.cif
_audit_creation_date              2012-10-26T19:15:07-0400
_audit_creation_method            fapswitch 2.2
_symmetry_space_group_name_H-M    P1
_symmetry_Int_Tables_number       1
_space_group_crystal_system       triclinic
_cell_length_a                    10.906519
_cell_length_b                    10.938236
_cell_length_c                    9.533449
_cell_angle_alpha                 91.294718
_cell_angle_beta                  89.560671
_cell_angle_gamma                 90.984295
_cell_volume                      1136.83386192

loop_
_atom_site_label
_atom_site_type_symbol
_atom_type_description
_atom_site_fract_x
_atom_site_fract_y
_atom_site_fract_z
_atom_type_partial_charge
Br1   Br    Br    0.871858 0.454129 0.183049 -0.558509
Br2   Br    Br    0.504687 0.124480 0.179623 -0.546322
C1    C     C_R   0.497783 0.262735 0.497802 0.570372
C2    C     C_R   0.484161 0.943749 0.621598 0.014745
C3    C     C_3   0.479764 0.947979 0.778836 -0.121221
C4    C     C_R   0.262894 0.498799 0.500391 0.549090
C5    C     C_3   0.476345 0.087993 0.770381 -0.205072
C6    C     C_R   0.596447 0.549937 0.074098 0.232677
C7    C     C_R   0.411079 0.439664 0.073636 0.019103
C8    C     C_R   0.411190 0.439496 0.924680 -0.013053
C9    C     C_R   0.596928 0.549125 0.926353 0.178663
C10   C     C_3   0.637449 0.679082 0.923777 -0.290500
C11   C     C_3   0.638677 0.679893 0.082125 -0.267414
C12   C     C_R   0.937045 0.494643 0.618414 -0.038650
C13   C     C_R   0.497734 0.737566 0.501313 0.548557
C14   C     C_R   0.737463 0.495620 0.498662 0.571580
C15   C     C_R   0.060841 0.498187 0.620807 0.017056
C16   C     C_R   0.130806 0.495896 0.498967 -0.020980
C17   C     C_R   0.068066 0.487144 0.370600 -0.122976
C18   C     C_R   0.939634 0.482121 0.366766 0.138237
C19   C     C_R   0.870517 0.490268 0.494443 0.018035
C20   C     C_3   0.120245 0.612460 0.844471 -0.402651
C21   C     C_3   0.362493 0.890651 0.839751 -0.403253
C22   C     C_3   0.925282 0.491422 0.774262 -0.210698
C23   C     C_3   0.066641 0.495156 0.777168 -0.116030
C24   C     C_R   0.482773 0.067185 0.616210 -0.039417
C25   C     C_R   0.492273 0.130333 0.492295 0.020023
C26   C     C_R   0.496091 0.059127 0.365496 0.143683
C27   C     C_R   0.494728 0.931109 0.371563 -0.123900
C28   C     C_R   0.492565 0.870442 0.500740 -0.023231
Cu1   Cu    Cu3+1 0.499990 0.499980 0.640670 0.934065
Cu2   Cu    Cu3+1 0.500010 0.500020 0.359330 1.014531
H1    H     H_    0.118406 0.481423 0.272303 0.159320
H2    H     H_    0.568698 0.740881 0.128178 0.140016
H3    H     H_    0.882159 0.574501 0.818835 0.151268
H4    H     H_    0.884788 0.403529 0.810316 0.166503
H5    H     H_    0.107283 0.409753 0.815706 0.145514
H6    H     H_    0.496004 0.879900 0.273795 0.152191
H7    H     H_    0.221298 0.614354 0.831788 0.155563
H8    H     H_    0.082355 0.695157 0.796138 0.142849
H9    H     H_    0.098319 0.614643 0.958414 0.154111
H10   H     H_    0.357922 0.910649 0.954336 0.163011
H11   H     H_    0.279552 0.927199 0.789469 0.145633
H12   H     H_    0.566488 0.919446 0.826862 0.149331
H13   H     H_    0.362729 0.790140 0.822432 0.147652
H14   H     H_    0.388416 0.129935 0.804104 0.153921
H15   H     H_    0.560305 0.134700 0.811851 0.173214
H16   H     H_    0.338021 0.392501 0.128806 0.137927
H17   H     H_    0.338341 0.392151 0.868249 0.115238
H18   H     H_    0.728798 0.694138 0.875382 0.126628
H19   H     H_    0.563755 0.734016 0.881452 0.147826
H20   H     H_    0.732063 0.690908 0.126894 0.170943
N1    N     N_R   0.500790 0.500930 0.147930 -0.227823
N2    N     N_R   0.500790 0.500890 0.852020 -0.248460
O1    O     O_R   0.500000 0.319640 0.618810 -0.516831
O2    O     O_R   0.500010 0.319680 0.381230 -0.440151
O3    O     O_R   0.319650 0.499970 0.618810 -0.517028
O4    O     O_R   0.319660 0.500010 0.381230 -0.525322
O5    O     O_R   0.499990 0.680320 0.618770 -0.510096
O6    O     O_R   0.500000 0.680360 0.381190 -0.522152
O7    O     O_R   0.680340 0.499990 0.618770 -0.510876
O8    O     O_R   0.680350 0.500030 0.381190 -0.446458

loop_
_geom_bond_atom_site_label_1
_geom_bond_atom_site_label_2
_ccdc_geom_bond_type
C27   H6    S    
C6    N1    A    
C2    C24   A    
C9    C10   S    
C13   O5    A    
C14   C19   S    
C21   H13   S    
C11   H20   S    
C13   O6    A    
C4    O4    A    
C10   H18   S    
C17   C18   A    
C12   C15   A    
Cu2   O4    S    
C15   C23   S    
Cu1   O3    S    
C1    C25   S    
C15   C16   A    
C20   H8    S    
C11   H2    S    
C22   H4    S    
C10   C11   S    
C9    N2    A    
C4    O3    A    
C24   C25   A    
C6    C11   S    
C5    C24   S    
C14   O8    A    
C7    H16   S    
C6    C9    A    
C8    N2    A    
C20   H7    S    
C12   C19   A    
C26   C27   A    
C3    H12   S    
C7    C8    A    
Cu1   N2    S    
C17   H1    S    
C4    C16   S    
C22   H3    S    
C7    N1    A    
C14   O7    A    
Cu2   O6    S    
C27   C28   A    
C20   H9    S    
C5    H14   S    
Cu2   N1    S    
C10   H19   S    
C21   H11   S    
C22   C23   S    
C20   C23   S    
C13   C28   S    
C16   C17   A    
C1    O2    A    
C12   C22   S    
C25   C26   A    
C3    C5    S    
Cu1   O7    S    
Br1   C18   S    
Br2   C26   S    
Cu2   O8    S    
Cu1   O1    S    
C18   C19   A    
C8    H17   S    
C1    O1    A    
C3    C21   S    
Cu2   O2    S    
Cu1   Cu2   S    
C2    C28   A    
C21   H10   S    
C23   H5    S    
C2    C3    S    
Cu1   O5    S    
C5    H15   S    
