data_mof_unit_42465.cif
_audit_creation_date              2012-12-11T17:43:56-0500
_audit_creation_method            fapswitch 2.2
_symmetry_space_group_name_H-M    P1
_symmetry_Int_Tables_number       1
_space_group_crystal_system       triclinic
_cell_length_a                    20.253517
_cell_length_b                    22.727666
_cell_length_c                    6.940764
_cell_angle_alpha                 89.99904
_cell_angle_beta                  87.235336
_cell_angle_gamma                 90.00007
_cell_volume                      3191.22028709

loop_
_atom_site_label
_atom_site_type_symbol
_atom_type_description
_atom_site_fract_x
_atom_site_fract_y
_atom_site_fract_z
_atom_type_partial_charge
O1    O     O_R   0.751270 0.447300 0.600030 -0.515387
O2    O     O_R   0.248730 0.947300 0.399970 -0.515418
O3    O     O_R   0.613530 0.440160 0.952150 -0.534735
O4    O     O_R   0.386470 0.940160 0.047850 -0.534730
O5    O     O_R   0.613050 0.552700 0.122560 -0.547247
O6    O     O_R   0.386950 0.052700 0.877440 -0.547242
C1    C     C_R   0.591657 0.425308 0.786348 0.710553
C2    C     C_R   0.408342 0.925308 0.213654 0.710589
O7    O     O_R   0.750780 0.440350 0.929820 -0.515294
O8    O     O_R   0.249220 0.940350 0.070180 -0.515331
O9    O     O_R   0.751280 0.552900 0.100070 -0.556097
O10   O     O_R   0.248720 0.052900 0.899930 -0.556100
C3    C     C_R   0.774229 0.426723 0.757984 0.831782
C4    C     C_R   0.225771 0.926724 0.242018 0.831932
O11   O     O_R   0.613040 0.447100 0.622520 -0.545845
O12   O     O_R   0.386960 0.947100 0.377480 -0.545850
O13   O     O_3   0.682160 0.536920 0.777780 -0.375647
O14   O     O_3   0.317840 0.036920 0.222220 -0.375628
V1    V     V_3+5 0.682160 0.493150 0.052630 1.543745
V2    V     V_3+5 0.317840 0.993150 0.947370 1.543673
O15   O     O_R   0.750790 0.559840 0.429870 -0.499592
O16   O     O_R   0.249210 0.059840 0.570130 -0.499552
C5    C     C_R   0.773317 0.574569 0.258135 0.827608
C6    C     C_R   0.226681 0.074569 0.741862 0.827535
O17   O     O_R   0.613540 0.559650 0.452200 -0.543272
O18   O     O_R   0.386460 0.059650 0.547800 -0.543277
C7    C     C_R   0.591659 0.574446 0.286497 0.662327
C8    C     C_R   0.408340 0.074447 0.713501 0.662332
V3    V     V_3+5 0.682160 0.506850 0.552630 1.556650
V4    V     V_3+5 0.317840 0.006850 0.447370 1.556633
O19   O     O_3   0.682150 0.463080 0.277610 -0.355000
O20   O     O_3   0.317850 0.963080 0.722390 -0.355050
C9    C     C_R   0.581183 0.864434 0.212209 0.411403
C10   C     C_R   0.418815 0.364432 0.787883 0.411398
H1    H     H_    0.537364 0.950021 0.193628 0.134513
H2    H     H_    0.462634 0.450018 0.806465 0.134513
C11   C     C_R   0.463245 0.882647 0.215526 -0.113848
C12   C     C_R   0.536755 0.382646 0.784485 -0.113841
C13   C     C_R   0.472766 0.596169 0.317051 -0.170220
C14   C     C_R   0.527233 0.096172 0.682884 -0.170210
C15   C     C_R   0.419148 0.634314 0.322556 -0.093967
C16   C     C_R   0.580850 0.134318 0.677356 -0.093971
C17   C     C_R   0.428516 0.694635 0.297876 -0.116241
C18   C     C_R   0.571482 0.194638 0.702063 -0.116253
C19   C     C_R   0.492614 0.718795 0.265600 0.087354
C20   C     C_R   0.507386 0.218796 0.734390 0.087361
C21   C     C_R   0.547441 0.679201 0.259910 0.030846
C22   C     C_R   0.452559 0.179200 0.740109 0.030856
C23   C     C_R   0.503853 0.780816 0.241853 -0.029389
C24   C     C_R   0.496147 0.280815 0.758160 -0.029378
C25   C     C_R   0.570180 0.802413 0.221445 -0.012147
C26   C     C_R   0.429820 0.302411 0.778624 -0.012145
C27   C     C_R   0.623472 0.761931 0.205581 0.356693
C28   C     C_R   0.376530 0.261927 0.794520 0.356668
C29   C     C_R   0.611459 0.701474 0.227395 -0.266126
C30   C     C_R   0.388543 0.201471 0.772679 -0.266151
C31   C     C_R   0.451148 0.822246 0.236760 -0.172510
C32   C     C_R   0.548852 0.322246 0.763222 -0.172504
C33   C     C_R   0.527980 0.903125 0.203646 -0.202692
C34   C     C_R   0.472020 0.403123 0.796421 -0.202690
C35   C     C_R   0.537000 0.617643 0.285921 -0.061422
C36   C     C_R   0.463000 0.117643 0.714068 -0.061429
H3    H     H_    0.399984 0.809191 0.246278 0.135040
H4    H     H_    0.600016 0.309193 0.753664 0.134980
H5    H     H_    0.464131 0.549486 0.337909 0.116885
H6    H     H_    0.535868 0.049490 0.662001 0.116888
H7    H     H_    0.384385 0.721048 0.307598 0.135195
H8    H     H_    0.615613 0.221051 0.692318 0.135157
H9    H     H_    0.369673 0.616997 0.347562 0.148660
H10   H     H_    0.630324 0.117003 0.652310 0.148660
H11   H     H_    0.653145 0.671610 0.217269 0.104232
H12   H     H_    0.346857 0.171606 0.782827 0.104200
C37   C     C_R   0.168372 0.885848 0.258356 -0.209103
C38   C     C_R   0.831626 0.385842 0.741656 -0.209291
C39   C     C_R   0.166015 0.834759 0.142163 0.309567
C40   C     C_R   0.834002 0.334781 0.858071 0.309638
C41   C     C_R   0.110311 0.797930 0.153456 -0.157861
C42   C     C_R   0.889709 0.297954 0.846794 -0.157907
C43   C     C_R   0.055821 0.811058 0.280355 0.293234
C44   C     C_R   0.944181 0.311053 0.719678 0.293329
C45   C     C_R   0.058582 0.861295 0.395849 -0.164723
C46   C     C_R   0.941401 0.361260 0.603963 -0.164720
C47   C     C_R   0.113706 0.898520 0.386251 0.314137
C48   C     C_R   0.886274 0.398483 0.613546 0.314239
C49   C     C_R   0.895666 0.695738 0.382607 0.228161
C50   C     C_R   0.104277 0.195689 0.617313 0.228220
C51   C     C_R   0.838322 0.659254 0.390571 0.204866
C52   C     C_R   0.161634 0.159219 0.609345 0.204908
C53   C     C_R   0.939414 0.694815 0.215891 0.352741
C54   C     C_R   0.060563 0.194792 0.784100 0.352787
N1    N     N_2   0.997421 0.775709 0.297729 -0.177898
N2    N     N_2   0.002587 0.275711 0.702335 -0.177976
N3    N     N_2   0.997899 0.730399 0.195704 -0.207528
N4    N     N_2   0.002071 0.230366 0.804280 -0.207489
C55   C     C_R   0.828743 0.617757 0.243088 -0.133083
C56   C     C_R   0.171250 0.117753 0.756903 -0.133048
H13   H     H_    0.016912 0.871915 0.493393 0.193823
H14   H     H_    0.983058 0.371858 0.506255 0.193803
C57   C     C_R   0.873090 0.616593 0.081697 -0.339465
C58   C     C_R   0.126931 0.116614 0.918366 -0.339545
C59   C     C_R   0.927784 0.654842 0.066802 0.294403
C60   C     C_R   0.072229 0.154851 0.933260 0.294397
H15   H     H_    0.865747 0.585079 0.967539 0.180295
H16   H     H_    0.134303 0.085127 0.032585 0.180383
H17   H     H_    0.109978 0.759158 0.062907 0.203916
H18   H     H_    0.890062 0.259211 0.937539 0.203932
O21   O     O_3   0.911257 0.730310 0.537827 -0.601591
H19   H     H_    0.891096 0.713099 0.657758 0.321052
O22   O     O_3   0.088627 0.230215 0.462045 -0.601558
H20   H     H_    0.108880 0.213065 0.342131 0.321051
Cl1   Cl    Cl    0.110107 0.962444 0.530418 -0.631227
Cl2   Cl    Cl    0.889856 0.462371 0.469089 -0.631181
O23   O     O_3   0.971732 0.653349 0.908342 -0.601750
H21   H     H_    0.956994 0.623281 0.816164 0.319838
O24   O     O_3   0.028308 0.153381 0.091792 -0.601706
H22   H     H_    0.043073 0.123340 0.184024 0.319911
Cl3   Cl    Cl    0.232865 0.813873 0.984937 -0.625232
Cl4   Cl    Cl    0.767173 0.313923 0.015561 -0.625022
O25   O     O_3   0.686933 0.781669 0.160020 -0.622366
H23   H     H_    0.718071 0.747955 0.154358 0.297040
O26   O     O_3   0.313071 0.281663 0.840143 -0.622389
H24   H     H_    0.281935 0.247948 0.845825 0.297004
O27   O     O_3   0.643024 0.889301 0.217337 -0.604086
H25   H     H_    0.665231 0.870643 0.325909 0.331329
O28   O     O_3   0.356973 0.389298 0.782802 -0.604098
H26   H     H_    0.334756 0.370640 0.674249 0.331318
O29   O     O_3   0.790390 0.664231 0.538202 -0.638851
H27   H     H_    0.789631 0.705353 0.585526 0.303448
O30   O     O_3   0.209536 0.164172 0.461625 -0.638826
H28   H     H_    0.210313 0.205299 0.414336 0.303314

loop_
_geom_bond_atom_site_label_1
_geom_bond_atom_site_label_2
_ccdc_geom_bond_type
C57   H15   S    
C52   C56   A    
O11   V3    S    
C59   O23   S    
C39   Cl3   S    
C58   H16   S    
O4    C2    A    
V1    O19   S    
C51   O29   S    
C23   C31   A    
O27   H25   S    
C13   C15   A    
O9    V1    S    
C48   Cl2   S    
C38   C40   A    
O16   C6    A    
C15   H9    S    
C40   C42   A    
O30   H28   S    
O3    C1    A    
C6    C56   S    
C42   C44   A    
C55   C57   A    
O12   V4    S    
O24   H22   S    
C16   H10   S    
C14   C36   A    
O17   V3    S    
H1    C33   S    
C19   C21   A    
O7    C3    A    
C54   C60   A    
C60   O24   S    
C7    C35   S    
O5    C7    A    
O7    V1    S    
O6    C8    A    
C18   C20   A    
C30   H12   S    
C51   C55   A    
C24   C26   A    
O21   H19   S    
O3    V1    S    
O14   V4    S    
C15   C17   A    
C43   N1    S    
C27   C29   A    
C9    C33   A    
C12   C32   A    
C10   C34   A    
C13   H5    S    
C16   C18   A    
C52   O30   S    
N2    N4    D    
C45   C47   A    
C26   C28   A    
C54   N4    S    
C20   C22   A    
C49   C51   A    
C32   H4    S    
C13   C35   A    
C28   C30   A    
C46   H14   S    
C50   C52   A    
C24   C32   A    
C4    C37   S    
C50   O22   S    
C44   C46   A    
C50   C54   A    
O8    V2    S    
C43   C45   A    
C49   C53   A    
C1    O11   A    
C23   C25   A    
O15   V3    S    
C40   Cl4   S    
C25   C27   A    
C44   N2    S    
N1    N3    D    
C39   C41   A    
C22   C36   A    
C19   C23   A    
O10   V2    S    
C58   C60   A    
C41   C43   A    
C17   C19   A    
O26   H24   S    
C11   C33   A    
C12   C34   A    
C17   H7    S    
C57   C59   A    
C28   O26   S    
O18   V4    S    
C46   C48   A    
O15   C5    A    
O8    C4    A    
O28   H26   S    
C47   Cl1   S    
C18   H8    S    
C9    C25   A    
C2    C11   S    
C37   C39   A    
O29   H27   S    
C21   C29   A    
O23   H21   S    
V2    O20   S    
C22   C30   A    
O10   C6    A    
O16   V4    S    
C53   C59   A    
C10   C26   A    
C31   H3    S    
C38   C48   A    
C14   C16   A    
H2    C34   S    
C21   C35   A    
O25   H23   S    
C27   O25   S    
O5    V1    S    
O17   C7    A    
O6    V2    S    
C20   C24   A    
O18   C8    A    
C42   H18   S    
O2    V4    S    
C41   H17   S    
V3    O19   S    
C49   O21   S    
O13   V3    S    
V4    O20   S    
O1    V3    S    
C45   H13   S    
C10   O28   S    
C56   C58   A    
O9    C5    A    
O13   V1    S    
C1    C12   S    
C5    C55   S    
O14   V2    S    
C53   N3    S    
O2    C4    A    
C11   C31   A    
O4    V2    S    
O1    C3    A    
C3    C38   S    
C2    O12   A    
C9    O27   S    
C14   H6    S    
O22   H20   S    
C37   C47   A    
C29   H11   S    
C8    C36   S    
