data_mof_unit_28621.cif
_audit_creation_date              2012-12-10T20:38:25-0500
_audit_creation_method            fapswitch 2.2
_symmetry_space_group_name_H-M    P1
_symmetry_Int_Tables_number       1
_space_group_crystal_system       triclinic
_cell_length_a                    9.845401
_cell_length_b                    10.696873
_cell_length_c                    16.676281
_cell_angle_alpha                 90.110391
_cell_angle_beta                  86.038567
_cell_angle_gamma                 90.205244
_cell_volume                      1752.05277926

loop_
_atom_site_label
_atom_site_type_symbol
_atom_type_description
_atom_site_fract_x
_atom_site_fract_y
_atom_site_fract_z
_atom_type_partial_charge
C1    C     C_R   0.500745 0.739952 0.498242 0.891320
C2    C     C_R   0.346234 0.480413 0.782786 -0.268172
C3    C     C_R   0.405054 0.451204 0.139848 -0.151499
C4    C     C_R   0.407869 0.492567 0.218417 -0.204178
C5    C     C_R   0.640868 0.420421 0.222020 -0.202768
C6    C     C_R   0.637863 0.378509 0.143223 -0.177920
C7    C     C_R   0.518981 0.390777 0.102431 0.203541
C8    C     C_2   0.409991 0.334834 0.978464 -0.207804
C9    C     C_2   0.522685 0.353974 0.017861 -0.231437
C10   C     C_R   0.524722 0.475279 0.260405 -0.029359
C11   C     C_R   0.406607 0.935714 0.451352 0.052348
C12   C     C_R   0.481913 0.493207 0.653431 0.893051
C13   C     C_R   0.506416 0.871537 0.489716 -0.116285
C14   C     C_R   0.619583 0.936157 0.515565 -0.216314
C15   C     C_R   0.618764 0.064931 0.516235 -0.216892
C16   C     C_R   0.504675 0.128381 0.491429 -0.044120
C17   C     C_R   0.404866 0.063370 0.453001 -0.040553
C18   C     C_3   0.252573 0.068591 0.459675 0.260810
C19   C     C_3   0.255041 0.925794 0.457663 0.235682
C20   C     C_R   0.920848 0.529273 0.568069 0.266068
C21   C     C_R   0.935490 0.459779 0.434832 -0.174052
C22   C     C_R   0.079568 0.459996 0.434757 -0.158515
C23   C     C_R   0.500216 0.260040 0.498916 0.905831
C24   C     C_R   0.063225 0.527381 0.568603 0.213458
C25   C     C_3   0.064382 0.645263 0.616431 -0.543355
C26   C     C_3   0.910481 0.648927 0.613813 -0.519446
C27   C     C_R   0.517721 0.498162 0.346518 0.859832
C28   C     C_R   0.468632 0.453961 0.737671 -0.124302
C29   C     C_R   0.566602 0.374548 0.769327 0.478524
C30   C     C_R   0.532877 0.317723 0.844234 -0.292638
C31   C     C_R   0.417215 0.354493 0.891523 0.156247
C32   C     C_R   0.321833 0.432873 0.859769 -0.174523
H1    H     H_    0.703684 0.888144 0.540487 0.158339
H2    H     H_    0.216756 0.880242 0.514738 0.087131
H3    H     H_    0.887422 0.429288 0.381788 0.152092
H4    H     H_    0.139856 0.429880 0.381622 0.153511
H5    H     H_    0.097723 0.629444 0.677840 0.199685
H6    H     H_    0.117405 0.722944 0.583706 0.199708
H7    H     H_    0.855411 0.637521 0.673805 0.217496
H8    H     H_    0.874487 0.727383 0.577250 0.196592
H9    H     H_    0.731876 0.405635 0.253676 0.143729
H10   H     H_    0.621905 0.358929 0.985131 0.142784
H11   H     H_    0.314430 0.469019 0.108646 0.122681
H12   H     H_    0.270307 0.540198 0.758919 0.162208
H13   H     H_    0.310219 0.331098 0.010388 0.140993
H14   H     H_    0.599623 0.249756 0.868770 0.120687
N1    N     N_R   0.857140 0.500860 0.500530 -0.107779
N2    N     N_R   0.142780 0.500820 0.500530 -0.105992
O1    O     O_R   0.385310 0.683210 0.499990 -0.617927
O2    O     O_R   0.614650 0.683240 0.500000 -0.625623
O3    O     O_R   0.371780 0.500000 0.615800 -0.617966
O4    O     O_R   0.601120 0.500040 0.615800 -0.561647
O5    O     O_R   0.385350 0.316760 0.500000 -0.580772
O6    O     O_R   0.614690 0.316790 0.500010 -0.626839
O7    O     O_R   0.398880 0.499960 0.384200 -0.622502
O8    O     O_R   0.628220 0.500000 0.384200 -0.629575
Zn1   Zn    Zn3+2 0.346870 0.499980 0.499990 0.965109
Zn2   Zn    Zn3+2 0.653130 0.500020 0.500010 0.959180
O9    O     O_3   0.688873 0.351244 0.723976 -0.600159
C33   C     C_3   0.795666 0.313176 0.771263 0.078150
H15   H     H_    0.788030 0.210740 0.782061 0.149682
H16   H     H_    0.794810 0.364519 0.829578 0.127270
C34   C     C_3   0.932384 0.340133 0.726999 -0.822699
H17   H     H_    0.953233 0.441939 0.728027 0.238831
H18   H     H_    0.014527 0.291589 0.756966 0.213974
H19   H     H_    0.931922 0.307458 0.664037 0.262181
H20   H     H_    0.727882 0.335375 0.114278 0.123271
H21   H     H_    0.702573 0.114048 0.541114 0.169181
O10   O     O_3   0.203088 0.115280 0.535347 -0.594201
C35   C     C_3   0.059418 0.124289 0.539643 0.116494
H22   H     H_    0.010161 0.087979 0.485980 0.103978
H23   H     H_    0.031724 0.224423 0.545654 0.164523
C36   C     C_3   0.000701 0.053600 0.613333 -0.879513
H24   H     H_    0.049761 0.085815 0.667721 0.275599
H25   H     H_    0.889504 0.070042 0.622207 0.216897
H26   H     H_    0.018567 0.951816 0.605290 0.239241
H27   H     H_    0.212071 0.115488 0.406651 0.089736
O11   O     O_3   0.208283 0.876985 0.385628 -0.610023
C37   C     C_3   0.080645 0.818521 0.401717 0.106002
H28   H     H_    0.004537 0.885394 0.429177 0.122577
H29   H     H_    0.090011 0.737556 0.442503 0.162107
C38   C     C_3   0.029238 0.769772 0.323622 -0.797686
H30   H     H_    0.102319 0.700866 0.295660 0.247875
H31   H     H_    0.928939 0.723228 0.335970 0.212034
H32   H     H_    0.017510 0.848373 0.281256 0.251330
H33   H     H_    0.317641 0.536143 0.246807 0.151965
H34   H     H_    0.231541 0.461764 0.895803 0.133504

loop_
_geom_bond_atom_site_label_1
_geom_bond_atom_site_label_2
_ccdc_geom_bond_type
C10   C27   S    
C22   N2    A    
C34   H18   S    
C36   H24   S    
C14   H1    S    
N2    Zn1   S    
C3    H11   S    
C9    H10   S    
C12   C28   S    
C33   C34   S    
C33   H16   S    
C28   C29   A    
C3    C7    A    
C5    C6    A    
C27   O7    A    
C26   H7    S    
C4    H33   S    
C15   C16   A    
O1    Zn1   S    
C2    C32   A    
C18   C19   S    
C8    H13   S    
C25   H5    S    
C20   C24   A    
C2    H12   S    
C16   C17   A    
C35   H22   S    
O3    Zn1   S    
C1    O2    A    
C18   O10   S    
C34   H19   S    
O9    C33   S    
C13   C14   A    
C36   H25   S    
C12   O4    A    
C23   O5    A    
O2    Zn2   S    
C29   O9    S    
C24   C25   S    
C37   H29   S    
O5    Zn1   S    
O11   C37   S    
C8    C9    D    
C25   C26   S    
C32   H34   S    
C34   H17   S    
C33   H15   S    
C24   N2    A    
C19   O11   S    
C29   C30   A    
C25   H6    S    
C31   C32   A    
C11   C19   S    
C35   C36   S    
C17   C18   S    
O4    Zn2   S    
C6    H20   S    
C16   C23   S    
C38   H31   S    
O7    Zn1   S    
C36   H26   S    
C1    C13   S    
C4    C10   A    
C3    C4    A    
C12   O3    A    
C23   O6    A    
O6    Zn2   S    
C7    C9    S    
C5    H9    S    
C11   C17   A    
C27   O8    A    
C8    C31   S    
C30   H14   S    
C19   H2    S    
C37   C38   S    
C2    C28   A    
C6    C7    A    
C21   H3    S    
C38   H32   S    
C22   H4    S    
C5    C10   A    
N1    Zn2   S    
C11   C13   A    
C26   H8    S    
C30   C31   A    
C20   C26   S    
C18   H27   S    
C15   H21   S    
O8    Zn2   S    
O10   C35   S    
C20   N1    A    
C37   H28   S    
C38   H30   S    
C14   C15   A    
C35   H23   S    
C21   C22   A    
C1    O1    A    
C21   N1    A    
