data_mof_unit_29805.cif
_audit_creation_date              2012-12-10T18:29:40-0500
_audit_creation_method            fapswitch 2.2
_symmetry_space_group_name_H-M    P1
_symmetry_Int_Tables_number       1
_space_group_crystal_system       triclinic
_cell_length_a                    11.555008
_cell_length_b                    14.951483
_cell_length_c                    15.442508
_cell_angle_alpha                 82.313259
_cell_angle_beta                  89.707307
_cell_angle_gamma                 104.011423
_cell_volume                      2563.3288813

loop_
_atom_site_label
_atom_site_type_symbol
_atom_type_description
_atom_site_fract_x
_atom_site_fract_y
_atom_site_fract_z
_atom_type_partial_charge
C1    C     C_R   0.481032 0.441785 0.662366 0.865100
C2    C     C_R   0.514059 0.558093 0.337668 0.867113
C3    C     C_R   0.372248 0.350291 0.930585 0.147195
C4    C     C_R   0.470891 0.650453 0.068684 0.146430
C5    C     C_R   0.419967 0.514690 0.954469 0.022084
C6    C     C_R   0.407062 0.486184 0.045016 0.024827
C7    C     C_R   0.358645 0.390889 0.076247 -0.205056
C8    C     C_R   0.438267 0.610463 0.922574 -0.209749
C9    C     C_R   0.338845 0.323158 0.019977 0.127551
C10   C     C_R   0.461277 0.678255 0.978664 0.132354
C11   C     C_R   0.662142 0.837157 0.647341 -0.203202
C12   C     C_R   0.336595 0.163337 0.352689 -0.198921
C13   C     C_R   0.640416 0.750687 0.618865 -0.005148
C14   C     C_R   0.360040 0.250018 0.380743 -0.002031
C15   C     C_R   0.515090 0.796093 0.509865 -0.007191
C16   C     C_R   0.482524 0.203005 0.491100 -0.004418
C17   C     C_R   0.542811 0.887907 0.529867 -0.021941
C18   C     C_R   0.453420 0.111178 0.471142 -0.024455
C19   C     C_R   0.610895 0.906725 0.604634 -0.026688
C20   C     C_R   0.385852 0.092934 0.396047 -0.021032
C21   C     C_R   0.498136 0.958993 0.481227 -0.036916
C22   C     C_R   0.496845 0.039642 0.520010 -0.037956
C23   C     C_R   0.718001 0.500718 0.500111 0.906753
C24   C     C_R   0.281998 0.499281 0.499892 0.902615
C25   C     C_R   0.541238 0.047008 0.605461 0.061791
C26   C     C_R   0.453394 0.951676 0.395793 0.063069
C27   C     C_R   0.616724 0.990585 0.638980 0.445323
C28   C     C_R   0.378812 0.008788 0.361965 0.450160
C29   C     C_1   0.838946 0.501795 0.500386 -0.168064
C30   C     C_1   0.161064 0.498208 0.499608 -0.167155
C31   C     C_1   0.940906 0.500926 0.500202 0.025554
C32   C     C_1   0.059108 0.499080 0.499788 0.024941
C33   C     C_R   0.451057 0.407020 0.754849 -0.061245
C34   C     C_R   0.504761 0.592331 0.245349 -0.061008
C35   C     C_R   0.365637 0.284194 0.872264 -0.175692
C36   C     C_R   0.508358 0.716264 0.126768 -0.170173
C37   C     C_R   0.403368 0.312598 0.784804 -0.178978
C38   C     C_R   0.524838 0.687230 0.214408 -0.180618
C39   C     C_R   0.459641 0.472177 0.812395 -0.238622
C40   C     C_R   0.466418 0.527077 0.188685 -0.242007
C41   C     C_R   0.414985 0.446446 0.898532 0.068357
C42   C     C_R   0.444808 0.553922 0.101445 0.067755
H1    H     H_    0.458064 0.454693 0.212946 0.161476
H2    H     H_    0.504477 0.543585 0.789387 0.159971
H3    H     H_    0.554445 0.738871 0.257587 0.164409
H4    H     H_    0.394751 0.260907 0.740801 0.165666
H5    H     H_    0.331444 0.210444 0.893373 0.162900
H6    H     H_    0.527044 0.790341 0.105043 0.166734
H7    H     H_    0.332339 0.368100 0.144399 0.142282
H8    H     H_    0.431910 0.633666 0.853835 0.152727
H9    H     H_    0.547284 0.224953 0.538709 0.153583
H10   H     H_    0.449624 0.773402 0.462961 0.153430
H11   H     H_    0.323553 0.304535 0.346845 0.132888
H12   H     H_    0.678335 0.696766 0.652295 0.141226
H13   H     H_    0.713739 0.846075 0.704947 0.218972
H14   H     H_    0.285363 0.154912 0.294885 0.207882
N1    N     N_R   0.566020 0.731700 0.552730 -0.105242
N2    N     N_R   0.433980 0.268300 0.447270 -0.104133
O1    O     O_R   0.466720 0.383110 0.605620 -0.617406
O2    O     O_R   0.533280 0.616890 0.394380 -0.616268
O3    O     O_R   0.509090 0.531900 0.639510 -0.625251
O4    O     O_R   0.490910 0.468100 0.360490 -0.624072
O5    O     O_R   0.644370 0.425610 0.483050 -0.604995
O6    O     O_R   0.355630 0.574390 0.516950 -0.608312
O7    O     O_R   0.686740 0.574390 0.516930 -0.605473
O8    O     O_R   0.313260 0.425610 0.483070 -0.607674
Zn1   Zn    Zn3+2 0.471710 0.400660 0.477370 0.956045
Zn2   Zn    Zn3+2 0.528290 0.599340 0.522630 0.954394
C43   C     C_3   0.286847 0.222690 0.057448 -0.799472
H15   H     H_    0.264779 0.214424 0.128616 0.250035
H16   H     H_    0.203366 0.194827 0.024351 0.242189
H17   H     H_    0.352154 0.180915 0.048002 0.265577
C44   C     C_3   0.480611 0.779331 0.940378 -0.816984
H18   H     H_    0.467950 0.788044 0.868744 0.252426
H19   H     H_    0.415939 0.810618 0.971432 0.242614
H20   H     H_    0.573043 0.817710 0.951678 0.267322
C45   C     C_3   0.485735 0.095597 0.668841 -0.791987
H21   H     H_    0.467410 0.051710 0.733724 0.265037
H22   H     H_    0.544934 0.163805 0.677553 0.269189
H23   H     H_    0.398061 0.106041 0.646787 0.220101
C46   C     C_3   0.507298 0.902066 0.332580 -0.796439
H24   H     H_    0.525513 0.945340 0.267396 0.267597
H25   H     H_    0.594872 0.891001 0.354165 0.222956
H26   H     H_    0.446592 0.834235 0.324724 0.266002
S1    S     S_3+6 0.710433 0.022443 0.727073 0.000517
O9    O     O_2   0.654189 0.964652 0.810706 -0.337014
O10   O     O_2   0.830988 0.004757 0.711441 -0.293843
O11   O     O_3   0.730229 0.135840 0.736519 -0.556689
H27   H     H_    0.775099 0.144470 0.790507 0.391132
S2    S     S_3+6 0.286169 0.978155 0.272921 -0.003341
O12   O     O_2   0.166337 0.997738 0.287016 -0.296220
O13   O     O_2   0.345010 0.035385 0.189771 -0.339088
O14   O     O_3   0.264014 0.864537 0.263580 -0.557732
H28   H     H_    0.222630 0.856997 0.208033 0.389649

loop_
_geom_bond_atom_site_label_1
_geom_bond_atom_site_label_2
_ccdc_geom_bond_type
C21   C26   A    
C4    C36   A    
O14   H28   S    
C8    H8    S    
C44   H19   S    
C44   H18   S    
C16   H9    S    
C35   H5    S    
C46   H24   S    
C1    C33   S    
C39   C41   A    
C45   H21   S    
C11   C19   A    
C33   C39   A    
O4    Zn1   S    
C25   C45   S    
C23   C29   S    
C35   C37   A    
C9    C43   S    
C1    O1    A    
C5    C6    A    
C10   C44   S    
C2    O2    A    
C45   H23   S    
C13   N1    A    
C27   S1    S    
C43   H16   S    
C38   H3    S    
O1    Zn1   S    
C40   H1    S    
C22   C25   A    
C19   C27   A    
C24   O8    A    
C2    C34   S    
C40   C42   A    
O8    Zn1   S    
C24   O6    A    
C34   C38   A    
C21   C22   A    
C15   N1    A    
C46   H25   S    
S1    O10   D    
C14   N2    A    
O5    Zn1   S    
C7    H7    S    
C17   C19   A    
C20   C28   A    
S1    O9    D    
C33   C37   A    
C43   H17   S    
C3    C9    A    
S2    O13   D    
C31   C32   S    
C3    C35   A    
O7    Zn2   S    
C12   C20   A    
C45   H22   S    
C16   N2    A    
C15   H10   S    
C6    C7    A    
C16   C18   A    
C12   C14   A    
C26   C46   S    
C44   H20   S    
C34   C40   A    
N1    Zn2   S    
C4    C10   A    
O6    Zn2   S    
C46   H26   S    
C11   H13   S    
S2    O14   S    
C13   H12   S    
S1    O11   S    
C15   C17   A    
C5    C41   A    
C3    C41   A    
C18   C22   A    
C1    O3    A    
C5    C8    A    
C39   H2    S    
C25   C27   A    
C26   C28   A    
C23   O7    A    
C36   C38   A    
C29   C31   T    
C30   C32   T    
C11   C13   A    
O3    Zn2   S    
S2    O12   D    
C4    C42   A    
C23   O5    A    
C12   H14   S    
C36   H6    S    
C18   C20   A    
C43   H15   S    
C24   C30   S    
C7    C9    A    
N2    Zn1   S    
C14   H11   S    
O11   H27   S    
O2    Zn2   S    
C8    C10   A    
C6    C42   A    
C28   S2    S    
C37   H4    S    
C2    O4    A    
C17   C21   A    
