data_mof_unit_41775.cif
_audit_creation_date              2012-12-11T15:06:40-0500
_audit_creation_method            fapswitch 2.2
_symmetry_space_group_name_H-M    P1
_symmetry_Int_Tables_number       1
_space_group_crystal_system       triclinic
_cell_length_a                    7.230755
_cell_length_b                    15.399144
_cell_length_c                    22.268111
_cell_angle_alpha                 90.000485
_cell_angle_beta                  89.99426
_cell_angle_gamma                 89.990929
_cell_volume                      2479.49705362

loop_
_atom_site_label
_atom_site_type_symbol
_atom_type_description
_atom_site_fract_x
_atom_site_fract_y
_atom_site_fract_z
_atom_type_partial_charge
O1    O     O_R   0.390810 0.844810 0.447340 -0.538879
O2    O     O_R   0.109190 0.155190 0.947340 -0.538868
O3    O     O_R   0.890810 0.655190 0.552660 -0.548609
O4    O     O_R   0.609190 0.344810 0.052660 -0.548616
O5    O     O_R   0.720550 0.655820 0.440420 -0.534996
O6    O     O_R   0.779450 0.344180 0.940420 -0.534996
O7    O     O_R   0.220550 0.844180 0.559580 -0.525970
O8    O     O_R   0.279450 0.155820 0.059580 -0.526010
C1    C     C_R   0.551983 0.628019 0.425670 0.729630
C2    C     C_R   0.948031 0.371979 0.925670 0.729633
C3    C     C_R   0.052188 0.871789 0.574317 0.743841
C4    C     C_R   0.447797 0.128208 0.074314 0.743903
O9    O     O_R   0.720530 0.844130 0.440420 -0.537940
O10   O     O_R   0.779470 0.155870 0.940420 -0.537936
O11   O     O_R   0.220530 0.655870 0.559580 -0.529972
O12   O     O_R   0.279470 0.344130 0.059580 -0.529995
O13   O     O_R   0.890830 0.844810 0.552660 -0.546492
O14   O     O_R   0.609170 0.155190 0.052660 -0.546479
O15   O     O_R   0.390830 0.655190 0.447340 -0.518084
O16   O     O_R   0.109170 0.344810 0.947340 -0.518094
C5    C     C_R   0.553077 0.873193 0.426648 0.668740
C6    C     C_R   0.946935 0.126796 0.926658 0.668754
C7    C     C_R   0.052850 0.627375 0.573554 0.697529
C8    C     C_R   0.447138 0.372625 0.073557 0.697580
O17   O     O_3   0.557310 0.749980 0.536820 -0.380186
O18   O     O_3   0.942690 0.250020 0.036820 -0.380218
O19   O     O_3   0.057310 0.750020 0.463180 -0.361780
O20   O     O_3   0.442690 0.249980 0.963180 -0.361781
V1    V     V_3+5 0.832160 0.749980 0.493170 1.484044
V2    V     V_3+5 0.667840 0.250020 0.993170 1.484006
V3    V     V_3+5 0.332160 0.750020 0.506830 1.514490
V4    V     V_3+5 0.167840 0.249980 0.006830 1.514419
C9    C     C_R   0.882278 0.595019 0.861690 0.093681
C10   C     C_R   0.618114 0.405024 0.361656 0.093565
C11   C     C_R   0.465822 0.900567 0.135243 0.098509
C12   C     C_R   0.033685 0.099408 0.635267 0.098448
H1    H     H_    0.835683 0.532451 0.946662 0.118943
H2    H     H_    0.664690 0.467600 0.446623 0.118938
H3    H     H_    0.475283 0.961388 0.048088 0.116012
H4    H     H_    0.023858 0.038601 0.548115 0.116032
H5    H     H_    0.784719 0.701313 0.769733 0.130192
H6    H     H_    0.715729 0.298780 0.269672 0.130238
H7    H     H_    0.358726 0.787297 0.224827 0.139134
H8    H     H_    0.140866 0.212726 0.724810 0.139144
C13   C     C_R   0.952904 0.444615 0.882385 -0.081432
C14   C     C_R   0.547162 0.555386 0.382382 -0.081467
C15   C     C_R   0.456460 0.056486 0.118022 -0.087283
C16   C     C_R   0.043473 0.943501 0.618033 -0.087250
C17   C     C_R   0.136579 0.476843 0.595130 -0.160345
C18   C     C_R   0.363127 0.523115 0.095168 -0.160357
C19   C     C_R   0.648262 0.022073 0.402945 -0.158366
C20   C     C_R   0.851937 0.977877 0.902985 -0.158383
C21   C     C_R   0.154796 0.406335 0.633217 -0.142210
C22   C     C_R   0.344807 0.593607 0.133266 -0.142215
C23   C     C_R   0.688258 0.087955 0.362390 -0.147221
C24   C     C_R   0.812064 0.911964 0.862444 -0.147245
C25   C     C_R   0.093571 0.411515 0.692412 -0.108270
C26   C     C_R   0.406171 0.588455 0.192441 -0.108245
C27   C     C_R   0.625486 0.083363 0.303314 -0.105271
C28   C     C_R   0.874845 0.916555 0.803364 -0.105319
C29   C     C_R   0.029717 0.490215 0.716994 0.108683
C30   C     C_R   0.470240 0.509782 0.217002 0.108681
C31   C     C_R   0.525548 0.010560 0.282821 0.119695
C32   C     C_R   0.974634 0.989393 0.782850 0.119706
C33   C     C_R   0.995385 0.559894 0.676164 0.054187
C34   C     C_R   0.504666 0.440124 0.176158 0.054196
C35   C     C_R   0.498328 0.939937 0.323397 0.049641
C36   C     C_R   0.001725 0.060039 0.823415 0.049630
C37   C     C_R   0.992136 0.500986 0.780006 0.014324
C38   C     C_R   0.507929 0.499019 0.280005 0.014292
C39   C     C_R   0.478163 0.000646 0.220853 0.017227
C40   C     C_R   0.021932 0.999323 0.720873 0.017222
C41   C     C_R   0.910874 0.580536 0.799559 0.078478
C42   C     C_R   0.589388 0.419502 0.299533 0.078513
C43   C     C_R   0.453116 0.915453 0.198184 0.063277
C44   C     C_R   0.046711 0.084527 0.698198 0.063310
C45   C     C_R   0.861378 0.643895 0.757150 -0.124587
C46   C     C_R   0.638951 0.356170 0.257109 -0.124548
C47   C     C_R   0.412312 0.848795 0.239285 -0.166680
C48   C     C_R   0.087445 0.151206 0.739284 -0.166588
C49   C     C_R   0.904567 0.634181 0.696892 -0.132896
C50   C     C_R   0.595668 0.365877 0.196861 -0.132934
C51   C     C_R   0.429790 0.861523 0.300839 -0.167743
C52   C     C_R   0.070091 0.138477 0.800841 -0.167697
C53   C     C_R   0.037176 0.438172 0.825268 0.159946
C54   C     C_R   0.462810 0.561804 0.325283 0.159946
C55   C     C_R   0.454883 0.071358 0.180522 0.162986
C56   C     C_R   0.045297 0.928625 0.680533 0.162992
C57   C     C_R   0.877901 0.523710 0.900296 -0.212540
C58   C     C_R   0.622384 0.476328 0.400267 -0.212456
C59   C     C_R   0.469069 0.971893 0.096200 -0.239759
C60   C     C_R   0.030431 0.028086 0.596222 -0.239868
C61   C     C_R   0.052102 0.553083 0.615204 -0.079738
C62   C     C_R   0.447833 0.446916 0.115211 -0.079768
C63   C     C_R   0.553654 0.947435 0.384452 -0.077443
C64   C     C_R   0.946418 0.052541 0.884473 -0.077417
H9    H     H_    0.186930 0.471618 0.549406 0.110009
H10   H     H_    0.312677 0.528322 0.049458 0.110026
H11   H     H_    0.700569 0.027230 0.448435 0.105491
H12   H     H_    0.799635 0.972719 0.948479 0.105495
H13   H     H_    0.092111 0.352737 0.717830 0.145432
H14   H     H_    0.407557 0.647237 0.217858 0.145449
H15   H     H_    0.669202 0.133905 0.272815 0.149618
H16   H     H_    0.831226 0.865985 0.772874 0.149564
H17   H     H_    0.216928 0.347274 0.616495 0.123618
H18   H     H_    0.282507 0.652639 0.116567 0.123759
H19   H     H_    0.773407 0.141819 0.376695 0.126238
H20   H     H_    0.726990 0.858079 0.876762 0.126225
H21   H     H_    0.865243 0.685796 0.666505 0.149922
H22   H     H_    0.635052 0.314281 0.166463 0.149989
H23   H     H_    0.400329 0.807632 0.330360 0.163823
H24   H     H_    0.099463 0.192386 0.830353 0.163825
C65   C     C_3   0.891348 0.684546 0.889785 -0.369705
C66   C     C_3   0.072254 0.694104 0.925759 -0.284628
C67   C     C_3   0.104901 0.787346 0.946339 -0.769138
H25   H     H_    0.131638 0.829704 0.906953 0.257251
H26   H     H_    0.983610 0.812245 0.971565 0.229424
H27   H     H_    0.228157 0.789691 0.975978 0.208605
H28   H     H_    0.069283 0.650989 0.965745 0.180230
H29   H     H_    0.191507 0.674093 0.897363 0.216664
H30   H     H_    0.892050 0.735817 0.855303 0.191542
H31   H     H_    0.769527 0.694995 0.919339 0.169033
C68   C     C_3   0.609222 0.315492 0.389750 -0.369418
C69   C     C_3   0.428326 0.305868 0.425729 -0.284381
C70   C     C_3   0.395802 0.212614 0.446301 -0.769154
H32   H     H_    0.368847 0.170285 0.406918 0.257244
H33   H     H_    0.517244 0.187703 0.471433 0.229524
H34   H     H_    0.272724 0.210243 0.476026 0.208445
H35   H     H_    0.431245 0.348981 0.465716 0.180229
H36   H     H_    0.309045 0.325852 0.397345 0.216587
H37   H     H_    0.608659 0.264212 0.355272 0.191459
H38   H     H_    0.731035 0.305101 0.419311 0.168902
C71   C     C_3   0.489038 0.810935 0.108033 -0.366570
C72   C     C_3   0.675725 0.800909 0.075859 -0.297362
C73   C     C_3   0.709525 0.706443 0.058037 -0.777463
H39   H     H_    0.709490 0.663982 0.098355 0.245233
H40   H     H_    0.601202 0.684062 0.026226 0.227370
H41   H     H_    0.846510 0.700508 0.036285 0.222541
H42   H     H_    0.679111 0.841727 0.034731 0.182921
H43   H     H_    0.789337 0.822138 0.106156 0.208488
H44   H     H_    0.485335 0.760259 0.142703 0.175628
H45   H     H_    0.374117 0.798519 0.076075 0.165265
C74   C     C_3   0.009824 0.189008 0.608077 -0.366662
C75   C     C_3   0.822405 0.198923 0.576371 -0.297052
C76   C     C_3   0.788014 0.293342 0.558567 -0.776892
H46   H     H_    0.789212 0.335902 0.598831 0.245153
H47   H     H_    0.895382 0.315680 0.526394 0.227209
H48   H     H_    0.650382 0.299210 0.537245 0.222505
H49   H     H_    0.818139 0.158014 0.535296 0.182865
H50   H     H_    0.709548 0.177705 0.606975 0.208583
H51   H     H_    0.014301 0.239728 0.642699 0.175534
H52   H     H_    0.123993 0.201426 0.575828 0.165203
Br1   Br    Br    0.254825 0.365381 0.820177 -0.607121
Br2   Br    Br    0.245057 0.634534 0.320236 -0.607097
Br3   Br    Br    0.362522 0.181125 0.209211 -0.631240
Br4   Br    Br    0.137943 0.818901 0.709195 -0.631136

loop_
_geom_bond_atom_site_label_1
_geom_bond_atom_site_label_2
_ccdc_geom_bond_type
O17   V3    S    
C73   H41   S    
C47   C51   A    
C26   C30   A    
C10   C68   S    
C23   C27   A    
C68   H38   S    
O19   V1    S    
O13   V1    S    
O1    C5    A    
O3    C7    A    
C21   H17   S    
C48   C52   A    
O15   V3    S    
C11   C71   S    
C66   C67   S    
C68   C69   S    
O7    C3    A    
C11   C43   A    
C71   H45   S    
C52   H24   S    
C32   C36   A    
O9    V1    S    
C12   C74   S    
C8    C62   S    
C72   H43   S    
O4    C8    A    
H7    C47   S    
C74   C75   S    
O1    V3    S    
C30   C38   A    
O2    V4    S    
O3    V1    S    
C24   H20   S    
C75   H50   S    
C12   C44   A    
C40   C56   A    
C1    O15   A    
C65   H31   S    
C2    O16   A    
C67   H26   S    
C19   C63   A    
C38   C42   A    
C70   H34   S    
C16   C56   A    
C37   C41   A    
O14   V2    S    
C45   C49   A    
C13   C57   A    
C19   C23   A    
C66   H28   S    
C40   C44   A    
C34   C62   A    
C12   C60   A    
O11   C7    A    
C1    C14   S    
O12   C8    A    
C39   C43   A    
C35   C63   A    
C3    C16   S    
C15   C59   A    
O10   V2    S    
C4    C15   S    
H3    C59   S    
C76   H47   S    
O16   V4    S    
C76   H46   S    
O5    V1    S    
C19   H11   S    
C31   C35   A    
C18   H10   S    
O7    V3    S    
C30   C34   A    
C69   H36   S    
O8    V4    S    
C73   H39   S    
C72   H42   S    
C21   C25   A    
O18   V4    S    
C18   C62   A    
C53   Br1   S    
C5    C63   S    
C20   H12   S    
C7    C61   S    
C23   H19   S    
C36   C52   A    
C13   C53   A    
C10   C58   A    
O2    C6    A    
C75   H49   S    
C9    C57   A    
C34   C50   A    
C46   C50   A    
C33   C49   A    
H8    C48   S    
O8    C4    A    
C67   H27   S    
C2    C13   S    
O9    C5    A    
C36   C64   A    
C35   C51   A    
H4    C60   S    
C22   H18   S    
C25   C29   A    
C10   C42   A    
C39   C55   A    
C9    C41   A    
C74   H52   S    
O6    V2    S    
C31   C39   A    
H6    C46   S    
C16   C60   A    
C70   H32   S    
C51   H23   S    
C27   C31   A    
C38   C54   A    
C56   Br4   S    
C76   H48   S    
C37   C53   A    
C65   C66   S    
C22   C26   A    
C29   C37   A    
C73   H40   S    
C3    O13   A    
C68   H37   S    
C6    C64   S    
C44   C48   A    
O5    C1    A    
C75   C76   S    
O6    C2    A    
O11   V3    S    
C72   C73   S    
C14   C58   A    
O12   V4    S    
C25   H13   S    
H2    C58   S    
C9    C65   S    
H1    C57   S    
C28   C32   A    
C27   H15   S    
O10   C6    A    
O20   V2    S    
C54   Br2   S    
C18   C22   A    
C49   H21   S    
H5    C45   S    
C67   H25   S    
C71   C72   S    
C17   C21   A    
C26   H14   S    
C74   H51   S    
C33   C61   A    
C69   H35   S    
C20   C64   A    
C55   Br3   S    
C32   C40   A    
C29   C33   A    
O4    V2    S    
C17   H9    S    
C24   C28   A    
C65   H30   S    
C42   C46   A    
C4    O14   A    
C70   H33   S    
C41   C45   A    
C50   H22   S    
C71   H44   S    
C17   C61   A    
C28   H16   S    
C43   C47   A    
C66   H29   S    
C20   C24   A    
C15   C55   A    
C69   C70   S    
C14   C54   A    
C11   C59   A    
