data_mof_unit_16127.cif
_audit_creation_date              2012-10-26T19:42:15-0400
_audit_creation_method            fapswitch 2.2
_symmetry_space_group_name_H-M    P1
_symmetry_Int_Tables_number       1
_space_group_crystal_system       triclinic
_cell_length_a                    9.603561
_cell_length_b                    10.871359
_cell_length_c                    17.221854
_cell_angle_alpha                 97.208133
_cell_angle_beta                  85.384687
_cell_angle_gamma                 89.490771
_cell_volume                      1777.70446391

loop_
_atom_site_label
_atom_site_type_symbol
_atom_type_description
_atom_site_fract_x
_atom_site_fract_y
_atom_site_fract_z
_atom_type_partial_charge
C1    C     C_R   0.499730 0.738110 0.503328 0.627912
C2    C     C_R   0.528947 0.519937 0.264208 0.008130
C3    C     C_R   0.377321 0.898848 0.647657 0.301737
C4    C     C_R   0.481762 0.487840 0.648905 0.650751
C5    C     C_R   0.275303 0.963845 0.700779 0.132689
C6    C     C_R   0.224819 0.076854 0.684497 -0.046527
C7    C     C_R   0.284026 0.134243 0.621996 0.225767
C8    C     C_R   0.396381 0.073924 0.570570 -0.043108
C9    C     C_R   0.421057 0.945939 0.576596 -0.044849
C10   C     C_R   0.502708 0.873725 0.514627 0.000620
C11   C     C_R   0.602422 0.932946 0.469539 0.226513
C12   C     C_R   0.361214 0.494507 0.785897 0.228154
C13   C     C_R   0.615746 0.059393 0.486728 0.218557
C14   C     C_R   0.498759 0.132128 0.521486 -0.011861
C15   C     C_R   0.884960 0.316851 0.386556 0.191675
C16   C     C_R   0.498653 0.264642 0.509503 0.550671
C17   C     C_R   0.977285 0.231406 0.338890 0.156157
C18   C     C_R   0.118847 0.237745 0.344182 0.080823
C19   C     C_R   0.170371 0.328293 0.396413 -0.032823
C20   C     C_R   0.085495 0.413712 0.448204 0.112701
C21   C     C_R   0.935613 0.411770 0.446057 0.161049
C22   C     C_R   0.916508 0.582506 0.549198 0.245058
C23   C     C_R   0.418127 0.532120 0.142020 0.057699
C24   C     C_R   0.064731 0.583625 0.548256 0.390398
C25   C     C_R   0.518506 0.506501 0.349766 0.570037
C26   C     C_R   0.475493 0.456780 0.730564 0.017752
C27   C     C_R   0.587692 0.387695 0.754305 0.182854
C28   C     C_R   0.593712 0.372313 0.833636 0.113385
C29   C     C_R   0.486313 0.421012 0.888643 0.065877
C30   C     C_R   0.367674 0.477136 0.864989 0.098382
C31   C     C_R   0.406500 0.529537 0.223490 0.199427
C32   C     C_R   0.661912 0.525650 0.221950 0.053306
C33   C     C_R   0.671639 0.525797 0.140050 0.234096
C34   C     C_R   0.549995 0.525768 0.100258 0.038434
C35   C     C_2   0.502272 0.421674 0.972498 -0.003661
C36   C     C_2   0.558188 0.518859 0.014223 0.323199
Cl1   Cl    Cl    0.720071 0.313872 0.686045 -0.498889
Cl2   Cl    Cl    0.209207 0.565634 0.759741 -0.487439
Cl3   Cl    Cl    0.837981 0.521564 0.087250 -0.526283
Cl4   Cl    Cl    0.721777 0.851325 0.396856 -0.512403
Cl5   Cl    Cl    0.475756 0.779740 0.679699 -0.544516
Cl6   Cl    Cl    0.195018 0.272747 0.613288 -0.494126
Cl7   Cl    Cl    0.789183 0.110181 0.494069 -0.464690
Cl8   Cl    Cl    0.234936 0.544016 0.270914 -0.600734
Cl9   Cl    Cl    0.140119 0.699955 0.609852 -0.522920
Cl10  Cl    Cl    0.625671 0.646176 0.969668 -0.452840
Cu1   Cu    Cu3+1 0.359340 0.500010 0.500010 1.144302
Cu2   Cu    Cu3+1 0.640660 0.499990 0.499990 1.148241
H1    H     H_    0.141347 0.123595 0.723723 0.187964
H2    H     H_    0.967368 0.149494 0.226850 0.267220
H3    H     H_    0.954316 0.050771 0.295950 0.310530
H4    H     H_    0.271524 0.105702 0.330093 0.248847
H5    H     H_    0.280205 0.203661 0.260995 0.244277
H6    H     H_    0.835863 0.617634 0.252582 0.314694
H7    H     H_    0.855078 0.461070 0.238830 0.264829
H8    H     H_    0.241919 0.615316 0.923125 0.299388
H9    H     H_    0.164279 0.475543 0.906894 0.290270
H10   H     H_    0.231159 0.467285 0.109063 0.286355
H11   H     H_    0.241698 0.624668 0.123026 0.308907
H12   H     H_    0.280319 0.327848 0.392277 0.184322
H13   H     H_    0.716449 0.218853 0.830999 0.280050
H14   H     H_    0.801603 0.355327 0.843857 0.302461
H15   H     H_    0.458556 0.345709 0.001384 0.112235
H16   H     H_    0.113729 0.905496 0.768226 0.270919
H17   H     H_    0.263074 0.832375 0.778093 0.330781
H18   H     H_    0.854050 0.659898 0.659686 0.281094
H19   H     H_    0.858562 0.759501 0.590996 0.271361
H20   H     H_    0.712139 0.211228 0.372598 0.271211
H21   H     H_    0.736735 0.314031 0.309964 0.226834
N1    N     N_R   0.852190 0.498790 0.499250 -0.208733
N2    N     N_3   0.295516 0.542273 0.100429 -0.565392
N3    N     N_3   0.710253 0.309639 0.859627 -0.562270
N4    N     N_R   0.148060 0.498710 0.499220 -0.218710
N5    N     N_3   0.220780 0.918865 0.772050 -0.556124
N6    N     N_3   0.832048 0.670029 0.602327 -0.493427
N7    N     N_3   0.743314 0.302157 0.368896 -0.517250
N8    N     N_3   0.923564 0.137947 0.282998 -0.594351
N9    N     N_3   0.212036 0.152514 0.294363 -0.608441
N10   N     N_3   0.787312 0.534591 0.262287 -0.542113
N11   N     N_3   0.255893 0.519753 0.922753 -0.555382
O1    O     O_R   0.381190 0.680360 0.500010 -0.446092
O2    O     O_R   0.618760 0.680340 0.500000 -0.434494
O3    O     O_R   0.367440 0.500030 0.613600 -0.378404
O4    O     O_R   0.605010 0.500010 0.613590 -0.434289
O5    O     O_R   0.381240 0.319660 0.500000 -0.517042
O6    O     O_R   0.618810 0.319640 0.499990 -0.436140
O7    O     O_R   0.394990 0.499990 0.386410 -0.498966
O8    O     O_R   0.632560 0.499970 0.386400 -0.455615

loop_
_geom_bond_atom_site_label_1
_geom_bond_atom_site_label_2
_ccdc_geom_bond_type
C19   C20   A    
C7    C8    A    
C26   C27   A    
C33   Cl3   S    
C24   Cl9   S    
Cu1   O5    S    
C28   C29   A    
C5    C6    A    
H10   N2    S    
C1    O1    A    
C25   O7    A    
H21   N7    S    
C2    C32   A    
C18   C19   A    
C7    Cl6   S    
C5    N5    S    
C35   C36   D    
C8    C9    A    
Cu2   O8    S    
C36   Cl10  S    
C14   C16   S    
Cu1   O3    S    
C9    C10   A    
C30   N11   S    
C15   N7    S    
C13   C14   A    
C16   O6    A    
H9    N11   S    
C28   N3    S    
C22   N6    S    
H4    N9    S    
C33   C34   A    
C31   Cl8   S    
C23   N2    S    
Cu1   N4    S    
Cu2   O6    S    
C1    O2    A    
C25   O8    A    
H17   N5    S    
Cu2   O4    S    
C12   C26   A    
C2    C31   A    
Cu1   O7    S    
H3    N8    S    
C29   C30   A    
C3    C9    A    
H7    N10   S    
Cu1   Cu2   S    
C4    O4    A    
C18   N9    S    
C23   C34   A    
C17   N8    S    
C17   C18   A    
H14   N3    S    
H13   N3    S    
C16   O5    A    
C22   C24   A    
H19   N6    S    
H2    N8    S    
C13   Cl7   S    
H6    N10   S    
C15   C17   A    
C3    Cl5   S    
C8    C14   A    
C12   C30   A    
C1    C10   S    
Cu2   N1    S    
C3    C5    A    
C4    C26   S    
C6    C7    A    
C19   H12   S    
H20   N7    S    
C29   C35   S    
H8    N11   S    
C21   N1    A    
C32   C33   A    
H5    N9    S    
C32   N10   S    
C11   C13   A    
C4    O3    A    
C27   Cl1   S    
H18   N6    S    
Cu2   O2    S    
C20   N4    A    
C2    C25   S    
C34   C36   S    
Cu1   O1    S    
C6    H1    S    
C12   Cl2   S    
C11   Cl4   S    
C24   N4    A    
C10   C11   A    
C15   C21   A    
C20   C21   A    
H11   N2    S    
C27   C28   A    
H16   N5    S    
C35   H15   S    
C22   N1    A    
C23   C31   A    
