data_mof_unit_17544.cif
_audit_creation_date              2012-12-10T20:28:43-0500
_audit_creation_method            fapswitch 2.2
_symmetry_space_group_name_H-M    P1
_symmetry_Int_Tables_number       1
_space_group_crystal_system       triclinic
_cell_length_a                    10.724681
_cell_length_b                    10.710659
_cell_length_c                    9.871627
_cell_angle_alpha                 89.572512
_cell_angle_beta                  90.350898
_cell_angle_gamma                 91.025077
_cell_volume                      1133.70462604

loop_
_atom_site_label
_atom_site_type_symbol
_atom_type_description
_atom_site_fract_x
_atom_site_fract_y
_atom_site_fract_z
_atom_type_partial_charge
C1    C     C_R   0.504927 0.259551 0.500771 0.881742
C2    C     C_R   0.065329 0.547627 0.625229 0.111828
C3    C     C_R   0.129151 0.534665 0.501436 -0.124401
C4    C     C_R   0.063790 0.519025 0.380080 -0.210084
C5    C     C_R   0.936811 0.505167 0.382508 -0.222080
C6    C     C_R   0.874936 0.494241 0.506309 -0.105002
C7    C     C_R   0.530170 0.061177 0.624734 0.115056
C8    C     C_R   0.528250 0.128018 0.502893 -0.113330
C9    C     C_R   0.556174 0.065900 0.382570 -0.200161
C10   C     C_R   0.556274 0.936537 0.380594 -0.224794
C11   C     C_R   0.530780 0.870744 0.500537 -0.100614
C12   C     C_R   0.261309 0.514618 0.500052 0.880089
C13   C     C_R   0.531675 0.933506 0.623145 0.137346
C14   C     C_3   0.445254 0.919468 0.740005 -0.458652
C15   C     C_3   0.442531 0.060199 0.741703 -0.505180
C16   C     C_R   0.399650 0.454986 0.070138 0.035587
C17   C     C_R   0.594507 0.555378 0.072191 -0.098563
C18   C     C_R   0.594995 0.554491 0.928198 -0.120188
C19   C     C_R   0.396033 0.461781 0.927769 0.103695
C20   C     C_3   0.330790 0.338853 0.913396 0.238281
C21   C     C_3   0.346385 0.324012 0.066531 0.284396
C22   C     C_R   0.506343 0.739819 0.499629 0.870542
C23   C     C_R   0.740578 0.494070 0.501520 0.866916
C24   C     C_R   0.120622 0.598865 0.743520 -0.189879
C25   C     C_R   0.062469 0.584644 0.868973 -0.146796
C26   C     C_R   0.953038 0.513063 0.879071 0.606988
C27   C     C_R   0.892042 0.474708 0.760044 -0.314167
C28   C     C_R   0.941936 0.504431 0.630800 0.033154
H1    H     H_    0.110563 0.515354 0.283191 0.179237
H2    H     H_    0.491798 0.878413 0.830467 0.206575
H3    H     H_    0.349862 0.096876 0.713970 0.194147
H4    H     H_    0.487053 0.098316 0.834291 0.211879
H5    H     H_    0.671927 0.597915 0.126543 0.171022
H6    H     H_    0.672617 0.596551 0.874261 0.169491
H7    H     H_    0.383627 0.276007 0.847958 0.118485
H8    H     H_    0.255850 0.317203 0.120621 0.115143
H9    H     H_    0.208391 0.650178 0.739865 0.159283
H10   H     H_    0.106819 0.621910 0.959215 0.140193
H11   H     H_    0.808464 0.418393 0.771853 0.178550
H12   H     H_    0.887410 0.501333 0.286924 0.206426
H13   H     H_    0.569724 0.115952 0.289344 0.202715
H14   H     H_    0.567265 0.889243 0.284885 0.172372
H15   H     H_    0.354036 0.875451 0.711976 0.195069
N1    N     N_R   0.499160 0.499140 0.142800 -0.107556
N2    N     N_R   0.499160 0.499180 0.857150 -0.143078
O1    O     O_R   0.500020 0.316790 0.614690 -0.635152
O2    O     O_R   0.500000 0.316760 0.385350 -0.584094
O3    O     O_R   0.316770 0.500020 0.614690 -0.596045
O4    O     O_R   0.316760 0.499980 0.385350 -0.622803
O5    O     O_R   0.500000 0.683240 0.614650 -0.624987
O6    O     O_R   0.499980 0.683210 0.385310 -0.622719
O7    O     O_R   0.683240 0.500020 0.614650 -0.635031
O8    O     O_R   0.683230 0.499980 0.385310 -0.634410
Zn1   Zn    Zn3+2 0.500010 0.500020 0.653130 0.936022
Zn2   Zn    Zn3+2 0.499990 0.499980 0.346870 0.956288
O9    O     O_3   0.204938 0.356059 0.876347 -0.612721
C29   C     C_3   0.157461 0.249023 0.810552 -0.346320
H16   H     H_    0.176837 0.162139 0.869094 0.162275
H17   H     H_    0.195186 0.244287 0.706180 0.181607
H18   H     H_    0.054867 0.256560 0.801199 0.186478
O10   O     O_3   0.426530 0.224808 0.106313 -0.598047
C30   C     C_3   0.551936 0.236229 0.061432 -0.334993
H19   H     H_    0.609270 0.288602 0.136412 0.203159
H20   H     H_    0.563783 0.278955 0.959937 0.142037
H21   H     H_    0.591073 0.141347 0.054783 0.160417
O11   O     O_3   0.900360 0.490867 0.004654 -0.646609
C31   C     C_3   0.909508 0.362666 0.036872 -0.372880
H22   H     H_    0.008405 0.337561 0.054846 0.207564
H23   H     H_    0.866605 0.301394 0.958299 0.149509
H24   H     H_    0.857589 0.343182 0.131616 0.179774

loop_
_geom_bond_atom_site_label_1
_geom_bond_atom_site_label_2
_ccdc_geom_bond_type
C17   C18   A    
C4    H1    S    
C30   H20   S    
C19   N2    A    
C12   O4    A    
C16   C21   S    
C2    C3    A    
C25   H10   S    
C10   H14   S    
C1    C8    S    
C11   C13   A    
C9    C10   A    
C16   N1    A    
C11   C22   S    
C9    H13   S    
C19   C20   S    
C22   O5    A    
C12   O3    A    
C31   H24   S    
O1    Zn1   S    
C7    C15   S    
C24   H9    S    
C29   H16   S    
C17   N1    A    
C7    C8    A    
C21   H8    S    
O5    Zn1   S    
C13   C14   S    
C24   C25   A    
O3    Zn1   S    
C4    C5    A    
C18   H6    S    
N1    Zn2   S    
C23   O7    A    
C30   H19   S    
C17   H5    S    
C14   H2    S    
C16   C19   A    
C5    C6    A    
C6    C23   S    
C1    O2    A    
C25   C26   A    
O7    Zn1   S    
N2    Zn1   S    
C23   O8    A    
O6    Zn2   S    
C20   O9    S    
O8    Zn2   S    
C26   C27   A    
O10   C30   S    
C1    O1    A    
C29   H17   S    
C2    C24   A    
C10   C11   A    
C31   H22   S    
C26   O11   S    
C18   N2    A    
C7    C13   A    
O11   C31   S    
O9    C29   S    
O2    Zn2   S    
C5    H12   S    
C27   C28   A    
C14   C15   S    
C14   H15   S    
C29   H18   S    
C2    C28   A    
C3    C12   S    
C30   H21   S    
C20   C21   S    
O4    Zn2   S    
C20   H7    S    
C21   O10   S    
C15   H3    S    
C22   O6    A    
C6    C28   A    
C3    C4    A    
C27   H11   S    
C8    C9    A    
C31   H23   S    
C15   H4    S    
