data_mof_unit_32198.cif
_audit_creation_date              2012-12-11T14:00:00-0500
_audit_creation_method            fapswitch 2.2
_symmetry_space_group_name_H-M    P1
_symmetry_Int_Tables_number       1
_space_group_crystal_system       triclinic
_cell_length_a                    11.237505
_cell_length_b                    11.245247
_cell_length_c                    18.617917
_cell_angle_alpha                 89.985192
_cell_angle_beta                  89.984678
_cell_angle_gamma                 119.845415
_cell_volume                      2040.68021733

loop_
_atom_site_label
_atom_site_type_symbol
_atom_type_description
_atom_site_fract_x
_atom_site_fract_y
_atom_site_fract_z
_atom_type_partial_charge
C1    C     C_R   0.541748 0.479759 0.852205 0.603988
C2    C     C_R   0.482311 0.540563 0.349642 0.604831
C3    C     C_R   0.064651 0.520278 0.352501 0.597312
C4    C     C_R   0.415387 0.863430 0.358914 0.622294
C5    C     C_2   0.019711 0.517664 0.585176 -0.041431
C6    C     C_2   0.507260 0.494491 0.575643 -0.061295
C7    C     C_2   0.490329 0.979381 0.583882 -0.103338
C8    C     C_2   0.431991 0.875070 0.436930 -0.050761
C9    C     C_2   0.504039 0.495291 0.418440 -0.050542
C10   C     C_2   0.030384 0.506857 0.427960 -0.004817
C11   C     C_2   0.121670 0.505180 0.474663 0.217558
C12   C     C_R   0.520497 0.061926 0.852399 0.534010
C13   C     C_2   0.613283 0.581376 0.457762 0.187287
C14   C     C_2   0.333937 0.867156 0.481655 0.259964
C15   C     C_2   0.361168 0.893904 0.560103 0.202934
C16   C     C_2   0.597101 0.600432 0.535258 0.186357
C17   C     C_2   0.079118 0.459476 0.548910 0.188743
C18   C     C_2   0.013601 0.508488 0.919500 0.277516
C19   C     C_2   0.489845 0.508038 0.917516 0.285854
C20   C     C_2   0.497744 0.990248 0.920884 0.252449
C21   C     C_2   0.509884 0.018071 0.082462 0.284645
C22   C     C_2   0.502655 0.492917 0.079089 0.252979
C23   C     C_R   0.938522 0.458527 0.852108 0.535030
C24   C     C_2   0.986824 0.495716 0.080367 0.278971
C25   C     C_2   0.019932 0.604065 0.037498 -0.033933
C26   C     C_2   0.392996 0.419662 0.036620 -0.079980
C27   C     C_2   0.591093 0.991986 0.039429 -0.107184
C28   C     C_2   0.607416 0.026771 0.963455 -0.079100
C29   C     C_2   0.409291 0.401087 0.960663 -0.106178
C30   C     C_2   0.981366 0.584812 0.962155 -0.034549
C31   C     C_R   0.479603 0.541668 0.147579 0.534884
C32   C     C_R   0.061580 0.520283 0.147850 0.533041
C33   C     C_R   0.458237 0.938101 0.147797 0.609650
C34   C     C_R   0.542750 0.480457 0.648473 0.589373
C35   C     C_R   0.518118 0.058785 0.649800 0.545625
C36   C     C_R   0.939493 0.459038 0.649510 0.579070
Cr1   Cr    Cr6+3 0.464030 0.233680 0.750360 1.048839
Cr2   Cr    Cr6+3 0.766320 0.230350 0.750360 1.072813
Cr3   Cr    Cr6+3 0.769650 0.535970 0.750360 1.077088
Cr4   Cr    Cr6+3 0.233680 0.464030 0.249640 1.059864
Cr5   Cr    Cr6+3 0.230350 0.766320 0.249640 1.085972
Cr6   Cr    Cr6+3 0.535970 0.769650 0.249640 1.055019
H1    H     H_    0.928184 0.483443 0.444373 0.030176
H2    H     H_    0.711571 0.091514 0.944152 0.142797
H3    H     H_    0.365668 0.295890 0.942223 0.132138
H4    H     H_    0.916816 0.625318 0.943695 0.127894
H5    H     H_    0.306548 0.544895 0.494742 0.310414
H6    H     H_    0.810655 0.702013 0.460294 0.336658
H7    H     H_    0.151113 0.844617 0.491754 0.361118
H8    H     H_    0.279173 0.838237 0.655212 0.338048
H9    H     H_    0.719657 0.797431 0.529854 0.336707
H10   H     H_    0.134919 0.322377 0.542070 0.333798
H11   H     H_    0.883612 0.298833 0.095689 0.327919
H12   H     H_    0.410831 0.415277 0.442497 0.066538
H13   H     H_    0.699907 0.585431 0.092938 0.333292
H14   H     H_    0.518939 0.168862 0.026276 0.338997
H15   H     H_    0.300591 0.885476 0.906873 0.331786
H16   H     H_    0.479773 0.649353 0.973573 0.339141
H17   H     H_    0.115759 0.413103 0.904469 0.329384
H18   H     H_    0.526139 0.883815 0.457751 0.050136
H19   H     H_    0.578770 0.013330 0.549198 0.069309
H20   H     H_    0.430377 0.398865 0.552143 0.050226
H21   H     H_    0.017316 0.605466 0.562142 0.103693
H22   H     H_    0.085040 0.708757 0.055823 0.127662
H23   H     H_    0.288789 0.380155 0.055991 0.143377
H24   H     H_    0.635336 0.930786 0.057982 0.131433
O1    O     O_R   0.434100 0.092480 0.829780 -0.519559
O2    O     O_R   0.362730 0.477510 0.175360 -0.519113
O3    O     O_R   0.114780 0.637270 0.175360 -0.531736
O4    O     O_R   0.522490 0.885220 0.175360 -0.541586
O5    O     O_R   0.432250 0.092620 0.670380 -0.484094
O6    O     O_R   0.907380 0.339630 0.670380 -0.444291
O7    O     O_R   0.660370 0.567750 0.670380 -0.441333
O8    O     O_R   0.092620 0.432250 0.329620 -0.484096
O9    O     O_R   0.339630 0.907380 0.329620 -0.454366
O10   O     O_R   0.567750 0.660370 0.329620 -0.453913
O11   O     O_R   0.475790 0.362860 0.676880 -0.508760
O12   O     O_R   0.907520 0.341620 0.829780 -0.512246
O13   O     O_R   0.637140 0.112930 0.676880 -0.491657
O14   O     O_R   0.887070 0.524210 0.676880 -0.511787
O15   O     O_R   0.362860 0.475790 0.323120 -0.480842
O16   O     O_R   0.112930 0.637140 0.323120 -0.474611
O17   O     O_R   0.524210 0.887070 0.323120 -0.515024
O18   O     O_3   0.666667 0.333333 0.749450 -0.275629
O19   O     O_3   0.333333 0.666667 0.250550 -0.291838
O20   O     O_3   0.251731 0.538985 0.451804 -0.704847
O21   O     O_3   0.737137 0.664028 0.423544 -0.672215
O22   O     O_3   0.208023 0.837126 0.453379 -0.663541
O23   O     O_R   0.658380 0.565900 0.829780 -0.467886
O24   O     O_3   0.248967 0.842652 0.605725 -0.704897
O25   O     O_3   0.680480 0.726005 0.567658 -0.666570
O26   O     O_3   0.095003 0.355806 0.579016 -0.669017
O27   O     O_3   0.897552 0.364098 0.056435 -0.679534
O28   O     O_3   0.633712 0.535316 0.053896 -0.674832
O29   O     O_3   0.458126 0.102498 0.062971 -0.658748
O30   O     O_3   0.366794 0.901583 0.945978 -0.675575
O31   O     O_3   0.540783 0.643873 0.936872 -0.657842
O32   O     O_3   0.102312 0.465049 0.943586 -0.680016
O33   O     O_R   0.092480 0.434100 0.170220 -0.516263
O34   O     O_R   0.341620 0.907520 0.170220 -0.469560
O35   O     O_R   0.565900 0.658380 0.170220 -0.519056
O36   O     O_R   0.477510 0.362730 0.824640 -0.541891
O37   O     O_R   0.637270 0.114780 0.824640 -0.515675
O38   O     O_R   0.885220 0.522490 0.824640 -0.529046

loop_
_geom_bond_atom_site_label_1
_geom_bond_atom_site_label_2
_ccdc_geom_bond_type
H14   O29   S    
C4    C8    S    
Cr4   O33   S    
C19   O31   S    
Cr3   O38   S    
C17   O26   S    
C31   O35   A    
Cr3   O18   S    
C34   O11   A    
Cr1   O36   S    
C5    C17   D    
Cr2   O13   S    
C11   O20   S    
C5    C36   S    
Cr6   O4    S    
C5    H21   S    
C21   O29   S    
C3    O8    A    
C9    C13   D    
C7    H19   S    
C4    O9    A    
H9    O25   S    
H8    O24   S    
H15   O30   S    
C8    C14   D    
Cr1   O18   S    
C18   C30   D    
C20   C28   D    
C7    C15   D    
C21   C27   D    
C35   O5    A    
C22   O28   S    
H7    O22   S    
C13   O21   S    
H16   O31   S    
H13   O28   S    
C31   O2    A    
C12   O1    A    
Cr2   O6    S    
H6    O21   S    
C1    C19   S    
C22   C31   S    
H11   O27   S    
C18   C23   S    
H5    O20   S    
C24   C25   D    
C12   O37   A    
C36   O14   A    
Cr2   O12   S    
Cr1   O11   S    
C28   H2    S    
C6    C34   S    
C29   H3    S    
C25   H22   S    
Cr4   O19   S    
C24   C32   S    
Cr2   O37   S    
Cr5   O9    S    
C23   O38   A    
C12   C20   S    
C3    O16   A    
Cr5   O34   S    
Cr6   O19   S    
C33   O4    A    
C26   C29   S    
Cr1   O5    S    
C22   C26   D    
H10   O26   S    
C19   C29   D    
Cr6   O35   S    
C2    O10   A    
Cr5   O3    S    
C25   C30   S    
C11   C17   S    
C1    O23   A    
Cr2   O18   S    
C10   H1    S    
C26   H23   S    
C7    C35   S    
Cr4   O15   S    
C30   H4    S    
Cr6   O17   S    
C32   O3    A    
Cr5   O19   S    
Cr6   O10   S    
C32   O33   A    
C33   O34   A    
Cr3   O14   S    
C6    H20   S    
C14   O22   S    
C3    C10   S    
C24   O27   S    
C8    H18   S    
C15   O24   S    
C4    O17   A    
Cr5   O16   S    
Cr1   O1    S    
C35   O13   A    
Cr4   O8    S    
Cr3   O7    S    
C23   O12   A    
C20   O30   S    
C10   C11   D    
C34   O7    A    
C6    C16   D    
C21   C33   S    
C16   O25   S    
Cr4   O2    S    
C13   C16   S    
C27   C28   S    
C27   H24   S    
H17   O32   S    
C14   C15   S    
C2    O15   A    
C9    H12   S    
C18   O32   S    
C2    C9    S    
C1    O36   A    
Cr3   O23   S    
C36   O6    A    
