data_mof_unit_29041.cif
_audit_creation_date              2013-03-05T15:39:43-0500
_audit_creation_method            fapswitch 2.2
_symmetry_space_group_name_H-M    P1
_symmetry_Int_Tables_number       1
_space_group_crystal_system       triclinic
_cell_length_a                    19.643866
_cell_length_b                    17.355217
_cell_length_c                    15.57097
_cell_angle_alpha                 89.898056
_cell_angle_beta                  53.246537
_cell_angle_gamma                 90.200897
_cell_volume                      4253.19633253

loop_
_atom_site_label
_atom_site_type_symbol
_atom_site_description
_atom_site_fract_x
_atom_site_fract_y
_atom_site_fract_z
_atom_type_partial_charge
C1    C     C_R   0.332873 0.164151 0.059612 -0.136365
C2    C     C_R   0.661390 0.828324 0.950384 -0.117205
C3    C     C_R   0.622109 0.196782 0.011409 -0.125381
C4    C     C_R   0.369405 0.805798 0.000425 -0.143589
C5    C     C_R   0.861750 0.690944 0.011019 -0.124920
C6    C     C_R   0.141911 0.310654 0.984135 -0.123241
C7    C     C_R   0.159977 0.674767 0.953908 -0.129581
C8    C     C_R   0.838745 0.326502 0.049280 -0.123520
H1    H     H_    0.311849 0.200754 0.126990 0.109318
H2    H     H_    0.673446 0.783774 0.896931 0.103221
H3    H     H_    0.608823 0.251901 0.993152 0.141337
H4    H     H_    0.381118 0.750892 0.020124 0.131615
H5    H     H_    0.862997 0.744022 0.044240 0.111047
H6    H     H_    0.143481 0.258173 0.947544 0.109584
H7    H     H_    0.167319 0.725938 0.911500 0.107019
H8    H     H_    0.829572 0.277515 0.096242 0.104548
N1    N     N_R   0.408680 0.130810 0.995780 -0.052645
N2    N     N_R   0.591320 0.869190 0.004220 -0.053024
N3    N     N_R   0.591320 0.130810 0.004220 -0.050396
N4    N     N_R   0.408680 0.869190 0.995780 -0.045260
N5    N     N_R   0.908680 0.630810 0.995780 -0.046173
N6    N     N_R   0.091320 0.369190 0.004220 -0.045974
N7    N     N_R   0.091320 0.630810 0.004220 -0.049875
N8    N     N_R   0.908680 0.369190 0.995780 -0.050256
C9    C     C_R   0.360858 0.817114 0.219104 0.027162
C10   C     C_R   0.650587 0.172701 0.777653 0.027891
C11   C     C_R   0.615985 0.805993 0.781685 0.013352
C12   C     C_R   0.398655 0.198320 0.211131 0.022992
C13   C     C_R   0.883624 0.305490 0.217669 0.004519
C14   C     C_R   0.126966 0.690021 0.779709 0.002530
C15   C     C_R   0.110127 0.303925 0.785813 0.040370
C16   C     C_R   0.886839 0.694894 0.214859 0.033114
N9    N     N_R   0.421410 0.867210 0.153620 -0.060625
N10   N     N_R   0.578590 0.132790 0.846380 -0.062353
N11   N     N_R   0.578590 0.867210 0.846380 -0.055159
N12   N     N_R   0.421410 0.132790 0.153620 -0.055015
N13   N     N_R   0.921410 0.367210 0.153620 -0.057256
N14   N     N_R   0.078590 0.632790 0.846380 -0.056899
N15   N     N_R   0.078590 0.367210 0.846380 -0.054462
N16   N     N_R   0.921410 0.632790 0.153620 -0.055816
C17   C     C_R   0.360357 0.891880 0.902801 -0.160691
C18   C     C_R   0.635071 0.109511 0.103055 -0.161381
C19   C     C_R   0.669232 0.912290 0.051717 -0.173670
C20   C     C_R   0.330135 0.086399 0.949325 -0.158021
C21   C     C_R   0.828900 0.413340 0.952391 -0.172902
C22   C     C_R   0.169396 0.587610 0.051077 -0.161662
C23   C     C_R   0.147225 0.394782 0.087353 -0.163710
C24   C     C_R   0.856062 0.606336 0.908510 -0.168124
H9    H     H_    0.356097 0.917120 0.842587 0.092015
H10   H     H_    0.640077 0.082794 0.161885 0.091360
H11   H     H_    0.688266 0.943547 0.094286 0.095642
H12   H     H_    0.312902 0.056982 0.903633 0.092076
H13   H     H_    0.807758 0.446672 0.913809 0.100889
H14   H     H_    0.188938 0.555584 0.092474 0.093813
H15   H     H_    0.154294 0.419568 0.145320 0.090122
H16   H     H_    0.850224 0.581584 0.849447 0.087962
N17   N     N_R   0.403840 0.921910 0.935760 -0.037201
N18   N     N_R   0.596160 0.078090 0.064240 -0.037666
N19   N     N_R   0.596160 0.921910 0.064240 -0.042434
N20   N     N_R   0.403840 0.078090 0.935760 -0.040955
N21   N     N_R   0.903840 0.421910 0.935760 -0.043369
N22   N     N_R   0.096160 0.578090 0.064240 -0.043502
N23   N     N_R   0.096160 0.421910 0.064240 -0.037910
N24   N     N_R   0.903840 0.578090 0.935760 -0.037453
C25   C     C_R   0.397131 0.102838 0.309373 -0.162221
C26   C     C_R   0.609598 0.900386 0.687689 -0.175394
C27   C     C_R   0.639988 0.081909 0.684021 -0.149572
C28   C     C_R   0.364098 0.912257 0.316213 -0.159761
C29   C     C_R   0.888861 0.599821 0.312502 -0.174185
C30   C     C_R   0.107190 0.397952 0.688856 -0.176670
C31   C     C_R   0.125330 0.593183 0.683557 -0.163512
C32   C     C_R   0.887536 0.400106 0.313548 -0.168219
H17   H     H_    0.395241 0.071493 0.370776 0.093229
H18   H     H_    0.608091 0.929721 0.627661 0.094579
H19   H     H_    0.648115 0.050333 0.619000 0.097534
H20   H     H_    0.355533 0.943919 0.381610 0.096894
H21   H     H_    0.885584 0.568473 0.374897 0.098794
H22   H     H_    0.109993 0.428976 0.626606 0.096987
H23   H     H_    0.129001 0.562432 0.620684 0.097541
H24   H     H_    0.888926 0.429514 0.373598 0.097100
N25   N     N_R   0.426250 0.076100 0.213650 -0.037365
N26   N     N_R   0.573750 0.923900 0.786350 -0.038623
N27   N     N_R   0.573750 0.076100 0.786350 -0.045353
N28   N     N_R   0.426250 0.923900 0.213650 -0.045192
N29   N     N_R   0.926250 0.576100 0.213650 -0.042512
N30   N     N_R   0.073750 0.423900 0.786350 -0.040266
N31   N     N_R   0.073750 0.576100 0.786350 -0.042179
N32   N     N_R   0.926250 0.423900 0.213650 -0.041023
C33   C     C_R   0.285127 0.143049 0.025642 0.166517
C34   C     C_R   0.711244 0.852279 0.980143 0.162452
C35   C     C_R   0.651884 0.185184 0.070443 0.138385
C36   C     C_R   0.338463 0.818032 0.942741 0.136819
C37   C     C_R   0.830077 0.678184 0.954222 0.136027
C38   C     C_R   0.175837 0.323796 0.038454 0.136701
C39   C     C_R   0.211086 0.648562 0.980579 0.152279
C40   C     C_R   0.786568 0.352745 0.024348 0.142778
C41   C     C_R   0.322662 0.845818 0.321171 -0.008944
C42   C     C_R   0.689044 0.141970 0.676313 -0.015111
C43   C     C_R   0.638697 0.828752 0.682859 -0.007655
C44   C     C_R   0.377275 0.178203 0.310749 -0.019051
C45   C     C_R   0.859872 0.326714 0.317675 0.000300
C46   C     C_R   0.160143 0.663362 0.677764 -0.000844
C47   C     C_R   0.131328 0.323647 0.686619 -0.024330
C48   C     C_R   0.862701 0.672985 0.314516 -0.017954
Ni1   Ni    Ni4+2 0.500000 0.131570 0.000000 0.210292
Ni2   Ni    Ni4+2 0.500000 0.868430 0.000000 0.216522
Ni3   Ni    Ni4+2 1.000000 0.631570 0.000000 0.222706
Ni4   Ni    Ni4+2 1.000000 0.368430 0.000000 0.223916
Ni5   Ni    Ni4+2 0.488900 0.000000 0.862310 0.199198
Ni6   Ni    Ni4+2 0.511100 0.000000 0.137690 0.199049
Ni7   Ni    Ni4+2 0.988900 0.500000 0.862310 0.196505
Ni8   Ni    Ni4+2 0.011100 0.500000 0.137690 0.197200
C49   C     C_3   0.290980 0.195747 0.520321 -0.228937
C50   C     C_3   0.725371 0.815465 0.473788 -0.222701
C51   C     C_3   0.769373 0.160933 0.467707 -0.206333
C52   C     C_3   0.245590 0.826691 0.526243 -0.206920
C53   C     C_3   0.774349 0.687372 0.521850 -0.212412
C54   C     C_3   0.218620 0.306528 0.478118 -0.219417
C55   C     C_3   0.232712 0.682299 0.472605 -0.213928
C56   C     C_3   0.797176 0.300302 0.519114 -0.212146
C57   C     C_3   0.682144 0.704943 0.563135 -0.215143
C58   C     C_3   0.313201 0.305398 0.434056 -0.235485
C59   C     C_3   0.316622 0.727192 0.423668 -0.175970
C60   C     C_3   0.709445 0.262436 0.570373 -0.170315
C61   C     C_3   0.196267 0.197030 0.564790 -0.225411
C62   C     C_3   0.817661 0.797834 0.432106 -0.217304
C63   C     C_3   0.857866 0.198970 0.415206 -0.184594
C64   C     C_3   0.161520 0.781847 0.575087 -0.177779
H25   H     H_    0.625924 0.667311 0.616020 0.133484
H26   H     H_    0.358658 0.352703 0.386050 0.131573
H27   H     H_    0.381672 0.705640 0.362241 0.127250
H28   H     H_    0.646375 0.288071 0.630201 0.119791
H29   H     H_    0.149850 0.151894 0.618863 0.123979
H30   H     H_    0.873560 0.835426 0.377326 0.125498
H31   H     H_    0.920834 0.173379 0.355505 0.134167
H32   H     H_    0.096232 0.803498 0.633541 0.131252
H33   H     H_    0.321879 0.149850 0.535378 0.106687
H34   H     H_    0.704875 0.868849 0.456133 0.107114
H35   H     H_    0.759850 0.103049 0.446258 0.116355
H36   H     H_    0.248885 0.886549 0.548384 0.119396
H37   H     H_    0.794266 0.634178 0.540666 0.110501
H38   H     H_    0.188029 0.352623 0.462894 0.105988
H39   H     H_    0.229751 0.622522 0.449827 0.120927
H40   H     H_    0.806651 0.357803 0.541609 0.123067
C65   C     C_3   0.694694 0.787638 0.585372 0.139776
C66   C     C_3   0.316136 0.219191 0.409421 0.142444
C67   C     C_3   0.274843 0.799039 0.415855 0.120398
C68   C     C_3   0.744708 0.185458 0.577454 0.121680
C69   C     C_3   0.193540 0.283123 0.588662 0.150442
C70   C     C_3   0.805204 0.715023 0.410308 0.141245
C71   C     C_3   0.821681 0.275860 0.409536 0.119940
C72   C     C_3   0.203326 0.710261 0.583128 0.122122
C73   C     C_3   0.286919 0.282122 0.545609 0.086213
C74   C     C_3   0.714205 0.732015 0.450497 0.076114
C75   C     C_3   0.734742 0.238392 0.460785 0.073376
C76   C     C_3   0.286399 0.754138 0.534753 0.070173
C77   C     C_3   0.785857 0.770740 0.544575 0.081296
C78   C     C_3   0.222425 0.220100 0.453067 0.091849
C79   C     C_3   0.192079 0.754826 0.463791 0.064758
C80   C     C_3   0.831809 0.222657 0.526178 0.062916
C81   C     C_2   0.280797 0.691087 0.964337 -0.227516
C82   C     C_2   0.712788 0.311935 0.047347 -0.215702
C83   C     C_2   0.789228 0.734310 0.931814 -0.205437
C84   C     C_2   0.219731 0.267627 0.057425 -0.217038
C85   C     C_2   0.690445 0.242926 0.096437 -0.205130
C86   C     C_2   0.303057 0.759516 0.914488 -0.214581
C87   C     C_2   0.221582 0.192444 0.034881 -0.230321
C88   C     C_2   0.779141 0.807345 0.965356 -0.218756
H41   H     H_    0.300859 0.672554 0.012300 0.140816
H42   H     H_    0.688059 0.332287 0.005427 0.159103
H43   H     H_    0.760201 0.711570 0.896152 0.128044
H44   H     H_    0.255223 0.290429 0.084681 0.130821
H45   H     H_    0.712986 0.223165 0.141252 0.132097
H46   H     H_    0.284966 0.777226 0.864128 0.135702
H47   H     H_    0.186220 0.169809 0.007394 0.127583
H48   H     H_    0.809984 0.830035 0.998954 0.124731
C89   C     C_R   0.366554 0.734834 0.192401 0.109893
C90   C     C_R   0.297674 0.695729 0.207239 -0.170150
C91   C     C_R   0.301802 0.616453 0.189525 -0.150773
C92   C     C_R   0.374986 0.575918 0.156470 -0.090965
C93   C     C_R   0.444713 0.614989 0.138934 -0.084614
C94   C     C_R   0.441085 0.694308 0.155232 -0.164857
H49   H     H_    0.242910 0.727403 0.226954 0.140486
H50   H     H_    0.248507 0.586619 0.200794 0.106385
H51   H     H_    0.377697 0.514494 0.143681 0.113892
H52   H     H_    0.501527 0.584205 0.113581 0.099281
H53   H     H_    0.495158 0.723611 0.142786 0.111803
C95   C     C_R   0.673774 0.247901 0.796892 0.101122
C96   C     C_R   0.748439 0.255648 0.789088 -0.133614
C97   C     C_R   0.778703 0.328656 0.788890 -0.127484
C98   C     C_R   0.736459 0.394337 0.792427 -0.133818
C99   C     C_R   0.662172 0.386757 0.800287 -0.108058
C100  C     C_R   0.628966 0.313906 0.806836 -0.150091
H54   H     H_    0.782807 0.205063 0.783725 0.132515
H55   H     H_    0.835909 0.334242 0.783679 0.124663
H56   H     H_    0.761518 0.450913 0.788471 0.091298
H57   H     H_    0.630943 0.437116 0.799385 0.103662
H58   H     H_    0.571282 0.309052 0.812804 0.096715
C101  C     C_R   0.589999 0.725518 0.817279 0.134856
C102  C     C_R   0.643089 0.672703 0.819079 -0.171936
C103  C     C_R   0.615781 0.596995 0.852571 -0.128752
C104  C     C_R   0.538524 0.572277 0.876133 -0.079167
C105  C     C_R   0.490006 0.621952 0.863092 -0.118765
C106  C     C_R   0.516366 0.697967 0.832310 -0.181151
H59   H     H_    0.705984 0.688791 0.792718 0.099379
H60   H     H_    0.655143 0.557435 0.858592 0.094807
H61   H     H_    0.516866 0.514299 0.901590 0.081513
H62   H     H_    0.432707 0.601213 0.875557 0.113406
H63   H     H_    0.481071 0.734958 0.816382 0.128843
C107  C     C_R   0.438258 0.274986 0.162225 0.122535
C108  C     C_R   0.438066 0.308115 0.080048 -0.184260
C109  C     C_R   0.477039 0.378791 0.035368 -0.118163
C110  C     C_R   0.520629 0.416818 0.067813 -0.096239
C111  C     C_R   0.522652 0.385031 0.148317 -0.145077
C112  C     C_R   0.483204 0.314138 0.193718 -0.153149
H64   H     H_    0.410660 0.281004 0.046180 0.108577
H65   H     H_    0.475103 0.402007 0.972712 0.094662
H66   H     H_    0.554449 0.469736 0.028778 0.097607
H67   H     H_    0.557062 0.413988 0.173215 0.117772
H68   H     H_    0.490035 0.288798 0.251523 0.114620
C113  C     C_R   0.903299 0.224401 0.182193 0.130838
C114  C     C_R   0.837377 0.173637 0.208734 -0.154719
C115  C     C_R   0.845459 0.094517 0.216128 -0.122886
C116  C     C_R   0.919372 0.065643 0.197410 -0.108950
C117  C     C_R   0.988201 0.114360 0.161451 -0.142282
C118  C     C_R   0.979786 0.193583 0.155183 -0.134583
H69   H     H_    0.777054 0.195455 0.232642 0.107159
H70   H     H_    0.792429 0.056338 0.243059 0.094649
H71   H     H_    0.922074 0.006236 0.215135 0.121788
H72   H     H_    0.045293 0.091662 0.147399 0.102067
H73   H     H_    0.027827 0.230978 0.145223 0.115459
C119  C     C_R   0.108835 0.772589 0.808167 0.128241
C120  C     C_R   0.174321 0.823465 0.782550 -0.158259
C121  C     C_R   0.166473 0.902487 0.774110 -0.127669
C122  C     C_R   0.092955 0.931111 0.791464 -0.114696
C123  C     C_R   0.024269 0.882229 0.827137 -0.135815
C124  C     C_R   0.032408 0.803091 0.834615 -0.136701
H74   H     H_    0.233430 0.801664 0.762565 0.110831
H75   H     H_    0.219088 0.940843 0.748502 0.097179
H76   H     H_    0.090007 0.990661 0.774421 0.118743
H77   H     H_    0.966811 0.905027 0.842382 0.101785
H78   H     H_    0.983689 0.765365 0.846866 0.115450
C125  C     C_R   0.073748 0.228019 0.831803 0.123430
C126  C     C_R   0.120651 0.171197 0.838414 -0.202118
C127  C     C_R   0.080751 0.102823 0.893409 -0.125139
C128  C     C_R   0.995797 0.089039 0.934943 -0.052642
C129  C     C_R   0.950967 0.143141 0.921071 -0.133635
C130  C     C_R   0.990026 0.212366 0.869070 -0.163408
H79   H     H_    0.186881 0.180734 0.804237 0.110199
H80   H     H_    0.116336 0.060242 0.902022 0.100235
H81   H     H_    0.964910 0.035746 0.975272 0.098209
H82   H     H_    0.885998 0.131632 0.950982 0.113846
H83   H     H_    0.955220 0.253784 0.857292 0.125309
C131  C     C_R   0.922610 0.771430 0.170997 0.127091
C132  C     C_R   0.876418 0.827909 0.162484 -0.199315
C133  C     C_R   0.917616 0.894699 0.103373 -0.135223
C134  C     C_R   0.003306 0.907228 0.059262 -0.052660
C135  C     C_R   0.047157 0.854177 0.076178 -0.131958
C136  C     C_R   0.006707 0.786553 0.132487 -0.165096
H84   H     H_    0.810328 0.818472 0.196133 0.114830
H85   H     H_    0.882763 0.936714 0.092638 0.100700
H86   H     H_    0.035503 0.958969 0.014807 0.101733
H87   H     H_    0.112677 0.864916 0.044439 0.115325
H88   H     H_    0.041263 0.745260 0.144795 0.125594
C137  C     C_R   0.320165 0.319878 0.601028 0.105746
C138  C     C_R   0.350964 0.275540 0.646558 -0.161300
C139  C     C_R   0.378753 0.311375 0.700977 -0.081438
C140  C     C_R   0.375848 0.391545 0.710557 -0.087129
C141  C     C_R   0.345311 0.436035 0.665520 -0.106971
C142  C     C_R   0.317712 0.400446 0.610775 -0.146839
H89   H     H_    0.353043 0.213390 0.641009 0.098674
H90   H     H_    0.402213 0.276931 0.736137 0.109777
H91   H     H_    0.397071 0.419167 0.753070 0.095588
H92   H     H_    0.342661 0.498079 0.673437 0.105382
H93   H     H_    0.293755 0.435609 0.576771 0.113179
C143  C     C_R   0.674626 0.706547 0.396848 0.114045
C144  C     C_R   0.643043 0.760530 0.361521 -0.161174
C145  C     C_R   0.606161 0.735835 0.312379 -0.082107
C146  C     C_R   0.600421 0.657230 0.298259 -0.078454
C147  C     C_R   0.631556 0.603170 0.333296 -0.104632
C148  C     C_R   0.668395 0.627641 0.382569 -0.149871
H94   H     H_    0.646586 0.821631 0.371872 0.095399
H95   H     H_    0.581880 0.777663 0.285395 0.107103
H96   H     H_    0.571788 0.638241 0.260284 0.093035
H97   H     H_    0.627089 0.542278 0.322354 0.102197
H98   H     H_    0.692122 0.585141 0.409540 0.114235
C149  C     C_R   0.672655 0.251358 0.435457 0.114708
C150  C     C_R   0.628440 0.189106 0.431880 -0.173440
C151  C     C_R   0.567256 0.202163 0.414624 -0.138295
C152  C     C_R   0.549054 0.277305 0.402225 -0.056038
C153  C     C_R   0.592344 0.339528 0.406228 -0.092966
C154  C     C_R   0.653690 0.326737 0.423212 -0.170235
H99   H     H_    0.640684 0.130608 0.443128 0.101103
H100  H     H_    0.533198 0.154105 0.412124 0.102742
H101  H     H_    0.500408 0.287401 0.391372 0.097125
H102  H     H_    0.577580 0.397732 0.397518 0.101244
H103  H     H_    0.685574 0.375618 0.428198 0.116546
C155  C     C_R   0.345697 0.750169 0.565780 0.115894
C156  C     C_R   0.384829 0.817302 0.568080 -0.173085
C157  C     C_R   0.439861 0.813229 0.596902 -0.134129
C158  C     C_R   0.457205 0.742170 0.622012 -0.057817
C159  C     C_R   0.419971 0.674962 0.617759 -0.090725
C160  C     C_R   0.364677 0.678789 0.589286 -0.167383
H104  H     H_    0.372502 0.872793 0.548306 0.101014
H105  H     H_    0.469356 0.865126 0.599388 0.101159
H106  H     H_    0.500082 0.739190 0.643776 0.098469
H107  H     H_    0.434178 0.619903 0.636262 0.100299
H108  H     H_    0.336580 0.626237 0.585770 0.110428
C161  C     C_R   0.827092 0.796253 0.595993 0.115455
C162  C     C_R   0.866597 0.742960 0.621036 -0.160922
C163  C     C_R   0.907217 0.768077 0.665165 -0.084031
C164  C     C_R   0.907727 0.846238 0.685845 -0.071273
C165  C     C_R   0.867680 0.899413 0.662444 -0.112784
C166  C     C_R   0.828328 0.874758 0.616578 -0.151596
H109  H     H_    0.867232 0.682217 0.605315 0.098678
H110  H     H_    0.938372 0.726955 0.683286 0.107093
H111  H     H_    0.939070 0.865559 0.720009 0.092731
H112  H     H_    0.867193 0.959761 0.679635 0.102632
H113  H     H_    0.798688 0.916818 0.597300 0.115762
C167  C     C_R   0.186600 0.182799 0.400355 0.120465
C168  C     C_R   0.151316 0.227417 0.360635 -0.151140
C169  C     C_R   0.115349 0.191792 0.315867 -0.087745
C170  C     C_R   0.116087 0.111629 0.308041 -0.077959
C171  C     C_R   0.152595 0.066941 0.345235 -0.103202
C172  C     C_R   0.187246 0.102215 0.391870 -0.144479
H114  H     H_    0.150315 0.289576 0.365325 0.097415
H115  H     H_    0.086854 0.226371 0.287248 0.111410
H116  H     H_    0.088569 0.084154 0.272951 0.091216
H117  H     H_    0.153681 0.004944 0.338283 0.103020
H118  H     H_    0.214200 0.066735 0.421784 0.110791
C173  C     C_R   0.134057 0.758084 0.431061 0.114922
C174  C     C_R   0.099987 0.690194 0.421241 -0.167688
C175  C     C_R   0.050452 0.693560 0.384240 -0.129048
C176  C     C_R   0.033171 0.764614 0.359104 -0.068863
C177  C     C_R   0.063939 0.832600 0.372804 -0.091394
C178  C     C_R   0.114018 0.829407 0.409085 -0.162226
H119  H     H_    0.113114 0.634616 0.439779 0.102861
H120  H     H_    0.025546 0.641114 0.374877 0.103533
H121  H     H_    0.995337 0.766853 0.329955 0.100245
H122  H     H_    0.049366 0.887673 0.354764 0.100380
H123  H     H_    0.138200 0.882201 0.418730 0.105667
C179  C     C_R   0.890557 0.209679 0.556294 0.129372
C180  C     C_R   0.933756 0.271851 0.561819 -0.138876
C181  C     C_R   0.980551 0.260605 0.601705 -0.135020
C182  C     C_R   0.986152 0.187112 0.633474 -0.073112
C183  C     C_R   0.948353 0.124182 0.621136 -0.103737
C184  C     C_R   0.900745 0.135217 0.582324 -0.175505
H124  H     H_    0.928676 0.329400 0.539393 0.098465
H125  H     H_    0.011377 0.309001 0.609480 0.107269
H126  H     H_    0.019680 0.178851 0.667701 0.104656
H127  H     H_    0.954810 0.067224 0.643619 0.099774
H128  H     H_    0.869609 0.086331 0.575961 0.109970

loop_
_geom_bond_atom_site_label_1
_geom_bond_atom_site_label_2
_geom_bond_distance
_ccdc_geom_bond_type
C127  H80   1.080840 S    
N8    N21   1.350382 A    
C55   H39   1.109521 S    
C153  C154  1.398033 A    
C56   H40   1.109591 S    
C173  C178  1.402634 A    
C18   N18   1.340910 A    
C165  H112  1.080123 S    
C175  C176  1.396182 A    
C11   C43   1.377690 A    
C124  H78   1.075933 S    
C22   N22   1.335795 A    
C179  C184  1.404069 A    
C32   C45   1.369275 A    
C89   C94   1.402772 A    
C126  C127  1.393692 A    
C14   N14   1.332819 A    
C68   C80   1.528847 S    
C48   C70   1.423478 S    
C2    C34   1.373884 A    
C69   C73   1.530725 S    
C147  H97   1.082321 S    
C33   C87   1.451472 S    
C176  H121  1.078740 S    
N17   Ni5   1.904818 S    
C115  C116  1.394040 A    
C171  C172  1.398409 A    
C6    C38   1.373209 A    
C103  H60   1.080857 S    
C16   C48   1.376023 A    
C3    N3    1.328858 A    
C71   C75   1.528280 S    
C4    H4    1.067718 S    
C5    H5    1.064635 S    
C7    H7    1.062351 S    
C101  C102  1.403623 A    
C8    H8    1.062562 S    
N18   Ni6   1.904816 S    
C127  C128  1.401952 A    
C154  H103  1.082914 S    
C17   H9    1.081968 S    
N4    Ni2   1.834045 S    
C59   C76   1.529350 S    
N3    N18   1.350380 A    
C86   H46   1.081251 S    
C104  C105  1.389080 A    
C98   C99   1.395234 A    
N13   Ni4   1.919832 S    
C179  C180  1.404642 A    
C11   N11   1.344196 A    
C93   C94   1.394569 A    
C51   C68   1.532750 S    
C45   C71   1.447195 S    
C49   C66   1.538362 S    
C54   C69   1.533549 S    
C137  C142  1.404635 A    
C26   N26   1.316074 A    
C82   C85   1.342701 D    
C65   C77   1.529497 S    
C139  H90   1.082656 S    
N7    Ni3   1.834043 S    
C14   C46   1.387531 A    
C174  C175  1.397658 A    
C61   C69   1.533712 S    
N16   Ni3   1.920045 S    
C31   C46   1.370827 A    
C51   H35   1.109213 S    
C101  C106  1.401857 A    
C49   H33   1.109468 S    
C54   C78   1.541318 S    
C155  C156  1.405867 A    
C157  C158  1.396593 A    
C167  C172  1.404408 A    
C148  H98   1.083151 S    
C181  H125  1.082282 S    
C176  C177  1.397558 A    
N9    Ni2   1.919832 S    
C52   C67   1.528987 S    
C55   C59   1.546082 S    
C117  H72   1.081941 S    
C80   C179  1.500514 S    
C83   C88   1.341252 D    
C116  H71   1.076518 S    
C131  C136  1.403011 A    
C40   C82   1.449551 S    
C58   C66   1.537886 S    
C52   C76   1.542511 S    
C3    H3    1.074048 S    
C177  C178  1.398325 A    
C4    N4    1.318282 A    
N31   Ni7   1.881795 S    
N25   Ni6   1.892920 S    
C62   H30   1.109529 S    
C55   C79   1.542036 S    
C168  C169  1.398307 A    
C56   C80   1.544744 S    
C112  H68   1.079397 S    
C50   C74   1.540135 S    
C100  H58   1.083063 S    
C157  H105  1.082458 S    
C144  H94   1.081118 S    
C27   N27   1.326416 A    
C97   C98   1.393992 A    
C122  H76   1.076917 S    
C29   H21   1.080323 S    
N29   Ni8   1.892920 S    
C31   H23   1.079871 S    
C90   C91   1.396787 A    
C183  H127  1.081021 S    
C141  H92   1.081911 S    
C175  H120  1.082499 S    
C138  H89   1.081194 S    
C39   C81   1.435842 S    
C50   C62   1.548550 S    
C37   C83   1.433119 S    
C107  C112  1.413092 A    
C26   H18   1.079465 S    
C164  C165  1.396515 A    
C60   H28   1.106716 S    
C134  C135  1.391156 A    
C54   C58   1.548503 S    
C182  H126  1.076483 S    
N5    N24   1.352182 A    
N20   Ni5   1.916017 S    
C27   C42   1.372471 A    
C63   C71   1.541133 S    
N6    N23   1.352181 A    
C98   H56   1.081826 S    
C10   C95   1.470043 S    
C64   C72   1.537293 S    
N7    N22   1.350380 A    
C78   C167  1.509291 S    
C120  C121  1.395353 A    
C19   N19   1.339089 A    
C81   H41   1.081112 S    
C20   H12   1.081551 S    
C108  H64   1.062165 S    
C43   C65   1.426326 S    
C21   H13   1.080320 S    
C144  C145  1.398783 A    
C41   C67   1.431127 S    
C96   H54   1.081862 S    
N11   N26   1.398032 A    
C128  H81   1.075148 S    
N15   Ni4   1.920045 S    
C126  H79   1.082975 S    
N26   Ni5   1.892921 S    
C72   C76   1.525927 S    
C11   C101  1.473789 S    
C147  C148  1.398619 A    
C130  H83   1.082047 S    
C171  H117  1.080598 S    
C123  H77   1.081517 S    
N2    Ni2   1.833955 S    
C113  C114  1.405040 A    
C6    H6    1.065909 S    
N12   N25   1.398029 A    
C146  C147  1.397661 A    
C151  C152  1.396718 A    
C5    N5    1.319537 A    
C109  C110  1.392450 A    
C74   C143  1.507939 S    
C97   H55   1.081153 S    
C18   H10   1.081862 S    
C9    C41   1.383961 A    
C95   C100  1.398426 A    
C125  C130  1.403408 A    
C145  H95   1.082680 S    
C119  C124  1.403646 A    
C58   C73   1.539380 S    
C84   H44   1.084220 S    
C27   H19   1.077027 S    
C29   N29   1.315131 A    
C87   H47   1.083750 S    
C91   H50   1.082104 S    
C62   C77   1.537512 S    
C166  H113  1.083203 S    
C88   H48   1.083619 S    
C132  H84   1.082121 S    
C56   C71   1.530998 S    
C34   C88   1.442401 S    
C142  H93   1.083197 S    
C35   C85   1.450829 S    
C129  H82   1.082660 S    
C50   C65   1.535294 S    
C174  H119  1.081671 S    
C139  C140  1.397331 A    
C160  H108  1.082709 S    
C66   C78   1.534235 S    
C167  C168  1.406269 A    
C28   H20   1.079261 S    
C105  H62   1.081499 S    
C1    N1    1.333061 A    
C104  H61   1.069753 S    
C110  H66   1.079229 S    
N30   Ni7   1.892922 S    
C32   H24   1.080595 S    
C62   C70   1.529478 S    
C7    N7    1.319433 A    
C8    N8    1.323342 A    
C155  C160  1.404481 A    
C50   H34   1.109165 S    
N1    N20   1.352182 A    
N2    N19   1.352181 A    
C181  C182  1.395532 A    
C60   C75   1.523817 S    
C16   C131  1.463032 S    
C145  C146  1.397054 A    
C133  H85   1.080924 S    
C63   C80   1.536976 S    
C20   C33   1.383245 A    
C64   C79   1.530822 S    
C9    N9    1.322335 A    
C2    H2    1.055601 S    
C102  H59   1.078506 S    
N13   N32   1.399898 A    
C180  C181  1.397455 A    
C116  C117  1.393112 A    
C110  C111  1.390885 A    
C13   C113  1.478564 S    
C60   C68   1.540841 S    
C15   C125  1.461696 S    
C63   H31   1.104841 S    
C64   H32   1.105483 S    
C23   N23   1.338717 A    
C177  H122  1.082413 S    
C9    C89   1.473804 S    
C24   N24   1.334264 A    
C2    N2    1.314691 A    
C109  H65   1.076444 S    
C12   C107  1.495221 S    
C125  C126  1.396967 A    
C6    N6    1.324307 A    
C55   C72   1.531812 S    
C3    C35   1.367922 A    
C152  C153  1.396581 A    
C128  C129  1.391589 A    
C106  H63   1.078299 S    
C122  C123  1.393603 A    
N8    Ni4   1.834045 S    
C83   H43   1.080435 S    
C90   H49   1.078539 S    
C169  C170  1.396164 A    
C141  C142  1.398090 A    
C162  H109  1.081115 S    
C19   C34   1.384680 A    
C24   C37   1.376539 A    
C134  H86   1.074895 S    
C28   N28   1.321204 A    
C1    H1    1.077266 S    
C136  H88   1.081529 S    
C57   C74   1.538360 S    
N24   Ni7   1.916017 S    
C159  H107  1.082173 S    
C170  C171  1.396643 A    
N16   N29   1.398029 A    
C53   H37   1.109035 S    
C120  H74   1.076702 S    
C131  C132  1.396945 A    
C25   N25   1.322163 A    
C108  C109  1.388398 A    
C82   H42   1.080123 S    
C93   H52   1.079107 S    
C22   H14   1.080803 S    
C13   C45   1.382745 A    
C172  H118  1.083003 S    
C150  H99   1.081998 S    
C31   N31   1.315969 A    
N3    Ni1   1.834043 S    
C121  C122  1.394255 A    
C38   C84   1.445936 S    
C92   C93   1.398464 A    
C162  C163  1.397736 A    
C59   H27   1.108860 S    
N12   Ni1   1.920045 S    
C61   C78   1.541752 S    
N10   Ni1   1.919831 S    
C84   C87   1.346767 D    
C158  C159  1.397188 A    
C25   C44   1.362740 A    
C57   H25   1.108601 S    
C161  C166  1.403666 A    
C79   C173  1.502503 S    
C151  H100  1.082634 S    
N14   N31   1.399902 A    
C153  H102  1.082370 S    
C17   N17   1.336807 A    
C173  C174  1.406111 A    
C99   C100  1.395909 A    
C115  H70   1.082330 S    
C19   H11   1.081611 S    
C165  C166  1.396484 A    
C42   C68   1.452765 S    
C158  H106  1.081125 S    
C20   N20   1.340632 A    
N6    Ni4   1.833955 S    
C113  C118  1.403796 A    
C21   N21   1.341036 A    
C119  C120  1.403668 A    
C23   C38   1.381824 A    
C135  C136  1.390531 A    
C96   C97   1.396930 A    
N9    N28   1.399899 A    
C47   C69   1.446969 S    
C91   C92   1.396222 A    
N32   Ni8   1.881798 S    
N22   Ni8   1.904816 S    
C140  C141  1.397360 A    
C12   N12   1.350293 A    
C89   C90   1.401285 A    
C13   N13   1.340776 A    
N15   N30   1.398031 A    
C4    C36   1.369255 A    
C163  C164  1.396144 A    
C30   H22   1.080067 S    
C103  C104  1.396560 A    
C73   C137  1.507954 S    
C135  H87   1.082719 S    
C8    C40   1.373863 A    
C156  C157  1.398609 A    
C67   C79   1.525162 S    
C51   C63   1.554124 S    
C161  C162  1.405570 A    
C123  C124  1.395972 A    
C77   C161  1.506016 S    
C76   C155  1.506308 S    
C170  H116  1.081992 S    
C111  H67   1.082448 S    
C49   C61   1.549225 S    
C143  C148  1.404365 A    
C85   H45   1.081951 S    
C118  H73   1.075202 S    
N14   Ni3   1.919831 S    
N19   Ni6   1.916017 S    
C25   H17   1.080267 S    
C18   C35   1.373171 A    
C14   C119  1.481087 S    
N23   Ni8   1.916017 S    
C53   C57   1.548552 S    
C28   C41   1.384165 A    
C114  H69   1.077899 S    
C10   N10   1.343298 A    
C22   C39   1.381533 A    
C149  C150  1.405801 A    
C44   C66   1.452797 S    
C102  C103  1.394272 A    
C140  H91   1.082504 S    
N27   Ni5   1.881796 S    
C53   C70   1.532760 S    
C137  C138  1.405499 A    
C81   C86   1.338266 D    
C121  H75   1.082303 S    
C12   C44   1.386267 A    
C184  H128  1.083030 S    
C163  H110  1.082835 S    
C32   N32   1.322239 A    
C53   C77   1.537852 S    
C152  H101  1.080160 S    
C138  C139  1.398507 A    
C111  C112  1.395952 A    
C99   H57   1.074434 S    
N28   Ni6   1.881797 S    
C95   C96   1.403335 A    
C15   C47   1.379687 A    
C26   C43   1.353475 A    
C178  H123  1.081914 S    
N1    Ni1   1.833956 S    
C169  H115  1.082568 S    
C133  C134  1.402063 A    
C146  H96   1.082621 S    
C117  C118  1.395601 A    
C143  C144  1.405670 A    
N5    Ni3   1.833956 S    
C10   C42   1.387208 A    
C30   N30   1.322862 A    
C59   C67   1.539235 S    
C52   C64   1.548297 S    
C57   C65   1.530322 S    
N10   N27   1.399901 A    
C75   C149  1.506961 S    
C132  C133  1.394256 A    
N21   Ni7   1.904818 S    
C23   H15   1.081668 S    
C156  H104  1.081995 S    
C29   C48   1.364855 A    
C61   H29   1.108064 S    
C24   H16   1.082013 S    
C159  C160  1.399102 A    
C1    C33   1.373160 A    
C51   C75   1.541188 S    
C149  C154  1.405021 A    
C49   C73   1.540764 S    
C54   H38   1.109244 S    
C5    C37   1.369861 A    
C129  C130  1.390788 A    
C7    C39   1.374322 A    
C150  C151  1.398676 A    
C182  C183  1.395293 A    
N11   Ni2   1.920045 S    
C183  C184  1.397764 A    
C15   N15   1.337451 A    
C168  H114  1.080839 S    
C94   H53   1.083506 S    
C16   N16   1.328898 A    
C114  C115  1.395302 A    
C92   H51   1.080451 S    
C36   C86   1.439242 S    
C17   C36   1.373884 A    
C107  C108  1.403950 A    
C70   C74   1.529575 S    
C46   C72   1.431250 S    
C164  H111  1.079661 S    
C105  C106  1.390771 A    
C52   H36   1.108946 S    
N4    N17   1.350382 A    
C180  H124  1.081961 S    
C21   C40   1.388333 A    
C58   H26   1.106351 S    
C56   C60   1.543697 S    
C30   C47   1.368840 A    
