data_mof_unit_39359.cif
_audit_creation_date              2012-12-11T15:32:42-0500
_audit_creation_method            fapswitch 2.2
_symmetry_space_group_name_H-M    P1
_symmetry_Int_Tables_number       1
_space_group_crystal_system       triclinic
_cell_length_a                    6.955775
_cell_length_b                    20.453674
_cell_length_c                    24.397278
_cell_angle_alpha                 89.577031
_cell_angle_beta                  90.547337
_cell_angle_gamma                 89.357021
_cell_volume                      3470.55461824

loop_
_atom_site_label
_atom_site_type_symbol
_atom_type_description
_atom_site_fract_x
_atom_site_fract_y
_atom_site_fract_z
_atom_type_partial_charge
O1    O     O_R   0.507320 0.423560 0.460500 -0.537123
O2    O     O_R   0.170760 0.556250 0.437010 -0.529425
O3    O     O_R   0.004030 0.576440 0.539500 -0.536377
C1    C     C_R   0.338526 0.576421 0.421048 0.720709
O4    O     O_R   0.177370 0.422820 0.454110 -0.538577
O5    O     O_R   0.010680 0.442050 0.556720 -0.537175
C2    C     C_R   0.346331 0.398914 0.443453 0.691369
O6    O     O_R   0.500680 0.557950 0.443280 -0.531235
O7    O     O_3   0.340380 0.506470 0.533650 -0.370633
V1    V     V_3+5 0.064130 0.498800 0.493760 1.449424
O8    O     O_R   0.681160 0.443750 0.562990 -0.539299
C3    C     C_R   0.851071 0.423679 0.578873 0.719966
O9    O     O_R   0.674560 0.577180 0.545890 -0.538741
C4    C     C_R   0.842606 0.601094 0.556542 0.697863
V2    V     V_3+5 0.564560 0.501200 0.506240 1.437697
O10   O     O_3   0.838180 0.493530 0.466350 -0.362485
C5    C     C_R   0.976743 0.838164 0.911235 -0.042282
C6    C     C_R   0.847156 0.661798 0.588723 -0.045582
C7    C     C_R   0.043116 0.722161 0.906038 -0.162897
C8    C     C_R   0.033343 0.779443 0.936325 -0.167819
C9    C     C_R   0.930418 0.839345 0.854969 -0.215490
C10   C     C_R   0.942569 0.781576 0.822699 0.086634
C11   C     C_R   0.999746 0.722714 0.849728 0.140568
C12   C     C_R   0.902790 0.780124 0.764762 0.058296
C13   C     C_R   0.921019 0.719840 0.735195 0.058532
C14   C     C_R   0.977767 0.663050 0.764582 -0.188351
C15   C     C_R   0.015736 0.664644 0.820500 -0.203304
C16   C     C_R   0.846012 0.836911 0.735376 -0.188240
C17   C     C_R   0.808032 0.835315 0.679458 -0.202478
C18   C     C_R   0.824053 0.777247 0.650228 0.139582
C19   C     C_R   0.881257 0.718388 0.677258 0.087398
C20   C     C_R   0.780693 0.777795 0.593917 -0.162440
C21   C     C_R   0.790518 0.720512 0.563629 -0.163157
C22   C     C_R   0.893466 0.660621 0.644989 -0.216585
H1    H     H_    0.059465 0.619670 0.841125 0.120896
H2    H     H_    0.933648 0.613760 0.662246 0.093032
H3    H     H_    0.752501 0.721873 0.520455 0.118135
H4    H     H_    0.764279 0.880287 0.658833 0.121286
H5    H     H_    0.087511 0.677263 0.926630 0.112282
H6    H     H_    0.071387 0.778079 0.979497 0.107141
H7    H     H_    0.890292 0.886212 0.837709 0.093409
H8    H     H_    0.994991 0.616085 0.745542 0.122119
H9    H     H_    0.828760 0.883874 0.754419 0.122238
H10   H     H_    0.736276 0.822690 0.573323 0.114631
C23   C     C_3   0.847817 0.307592 0.768946 -0.138733
C24   C     C_3   0.036970 0.272710 0.787389 -0.139525
H11   H     H_    0.140230 0.291196 0.818431 0.106760
H12   H     H_    0.794583 0.355338 0.784358 0.107814
H13   H     H_    0.226733 0.264997 0.707360 0.109688
C25   C     C_1   0.960202 0.121784 0.875273 -0.194664
C26   C     C_1   0.864115 0.378164 0.624698 -0.193931
C27   C     C_3   0.739855 0.241859 0.773264 -0.139285
C28   C     C_3   0.928797 0.207607 0.791091 0.170658
C29   C     C_3   0.787363 0.227236 0.712581 -0.139478
C30   C     C_3   0.895536 0.292340 0.708879 0.170610
C31   C     C_3   0.976516 0.192355 0.731024 -0.138563
C32   C     C_3   0.084478 0.258087 0.726705 -0.139337
C33   C     C_1   0.946877 0.160297 0.837235 -0.066842
C34   C     C_1   0.877451 0.339650 0.662736 -0.067295
H14   H     H_    0.029750 0.144608 0.715612 0.108005
H15   H     H_    0.684103 0.208750 0.681538 0.106820
H16   H     H_    0.597600 0.234949 0.792609 0.109765
C35   C     C_3   0.512909 0.720900 0.209883 -0.182824
C36   C     C_3   0.315285 0.698159 0.231640 -0.145699
H17   H     H_    0.233923 0.655388 0.216600 0.145544
H18   H     H_    0.596832 0.696990 0.176993 0.134667
H19   H     H_    0.099520 0.786726 0.213761 0.143911
C37   C     C_1   0.347600 0.622091 0.375065 -0.147029
C38   C     C_1   0.476686 0.878008 0.125027 -0.196443
C39   C     C_3   0.582536 0.730331 0.269628 0.299997
C40   C     C_3   0.386956 0.707876 0.290987 0.125124
C41   C     C_3   0.510599 0.802112 0.268477 -0.183669
C42   C     C_3   0.438480 0.792243 0.209160 0.098631
C43   C     C_3   0.312985 0.779235 0.290137 -0.144800
C44   C     C_3   0.241228 0.770052 0.230260 -0.082749
C45   C     C_1   0.362315 0.660616 0.337047 0.056328
C46   C     C_1   0.462342 0.839495 0.163078 -0.035187
H20   H     H_    0.229680 0.803095 0.323179 0.146464
H21   H     H_    0.592554 0.844717 0.283587 0.134950
C47   C     C_R   0.471982 0.161849 0.088747 -0.041865
C48   C     C_R   0.352656 0.338212 0.411267 -0.041467
C49   C     C_R   0.532395 0.277764 0.094014 -0.162381
C50   C     C_R   0.523895 0.220506 0.063705 -0.168630
C51   C     C_R   0.429140 0.160705 0.144989 -0.214685
C52   C     C_R   0.440183 0.218440 0.177286 0.086609
C53   C     C_R   0.492504 0.277242 0.150303 0.139116
C54   C     C_R   0.403966 0.219909 0.235209 0.058189
C55   C     C_R   0.420736 0.280155 0.264806 0.056845
C56   C     C_R   0.472570 0.336888 0.235464 -0.184316
C57   C     C_R   0.507159 0.335275 0.179560 -0.200211
C58   C     C_R   0.352199 0.163172 0.264555 -0.186932
C59   C     C_R   0.317672 0.164779 0.320461 -0.201809
C60   C     C_R   0.332288 0.222814 0.349717 0.140452
C61   C     C_R   0.384506 0.281624 0.322729 0.086084
C62   C     C_R   0.292465 0.222283 0.406010 -0.162685
C63   C     C_R   0.300902 0.279542 0.436317 -0.169422
C64   C     C_R   0.395437 0.339366 0.355021 -0.212624
H22   H     H_    0.547184 0.380202 0.158970 0.124371
H23   H     H_    0.431816 0.386199 0.337788 0.097143
H24   H     H_    0.265572 0.278203 0.479470 0.105436
H25   H     H_    0.277727 0.119846 0.341055 0.122499
H26   H     H_    0.573114 0.322612 0.073457 0.112098
H27   H     H_    0.559275 0.221838 0.020555 0.105687
H28   H     H_    0.392600 0.113883 0.162214 0.093965
H29   H     H_    0.488458 0.383818 0.254532 0.126994
H30   H     H_    0.336370 0.116237 0.245491 0.123169
H31   H     H_    0.251845 0.177427 0.426571 0.112101
O11   O     O_R   0.323550 0.942140 0.056770 -0.535042
O12   O     O_R   0.647080 0.077200 0.045890 -0.537932
O13   O     O_R   0.813610 0.057920 0.943260 -0.535340
C65   C     C_R   0.478168 0.101145 0.056560 0.694198
O14   O     O_R   0.653470 0.943760 0.063000 -0.536526
O15   O     O_R   0.820050 0.923540 0.960490 -0.536374
C66   C     C_R   0.485694 0.923648 0.079003 0.723264
O16   O     O_R   0.317110 0.076520 0.039540 -0.536430
O17   O     O_3   0.483830 0.993580 0.966380 -0.367032
V3    V     V_3+5 0.760140 0.001190 0.006240 1.425353
O18   O     O_R   0.149510 0.922740 0.954070 -0.538130
C67   C     C_R   0.981412 0.898866 0.943419 0.693905
O19   O     O_R   0.143120 0.056170 0.936970 -0.537841
C68   C     C_R   0.973225 0.076270 0.921100 0.725733
V4    V     V_3+5 0.259690 0.998700 0.993700 1.424773
O20   O     O_3   0.986130 0.006420 0.033620 -0.366772
Br1   Br    Br    0.828461 0.700853 0.298814 -0.636735

loop_
_geom_bond_atom_site_label_1
_geom_bond_atom_site_label_2
_ccdc_geom_bond_type
C13   C19   A    
C54   C55   A    
C60   C61   A    
C54   C58   A    
C4    C6    S    
C38   C46   T    
C62   C63   A    
C47   C51   A    
O14   C66   A    
O12   V3    S    
V1    O10   S    
C52   C53   A    
C31   C32   S    
C14   C15   A    
C50   H27   S    
C7    H5    S    
C16   C17   A    
C41   H21   S    
C30   C34   S    
O12   C65   A    
O13   C68   A    
O5    C3    A    
C18   C19   A    
C8    H6    S    
C28   C31   S    
V2    O10   S    
C5    C8    A    
H13   C32   S    
O17   V3    S    
C47   C65   S    
O18   V4    S    
C36   C40   S    
O11   C66   A    
O18   C67   A    
O15   C67   A    
O8    V2    S    
C7    C8    A    
O19   V4    S    
C17   H4    S    
C39   C40   S    
O1    V2    S    
C11   C15   A    
O7    V1    S    
C22   H2    S    
C1    O6    A    
C35   H18   S    
C60   C62   A    
O16   V4    S    
O9    C4    A    
C42   C44   S    
C58   H30   S    
C25   C68   S    
C47   C50   A    
O13   V3    S    
C64   H23   S    
C27   C29   S    
C55   C61   A    
C52   C54   A    
C20   H10   S    
C29   C31   S    
C38   C66   S    
C43   C44   S    
C25   C33   T    
C12   C13   A    
C41   C43   S    
C53   C57   A    
C58   C59   A    
C1    C37   S    
C48   C63   A    
C35   C42   S    
C23   C27   S    
C15   H1    S    
C13   C14   A    
C49   C53   A    
C21   H3    S    
C31   H14   S    
C7    C11   A    
C17   C18   A    
C39   Br1   S    
C35   C39   S    
C28   C33   S    
C49   H26   S    
C19   C22   A    
C24   H11   S    
C51   C52   A    
C6    C22   A    
O3    C4    A    
C62   H31   S    
C59   H25   S    
O15   V3    S    
C2    C48   S    
O6    V2    S    
O9    V2    S    
C24   C32   S    
C51   H28   S    
C9    H7    S    
C26   C34   T    
O2    V1    S    
C3    C26   S    
C27   C28   S    
C14   H8    S    
O4    C2    A    
O17   V4    S    
C23   H12   S    
C29   C30   S    
O1    C2    A    
C10   C11   A    
C12   C16   A    
O11   V4    S    
C41   C42   S    
O5    V1    S    
C40   C43   S    
C65   O16   A    
O8    C3    A    
C29   H15   S    
C37   C45   T    
C16   H9    S    
C61   C64   A    
O14   V3    S    
C20   C21   A    
C30   C32   S    
V3    O20   S    
O4    V1    S    
O3    V1    S    
C27   H16   S    
C36   H17   S    
C18   C20   A    
C40   C45   S    
C48   C64   A    
O2    C1    A    
C63   H24   S    
C24   C28   S    
C59   C60   A    
C36   C44   S    
C10   C12   A    
O7    V2    S    
C6    C21   A    
C5    C9    A    
C5    C67   S    
C35   C36   S    
C23   C24   S    
H19   C44   S    
C55   C56   A    
C23   C30   S    
C49   C50   A    
C43   H20   S    
C56   H29   S    
V4    O20   S    
C42   C46   S    
O19   C68   A    
C39   C41   S    
C56   C57   A    
C9    C10   A    
C57   H22   S    
