data_mof_unit_19148.cif
_audit_creation_date              2012-10-26T19:45:33-0400
_audit_creation_method            fapswitch 2.2
_symmetry_space_group_name_H-M    P1
_symmetry_Int_Tables_number       1
_space_group_crystal_system       triclinic
_cell_length_a                    10.98333
_cell_length_b                    9.835522
_cell_length_c                    11.165669
_cell_angle_alpha                 89.152383
_cell_angle_beta                  93.120651
_cell_angle_gamma                 88.61845
_cell_volume                      1203.8958268

loop_
_atom_site_label
_atom_site_type_symbol
_atom_type_description
_atom_site_fract_x
_atom_site_fract_y
_atom_site_fract_z
_atom_type_partial_charge
C1    C     C_R   0.262801 0.501021 0.508835 0.575423
C2    C     C_R   0.407019 0.930558 0.446947 0.079087
C3    C     C_R   0.597393 0.923580 0.547070 0.253526
C4    C     C_R   0.598459 0.070514 0.544731 0.247793
C5    C     C_R   0.487957 0.500476 0.260739 0.594314
C6    C     C_R   0.735890 0.498862 0.495030 0.562313
C7    C     C_R   0.501128 0.499274 0.739790 0.575100
C8    C     C_3   0.453462 0.652435 0.067412 0.267597
C9    C     C_3   0.378057 0.393100 0.068856 0.262587
C10   C     C_3   0.438290 0.646203 0.921793 0.250152
C11   C     C_3   0.396298 0.381855 0.922535 0.240241
C12   C     C_3   0.635958 0.470597 0.941691 0.383423
C13   C     C_3   0.618710 0.444865 0.083482 0.118489
C14   C     C_3   0.481394 0.498924 0.121608 -0.020568
C15   C     C_3   0.496674 0.498275 0.878369 -0.099543
C16   C     C_R   0.062104 0.377451 0.533593 0.143456
C17   C     C_R   0.053899 0.624626 0.500937 0.237427
C18   C     C_R   0.935751 0.378749 0.516579 -0.146987
C19   C     C_R   0.928615 0.617281 0.479243 -0.100145
C20   C     C_R   0.868750 0.497213 0.493106 -0.078115
C21   C     C_R   0.126997 0.501831 0.518425 -0.018390
C22   C     C_R   0.406768 0.076645 0.446565 0.057367
Cu1   Cu    Cu3+1 0.500020 0.640660 0.500000 1.165274
Cu2   Cu    Cu3+1 0.500020 0.359340 0.500000 1.125809
H1    H     H_    0.888204 0.285493 0.525727 0.190191
H2    H     H_    0.774515 0.874512 0.543425 0.220188
H3    H     H_    0.773832 0.105477 0.520164 0.196520
H4    H     H_    0.739631 0.104980 0.665050 0.291689
H5    H     H_    0.152894 0.854040 0.100707 0.408004
H6    H     H_    0.133445 0.383262 0.281008 0.367624
H7    H     H_    0.294613 0.641869 0.787504 0.278198
H8    H     H_    0.248333 0.615786 0.930238 0.338409
H9    H     H_    0.206024 0.352610 0.876960 0.348658
H10   H     H_    0.288072 0.400645 0.762121 0.260328
H11   H     H_    0.312965 0.909092 0.900217 0.433299
H12   H     H_    0.875828 0.708274 0.454439 0.181918
H13   H     H_    0.567458 0.055266 0.948838 0.435407
H14   H     H_    0.712660 0.488775 0.246131 0.205373
H15   H     H_    0.801089 0.478369 0.133193 0.298919
H16   H     H_    0.626558 0.275239 0.200903 0.258433
H17   H     H_    0.727718 0.267817 0.106282 0.278504
H18   H     H_    0.818415 0.661818 0.744060 0.371285
H19   H     H_    0.861458 0.380841 0.742680 0.378103
H20   H     H_    0.036771 0.123952 0.413589 0.361279
H21   H     H_    0.217885 0.910949 0.628446 0.423496
H22   H     H_    0.333002 0.132321 0.399333 0.194302
H23   H     H_    0.333481 0.880419 0.401691 0.241295
H24   H     H_    0.549950 0.837215 0.081855 0.326132
H25   H     H_    0.598518 0.727783 0.184227 0.271045
H26   H     H_    0.344243 0.185379 0.098132 0.328111
H27   H     H_    0.376065 0.254824 0.217038 0.261896
H28   H     H_    0.723185 0.885763 0.682110 0.289881
N1    N     N_R   0.500030 0.852070 0.500030 -0.207291
N2    N     N_3   0.636968 0.298049 0.111255 -0.506741
N3    N     N_R   0.500030 0.147930 0.500030 -0.214389
N4    N     N_3   0.562712 0.733087 0.096631 -0.490056
N5    N     N_3   0.403752 0.258980 0.129775 -0.469345
N6    N     N_3   0.702334 0.850870 0.595957 -0.515004
N7    N     N_3   0.708580 0.136749 0.579287 -0.514876
N8    N     N_3   0.310246 0.659894 0.879104 -0.546339
N9    N     N_3   0.279342 0.410614 0.854001 -0.628266
N10   N     N_3   0.715150 0.514727 0.155428 -0.568850
O1    O     O_R   0.319660 0.618740 0.499990 -0.428579
O2    O     O_2   0.376256 0.878619 0.188249 -0.316193
O3    O     O_3   0.203866 0.796326 0.050245 -0.453743
O4    O     O_2   0.140783 0.540127 0.070225 -0.180078
O5    O     O_2   0.145571 0.296157 0.071361 -0.256505
O6    O     O_3   0.215378 0.414898 0.262506 -0.515172
O7    O     O_2   0.608856 0.851596 0.866028 -0.215673
O8    O     O_2   0.430080 0.840877 0.731723 -0.223935
O9    O     O_3   0.396147 0.913691 0.938473 -0.424485
O10   O     O_2   0.296179 0.141192 0.898645 -0.228925
O11   O     O_2   0.454038 0.163918 0.763357 -0.155920
O12   O     O_R   0.319660 0.381260 0.499990 -0.459004
O13   O     O_3   0.518171 0.122533 0.989264 -0.441953
O14   O     O_2   0.755722 0.723636 0.998486 -0.185679
O15   O     O_2   0.879744 0.546278 0.932311 -0.212593
O16   O     O_3   0.734931 0.659068 0.773379 -0.451501
O17   O     O_2   0.839910 0.294295 0.944473 -0.237562
O18   O     O_2   0.665958 0.204603 0.839989 -0.227507
O19   O     O_3   0.771476 0.391655 0.737709 -0.488278
O20   O     O_2   0.244650 0.206774 0.635478 -0.208013
O21   O     O_2   0.035510 0.144448 0.655557 -0.228635
O22   O     O_3   0.122452 0.122336 0.446312 -0.498032
O23   O     O_R   0.499990 0.618790 0.317690 -0.495402
O24   O     O_2   0.128258 0.840083 0.383897 -0.239355
O25   O     O_2   0.000053 0.882785 0.550451 -0.292124
O26   O     O_3   0.222143 0.814196 0.605323 -0.482922
O27   O     O_R   0.499990 0.381210 0.317690 -0.553681
O28   O     O_R   0.680370 0.618830 0.500010 -0.488377
O29   O     O_R   0.680370 0.381170 0.500010 -0.471651
O30   O     O_R   0.500030 0.618780 0.682310 -0.406659
O31   O     O_R   0.500030 0.381220 0.682310 -0.410463
O32   O     O_2   0.278743 0.671803 0.243321 -0.187313
S1    S     S_3+6 0.326338 0.748415 0.139541 0.078963
S2    S     S_3+6 0.215834 0.418157 0.112274 0.027021
S3    S     S_3+6 0.479077 0.810852 0.857302 0.098926
S4    S     S_3+6 0.419864 0.200552 0.887010 0.122320
S5    S     S_3+6 0.751775 0.604897 0.916369 0.116229
S6    S     S_3+6 0.725931 0.333085 0.869331 0.102723
S7    S     S_3+6 0.120715 0.211580 0.573211 0.018957
S8    S     S_3+6 0.102286 0.794447 0.508487 0.047814

loop_
_geom_bond_atom_site_label_1
_geom_bond_atom_site_label_2
_ccdc_geom_bond_type
C1    C21   S    
C16   C21   A    
C19   C20   A    
C17   S8    S    
Cu2   O27   S    
C8    N4    S    
O10   S4    D    
Cu2   N3    S    
O9    S3    S    
O6    S2    S    
C11   S4    S    
C1    O12   A    
C19   H12   S    
C6    O29   A    
C12   S5    S    
C11   C15   S    
C13   N10   S    
C2    C22   A    
Cu1   Cu2   S    
H27   N5    S    
C9    N5    S    
O8    S3    D    
C5    O23   A    
Cu1   O1    S    
H13   O13   S    
H11   O9    S    
C13   C14   S    
O18   S6    D    
O22   S7    S    
C8    S1    S    
C1    O1    A    
Cu1   N1    S    
O11   S4    D    
C7    O31   A    
O17   S6    D    
H21   O26   S    
H20   O22   S    
C6    O28   A    
O13   S4    S    
C17   C21   A    
O14   S5    D    
H7    N8    S    
C10   S3    S    
C10   N8    S    
C9    C14   S    
O25   S8    D    
C9    C11   S    
C12   C15   S    
Cu1   O28   S    
C16   C18   A    
H2    N6    S    
C9    S2    S    
C5    C14   S    
H28   N6    S    
H5    O3    S    
H9    N9    S    
C22   H22   S    
H18   O16   S    
H16   N2    S    
C4    N3    A    
O5    S2    D    
H19   O19   S    
H8    N8    S    
C3    C4    A    
O24   S8    D    
Cu2   O29   S    
O4    S2    D    
C13   N2    S    
H4    N7    S    
H24   N4    S    
H15   N10   S    
C8    C14   S    
O21   S7    D    
H26   N5    S    
O2    S1    D    
C11   N9    S    
C2    N1    A    
O26   S8    S    
C22   N3    A    
O19   S6    S    
C2    H23   S    
H25   N4    S    
C6    C20   S    
C10   C15   S    
C18   H1    S    
Cu2   O31   S    
C3    N1    A    
Cu2   O12   S    
C7    O30   A    
C4    N7    S    
C7    C15   S    
C17   C19   A    
O20   S7    D    
O15   S5    D    
C18   C20   A    
H10   N9    S    
O32   S1    D    
H6    O6    S    
H17   N2    S    
C12   S6    S    
C3    N6    S    
C16   S7    S    
O3    S1    S    
C12   C13   S    
C8    C10   S    
Cu1   O23   S    
O16   S5    S    
Cu1   O30   S    
H3    N7    S    
C5    O27   A    
H14   N10   S    
O7    S3    D    
