data_mof_unit_38057.cif
_audit_creation_date              2013-03-05T15:41:44-0500
_audit_creation_method            fapswitch 2.2
_symmetry_space_group_name_H-M    P1
_symmetry_Int_Tables_number       1
_space_group_crystal_system       triclinic
_cell_length_a                    11.201574
_cell_length_b                    12.757424
_cell_length_c                    24.427485
_cell_angle_alpha                 91.290316
_cell_angle_beta                  97.069321
_cell_angle_gamma                 69.22507
_cell_volume                      3238.14843082

loop_
_atom_site_label
_atom_site_type_symbol
_atom_site_description
_atom_site_fract_x
_atom_site_fract_y
_atom_site_fract_z
_atom_type_partial_charge
O1    O     O_R   0.196340 0.303200 0.448500 -0.469127
O2    O     O_R   0.199310 0.519670 0.454880 -0.493874
C1    C     C_R   0.140013 0.611315 0.425784 0.553839
O3    O     O_R   0.045660 0.691380 0.441680 -0.465532
O4    O     O_R   0.811930 0.659460 0.430950 -0.479951
C2    C     C_R   0.766145 0.594830 0.402170 0.572775
O5    O     O_R   0.757900 0.507620 0.421760 -0.477185
O6    O     O_R   0.988630 0.322990 0.439840 -0.489477
C3    C     C_R   0.095533 0.297212 0.419779 0.556886
O7    O     O_R   0.196380 0.301720 0.573850 -0.464409
O8    O     O_R   0.199350 0.518300 0.571080 -0.456569
C4    C     C_R   0.137053 0.611967 0.593646 0.547319
O9    O     O_R   0.045700 0.689900 0.567030 -0.570217
O10   O     O_R   0.811960 0.658090 0.547150 -0.504680
C5    C     C_R   0.766441 0.593448 0.570444 0.554408
O11   O     O_R   0.757930 0.506140 0.547110 -0.488112
O12   O     O_R   0.988670 0.321620 0.556040 -0.514248
C6    C     C_R   0.096408 0.294888 0.587987 0.564008
Cr1   Cr    Cr6+3 0.189770 0.415650 0.511620 1.121884
Cr2   Cr    Cr6+3 0.930400 0.667320 0.496770 1.075995
Cr3   Cr    Cr6+3 0.879870 0.417010 0.491650 1.092370
O13   O     O_3   0.000020 0.499990 0.500010 -0.318089
C7    C     C_R   0.623828 0.761338 0.142213 -0.024081
C8    C     C_R   0.726696 0.617277 0.342726 -0.013329
C9    C     C_R   0.650541 0.552356 0.256119 -0.010180
C10   C     C_R   0.692135 0.534792 0.311397 0.017918
C11   C     C_R   0.730233 0.714504 0.316313 0.085220
C12   C     C_R   0.695319 0.732074 0.257812 0.024264
C13   C     C_R   0.654767 0.650165 0.227487 -0.044491
C14   C     C_R   0.619674 0.665269 0.169754 0.000544
C15   C     C_R   0.656455 0.841780 0.171463 -0.148677
C16   C     C_R   0.693381 0.829615 0.228213 0.108987
H1    H     H_    0.652916 0.915711 0.149372 0.165368
C17   C     C_1   0.261410 0.132388 0.129185 0.050838
C18   C     C_2   0.239185 0.187771 0.235244 0.022360
C19   C     C_2   0.126034 0.203771 0.257725 0.024806
C20   C     C_1   0.111396 0.234950 0.315524 -0.007558
C21   C     C_1   0.252930 0.156881 0.177336 -0.003816
C22   C     C_1   0.102360 0.259817 0.363590 0.056756
C23   C     C_1   0.178170 0.774705 0.128774 0.066465
C24   C     C_2   0.136327 0.747657 0.234522 0.021038
C25   C     C_2   0.209528 0.656055 0.267805 0.013617
C26   C     C_1   0.188531 0.639743 0.324536 -0.002117
C27   C     C_1   0.159001 0.762176 0.176239 0.006588
C28   C     C_1   0.171479 0.623923 0.371324 0.054076
C29   C     C_1   0.595074 0.770437 0.859730 0.057273
C30   C     C_2   0.658163 0.735332 0.757082 -0.088154
C31   C     C_2   0.659922 0.643097 0.728026 0.008695
C32   C     C_1   0.698100 0.628945 0.671925 -0.055673
C33   C     C_1   0.622610 0.756699 0.813017 0.037952
C34   C     C_1   0.727206 0.615930 0.625073 0.019471
H2    H     H_    0.687080 0.796950 0.738047 0.136750
C35   C     C_R   0.240547 0.143004 0.847553 -0.008171
C36   C     C_R   0.106229 0.260205 0.645095 -0.010017
C37   C     C_R   0.004640 0.218606 0.716485 0.010869
C38   C     C_R   0.998945 0.252086 0.662838 -0.153316
C39   C     C_R   0.219827 0.239942 0.682584 0.089388
C40   C     C_R   0.225503 0.212046 0.738237 0.022194
C41   C     C_R   0.116547 0.197453 0.756067 0.016493
C42   C     C_R   0.125683 0.163399 0.812039 -0.026895
C43   C     C_R   0.349194 0.157263 0.828625 -0.110290
C44   C     C_R   0.340433 0.193343 0.775106 -0.109245
H3    H     H_    0.442215 0.142312 0.854798 0.173936
H4    H     H_    0.427666 0.206217 0.764817 0.173299
H5    H     H_    0.911815 0.264637 0.633690 0.176697
C45   C     C_R   0.148222 0.763453 0.848364 0.015357
C46   C     C_R   0.163318 0.630791 0.651990 -0.011467
C47   C     C_R   0.289013 0.556291 0.740477 -0.089424
C48   C     C_R   0.269883 0.552271 0.683705 0.056080
C49   C     C_R   0.077875 0.724511 0.677509 -0.015790
C50   C     C_R   0.107078 0.731699 0.735463 0.017256
C51   C     C_R   0.210454 0.649453 0.767698 0.014792
C52   C     C_R   0.232825 0.664685 0.825290 0.076852
C53   C     C_R   0.046767 0.844813 0.816041 -0.055664
C54   C     C_R   0.031728 0.823206 0.761598 -0.159270
H6    H     H_    0.373324 0.490570 0.762924 0.188753
H7    H     H_    0.952938 0.883272 0.741334 0.189527
O14   O     O_R   0.113660 0.883270 0.047820 -0.504034
O15   O     O_R   0.186930 0.068530 0.043990 -0.473452
C55   C     C_R   0.274755 0.096565 0.072997 0.556264
O16   O     O_R   0.377770 0.089040 0.054220 -0.502017
O17   O     O_R   0.562800 0.872960 0.056970 -0.511912
C56   C     C_R   0.582777 0.779989 0.083585 0.549257
O18   O     O_R   0.555390 0.700940 0.062700 -0.458477
O19   O     O_R   0.295020 0.731920 0.049950 -0.442781
C57   C     C_R   0.198283 0.797390 0.072964 0.547577
O20   O     O_R   0.094290 0.884230 0.921550 -0.450796
O21   O     O_R   0.168980 0.069410 0.926940 -0.533084
C58   C     C_R   0.252097 0.100454 0.904531 0.534617
O22   O     O_R   0.358400 0.089990 0.927950 -0.512571
O23   O     O_R   0.544850 0.873850 0.939920 -0.507404
C59   C     C_R   0.556385 0.782852 0.914405 0.551607
O24   O     O_R   0.536020 0.701900 0.936430 -0.456394
O25   O     O_R   0.277070 0.732810 0.932890 -0.490351
C60   C     C_R   0.171120 0.791663 0.905777 0.562588
Cr4   Cr    Cr6+3 0.149500 0.973980 0.985330 1.102356
Cr5   Cr    Cr6+3 0.457000 0.976510 0.994660 1.067087
Cr6   Cr    Cr6+3 0.411170 0.724270 0.995270 1.141098
O26   O     O_3   0.339220 0.891590 0.991750 -0.317306
C61   C     C_2   0.575528 0.574595 0.143778 0.286244
H8    H     H_    0.596641 0.507723 0.111939 0.340763
O27   O     O_2   0.528551 0.551056 0.100090 -0.592683
C62   C     C_2   0.027805 0.838731 0.253427 0.242750
H9    H     H_    0.973111 0.907822 0.225603 0.146232
O28   O     O_2   0.998445 0.838446 0.299876 -0.449672
C63   C     C_2   0.621204 0.555270 0.751074 0.287465
H10   H     H_    0.623470 0.483523 0.727265 0.185425
O29   O     O_2   0.587084 0.560938 0.797055 -0.468120
C64   C     C_2   0.015519 0.154841 0.837622 0.185894
H11   H     H_    0.013249 0.114313 0.872080 0.242602
O30   O     O_2   0.904530 0.207326 0.823462 -0.468700
C65   C     C_2   0.891175 0.192884 0.723431 0.336296
H12   H     H_    0.903681 0.107109 0.729557 0.112075
O31   O     O_2   0.784442 0.267102 0.720366 -0.443505
I1    I     I_    0.398360 0.198364 0.652654 -0.233996
I2    I     I_    0.389389 0.533604 0.873102 -0.195066
C66   C     C_2   0.943051 0.954914 0.830167 0.225403
H13   H     H_    0.881339 0.006896 0.796622 0.132187
O32   O     O_2   0.911748 0.990194 0.874433 -0.455677
I3    I     I_    0.434395 0.453921 0.647760 -0.264185
C67   C     C_2   0.961036 0.816160 0.643600 0.211396
H14   H     H_    0.929416 0.821470 0.602214 0.225331
O33   O     O_2   0.883904 0.901567 0.660147 -0.560668
C68   C     C_2   0.630837 0.450509 0.230629 0.220080
H15   H     H_    0.706994 0.373608 0.230112 0.137205
O34   O     O_2   0.530552 0.443790 0.206718 -0.441962
I4    I     I_    0.723302 0.980913 0.252011 -0.299999
I5    I     I_    0.690674 0.375484 0.346687 -0.271629
I6    I     I_    0.779993 0.837635 0.367181 -0.119752
C69   C     C_2   0.010126 0.189119 0.225391 0.216434
H16   H     H_    0.924114 0.202138 0.244929 0.131055
O35   O     O_2   0.008358 0.162935 0.176818 -0.493806
C70   C     C_2   0.355222 0.202861 0.267384 0.250371
H17   H     H_    0.441381 0.190026 0.247825 0.156939
O36   O     O_2   0.357114 0.229305 0.315922 -0.468643
C71   C     C_2   0.317585 0.567919 0.247615 0.259489
H18   H     H_    0.381449 0.495215 0.273342 0.168735
O37   O     O_2   0.335551 0.577694 0.199968 -0.425044

loop_
_geom_bond_atom_site_label_1
_geom_bond_atom_site_label_2
_geom_bond_distance
_ccdc_geom_bond_type
C40   C44   1.425412 A    
C37   C38   1.374463 A    
O21   Cr4   1.976721 S    
O11   Cr3   2.068408 S    
C37   C41   1.432647 A    
C37   C65   1.450284 S    
C24   C25   1.377657 D    
C18   C19   1.390125 D    
C8    C11   1.426022 A    
C18   C70   1.504148 S    
C65   O31   1.228668 D    
C39   I1    2.098851 S    
O4    Cr2   1.979435 S    
O19   C57   1.294064 A    
C4    O9    1.265680 A    
O8    Cr1   1.952368 S    
C52   I2    2.177045 S    
C7    C56   1.447308 S    
C16   I4    2.129852 S    
C19   C20   1.471036 S    
C8    C10   1.422200 A    
C66   O32   1.205908 D    
O4    C2    1.273660 A    
C55   O16   1.265259 A    
C29   C59   1.442528 S    
C63   H10   1.067658 S    
O25   Cr6   1.979439 S    
C38   H5    1.099265 S    
C45   C53   1.404118 A    
Cr4   O26   1.996618 S    
C14   C61   1.510228 S    
C3    C22   1.444930 S    
C25   C71   1.459144 S    
C23   C57   1.460389 S    
C43   H3    1.109685 S    
C61   H8    1.122898 S    
C44   H4    1.105042 S    
C42   C64   1.487855 S    
C17   C55   1.445267 S    
C35   C43   1.423846 A    
C31   C63   1.481119 S    
C56   O18   1.236600 A    
O14   Cr4   2.095340 S    
C47   C48   1.379562 A    
C32   C34   1.220091 T    
O20   C60   1.274297 A    
C15   H1    1.083256 S    
C49   C50   1.421624 A    
O19   Cr6   1.954015 S    
C5    C34   1.447021 S    
O22   Cr5   2.121353 S    
O14   C57   1.275303 A    
C41   C42   1.424564 A    
Cr3   O13   1.976625 S    
C43   C44   1.376253 A    
C65   H12   1.064384 S    
Cr5   O26   1.976540 S    
C35   C42   1.404897 A    
O6    Cr3   1.949135 S    
C30   C33   1.462868 S    
C9    C13   1.462091 A    
C4    C46   1.451527 S    
C36   C38   1.364294 A    
O1    Cr1   2.072238 S    
C53   C54   1.354345 A    
C7    C14   1.429044 A    
O10   Cr2   1.951352 S    
C12   C16   1.445396 A    
Cr1   O13   1.999722 S    
O1    C3    1.279414 A    
C71   O37   1.221757 D    
O23   C59   1.278155 A    
O6    C3    1.280653 A    
C40   C41   1.417602 A    
O5    Cr3   2.124128 S    
C45   C52   1.433836 A    
C1    C28   1.443998 S    
O12   Cr3   2.000616 S    
C24   C62   1.467304 S    
C46   C48   1.409823 A    
C7    C15   1.366017 A    
C69   O35   1.225110 D    
C13   C14   1.415121 A    
C19   C69   1.502524 S    
C54   H7    1.020275 S    
C30   C31   1.355768 D    
O7    Cr1   2.103387 S    
C47   C51   1.412635 A    
C2    C8    1.468608 S    
O20   Cr4   2.074990 S    
C18   C21   1.471537 S    
C61   O27   1.210538 D    
O12   C6    1.292275 A    
C62   O28   1.220006 D    
C10   I5    2.231554 S    
O23   Cr5   1.949966 S    
C26   C28   1.214459 T    
C67   H14   1.024687 S    
C2    O5    1.258212 A    
C31   C32   1.473697 S    
Cr2   O13   1.995701 S    
Cr6   O26   1.996033 S    
C35   C58   1.479351 S    
C70   H17   1.088299 S    
C11   I6    2.164462 S    
O17   Cr5   2.000572 S    
C25   C26   1.465255 S    
C1    O3    1.276110 A    
C11   C12   1.435275 A    
C45   C60   1.454775 S    
C68   O34   1.230834 D    
C53   C66   1.536536 S    
C12   C13   1.437365 A    
O9    Cr2   2.095879 S    
O2    Cr1   1.978218 S    
C17   C21   1.216557 T    
C15   C16   1.392816 A    
C51   C52   1.419560 A    
O8    C4    1.300847 A    
C30   H2    1.083157 S    
C47   H6    1.107737 S    
C29   C33   1.211278 T    
C48   I3    2.109394 S    
C46   C49   1.426753 A    
O18   Cr6   2.106538 S    
C64   O30   1.194863 D    
O2    C1    1.297535 A    
C9    C10   1.369443 A    
O15   Cr4   1.953725 S    
C20   C22   1.216211 T    
C66   H13   1.071873 S    
C50   C54   1.372173 A    
C49   C67   1.567579 S    
C39   C40   1.401172 A    
C63   O29   1.222813 D    
O7    C6    1.243652 A    
C24   C27   1.503336 S    
C59   O24   1.276879 A    
O16   Cr5   2.070082 S    
C69   H16   1.086162 S    
O25   C60   1.267945 A    
C9    C68   1.502593 S    
C67   O33   1.222853 D    
C6    C36   1.452374 S    
O15   C55   1.290126 A    
O3    Cr2   2.073513 S    
C23   C27   1.228801 T    
C50   C51   1.418699 A    
O21   C58   1.311529 A    
O17   C56   1.300058 A    
C62   H9    1.074998 S    
C70   O36   1.225117 D    
O10   C5    1.286341 A    
C71   H18   1.100854 S    
C58   O22   1.219011 A    
C64   H11   1.005317 S    
O24   Cr6   2.072758 S    
C5    O11   1.268041 A    
C68   H15   1.048218 S    
C36   C39   1.419555 A    
