data_mof_unit_49162.cif
_audit_creation_date              2012-12-10T16:32:42-0500
_audit_creation_method            fapswitch 2.2
_symmetry_space_group_name_H-M    P1
_symmetry_Int_Tables_number       1
_space_group_crystal_system       triclinic
_cell_length_a                    17.062795
_cell_length_b                    17.07949
_cell_length_c                    17.075838
_cell_angle_alpha                 65.490723
_cell_angle_beta                  65.538672
_cell_angle_gamma                 66.345069
_cell_volume                      3960.16928227

loop_
_atom_site_label
_atom_site_type_symbol
_atom_type_description
_atom_site_fract_x
_atom_site_fract_y
_atom_site_fract_z
_atom_type_partial_charge
C1    C     C_R   0.585355 0.052060 0.586637 -0.186016
C2    C     C_R   0.822194 0.564725 0.031925 0.876210
C3    C     C_3   0.864926 0.541268 0.753716 0.099711
C4    C     C_3   0.822098 0.620355 0.792270 -0.384345
C5    C     C_3   0.721504 0.645649 0.814735 -0.995829
C6    C     C_2   0.749220 0.939462 0.754923 0.525110
C7    C     C_2   0.295141 0.877400 0.292354 0.505386
C8    C     C_2   0.122055 0.704118 0.707175 0.504398
C9    C     C_2   0.061498 0.250923 0.245423 0.513685
C10   C     C_2   0.761263 0.752796 0.949737 0.556446
C11   C     C_2   0.245904 0.238320 0.047834 0.562887
C12   C     C_R   0.433010 0.971567 0.177972 0.911268
C13   C     C_R   0.564705 0.032694 0.822109 0.896314
C14   C     C_R   0.569148 0.825038 0.019435 0.900927
C15   C     C_R   0.434857 0.177772 0.969258 0.878569
C16   C     C_R   0.028033 0.567026 0.822111 0.910721
C17   C     C_R   0.967530 0.435156 0.177775 0.888366
C18   C     C_R   0.823908 0.022306 0.568067 0.922258
C19   C     C_R   0.178384 0.961732 0.438113 0.879917
C20   C     C_R   0.529086 0.048623 0.538852 0.153328
C21   C     C_R   0.399711 0.978589 0.409826 -0.162312
C22   C     C_R   0.444398 0.000725 0.456607 0.167289
C23   C     C_R   0.995073 0.556647 0.544261 0.171495
C24   C     C_R   0.945278 0.472557 0.462695 0.172702
C25   C     C_R   0.542357 0.534923 0.033766 0.155993
C26   C     C_R   0.460629 0.452233 0.984462 0.144166
C27   C     C_R   0.563873 0.051803 0.447555 -0.206298
C28   C     C_R   0.401087 0.013695 0.542860 -0.176542
C29   C     C_R   0.982689 0.470073 0.586868 -0.227184
C30   C     C_R   0.960444 0.558024 0.417214 -0.213007
C31   C     C_R   0.454274 0.572200 0.028804 -0.220486
C32   C     C_R   0.018195 0.600738 0.590961 -0.160258
C33   C     C_R   0.542859 0.405600 0.004926 -0.214036
C34   C     C_R   0.530026 0.015583 0.412793 -0.220861
C35   C     C_R   0.445178 0.030247 0.585485 -0.223253
C36   C     C_R   0.424739 0.541414 0.985712 -0.221511
C37   C     C_R   0.587040 0.449712 0.019899 -0.188211
C38   C     C_R   0.944680 0.436799 0.553324 -0.213175
C39   C     C_R   0.978180 0.601485 0.459704 -0.182703
C40   C     C_R   0.546786 0.071329 0.670770 0.405751
C41   C     C_R   0.429542 0.995200 0.314424 0.401677
C42   C     C_R   0.050846 0.677736 0.543597 0.396197
C43   C     C_R   0.944390 0.415347 0.414162 -0.173760
C44   C     C_R   0.971562 0.319615 0.446010 0.403104
C45   C     C_R   0.671177 0.549969 0.062950 0.384765
C46   C     C_R   0.312137 0.438904 0.993262 0.417756
C47   C     C_R   0.323130 0.945212 0.457116 0.397797
C48   C     C_R   0.680989 0.025893 0.554788 0.409954
C49   C     C_R   0.449132 0.326554 0.947437 0.410756
C50   C     C_R   0.558854 0.685495 0.014804 0.415065
C51   C     C_R   0.927245 0.452984 0.329168 0.401904
C52   C     C_R   0.003311 0.569942 0.686198 0.400622
C53   C     C_R   0.601865 0.040506 0.727615 -0.206744
C54   C     C_R   0.589400 0.589932 0.040136 -0.172388
C55   C     C_R   0.396042 0.961954 0.274162 -0.220701
C56   C     C_R   0.057520 0.723886 0.592543 -0.265728
C57   C     C_R   0.976172 0.269505 0.394901 -0.239485
C58   C     C_R   0.728611 0.603629 0.036478 -0.194340
C59   C     C_R   0.265309 0.390755 0.986884 -0.236595
C60   C     C_R   0.276305 0.940165 0.407914 -0.267130
C61   C     C_R   0.730623 0.023336 0.605260 -0.239438
C62   C     C_R   0.395703 0.270742 0.967475 -0.200720
C63   C     C_R   0.608351 0.733668 0.016722 -0.242336
C64   C     C_R   0.959229 0.397950 0.272281 -0.205247
C65   C     C_R   0.407473 0.407015 0.972647 -0.173647
C66   C     C_R   0.036577 0.603968 0.726106 -0.219640
C67   C     C_R   0.693695 0.008633 0.695725 -0.207857
C68   C     C_R   0.321812 0.929212 0.323694 -0.186204
C69   C     C_R   0.069139 0.678149 0.676428 -0.185868
C70   C     C_R   0.991706 0.306315 0.304324 -0.205848
C71   C     C_R   0.698165 0.696225 0.007232 -0.221158
C72   C     C_R   0.303014 0.301379 0.994409 -0.227333
C73   C     C_3   0.427789 0.196977 0.649997 0.090867
C74   C     C_3   0.438984 0.262685 0.681262 -0.356834
C75   C     C_3   0.402193 0.359527 0.629101 -0.977690
C76   C     C_R   0.977541 0.176135 0.431964 0.923327
C77   C     C_3   0.449971 0.136700 0.250160 0.100384
C78   C     C_3   0.369417 0.176179 0.213791 -0.384546
C79   C     C_3   0.336464 0.276126 0.197573 -0.999469
C80   C     C_3   0.170617 0.686605 0.417647 0.119796
C81   C     C_3   0.201121 0.714087 0.314545 -0.292898
C82   C     C_3   0.182230 0.657631 0.278446 -0.851348
C83   C     C_3   0.085548 0.274043 0.507856 0.075528
C84   C     C_3   0.156478 0.199230 0.469330 -0.332689
C85   C     C_3   0.249279 0.198215 0.460458 -0.983596
C86   C     C_3   0.648084 0.441154 0.197032 0.078129
C87   C     C_R   0.037499 0.821601 0.562194 0.878075
C88   C     C_3   0.682546 0.342599 0.247197 -0.320693
C89   C     C_3   0.666906 0.280091 0.215450 -0.792706
C90   C     C_3   0.251191 0.504424 0.108143 0.056806
C91   C     C_3   0.163447 0.481358 0.169576 -0.274926
C92   C     C_3   0.154765 0.458378 0.268673 -0.993191
C93   C     C_3   0.316156 0.822790 0.580424 0.119856
C94   C     C_3   0.291914 0.789052 0.683368 -0.295752
C95   C     C_3   0.349871 0.806850 0.718634 -0.849545
C96   C     C_3   0.726101 0.910058 0.495916 0.079423
C97   C     C_3   0.799740 0.839486 0.536594 -0.336040
C98   C     C_R   0.174640 0.430605 0.981583 0.902878
C99   C     C_3   0.795950 0.746373 0.552945 -0.981940
C100  C     C_3   0.572917 0.352825 0.826222 0.088769
C101  C     C_3   0.568028 0.324413 0.754850 -0.361290
C102  C     C_3   0.609571 0.379067 0.659761 -0.967711
C103  C     C_3   0.495012 0.743998 0.899044 0.058188
C104  C     C_3   0.520711 0.830381 0.836302 -0.284381
C105  C     C_3   0.542244 0.838692 0.737687 -0.994125
C106  C     C_3   0.793716 0.562633 0.332873 0.064711
C107  C     C_3   0.753253 0.590843 0.257027 -0.283754
C108  C     C_3   0.651147 0.622931 0.289104 -1.004292
H1    H     H_    0.412529 0.026981 0.655490 0.199258
H2    H     H_    0.408880 0.629190 0.051491 0.200527
H3    H     H_    0.130953 0.235429 0.241127 -0.027429
H4    H     H_    0.794359 0.754327 0.879933 0.016261
H5    H     H_    0.241122 0.204508 0.118306 0.020405
H6    H     H_    0.961042 0.592318 0.348045 0.202200
H7    H     H_    0.999753 0.426683 0.647871 0.203779
H8    H     H_    0.355587 0.211926 0.658485 0.170364
H9    H     H_    0.462937 0.207408 0.576559 0.129031
H10   H     H_    0.403244 0.252273 0.754439 0.243060
H11   H     H_    0.511341 0.249592 0.670379 0.209472
H12   H     H_    0.438642 0.371713 0.555986 0.259120
H13   H     H_    0.410972 0.405727 0.653282 0.268302
H14   H     H_    0.329610 0.374232 0.639451 0.269266
H15   H     H_    0.572400 0.001356 0.350273 0.203548
H16   H     H_    0.501772 0.172106 0.202335 0.175628
H17   H     H_    0.430728 0.150071 0.314781 0.140014
H18   H     H_    0.389309 0.161423 0.149830 0.224038
H19   H     H_    0.313326 0.147182 0.262871 0.208468
H20   H     H_    0.315554 0.291449 0.261398 0.274851
H21   H     H_    0.278498 0.303144 0.171468 0.260162
H22   H     H_    0.390868 0.307011 0.148157 0.270141
H23   H     H_    0.196380 0.723444 0.438051 0.073752
H24   H     H_    0.201107 0.613286 0.444051 0.118232
H25   H     H_    0.167047 0.785843 0.287486 0.260164
H26   H     H_    0.978164 0.670280 0.424462 0.207085
H27   H     H_    0.274534 0.705246 0.289909 0.167100
H28   H     H_    0.214099 0.585485 0.306723 0.245116
H29   H     H_    0.210531 0.676475 0.203902 0.241381
H30   H     H_    0.109055 0.669578 0.295707 0.274057
H31   H     H_    0.092172 0.263472 0.573836 0.169372
H32   H     H_    0.099429 0.339366 0.463417 0.143936
H33   H     H_    0.144256 0.133680 0.514786 0.266610
H34   H     H_    0.153762 0.209769 0.401684 0.195694
H35   H     H_    0.261782 0.264504 0.419071 0.258172
H36   H     H_    0.299364 0.147564 0.427178 0.272704
H37   H     H_    0.922366 0.378038 0.597442 0.199710
H38   H     H_    0.256269 0.180862 0.527973 0.267551
H39   H     H_    0.654892 0.482118 0.229126 0.103862
H40   H     H_    0.575756 0.456086 0.205303 0.137049
H41   H     H_    0.755342 0.326252 0.237305 0.240848
H42   H     H_    0.647085 0.331344 0.320486 0.162422
H43   H     H_    0.594639 0.296619 0.223152 0.232676
H44   H     H_    0.688805 0.209793 0.256661 0.240112
H45   H     H_    0.706241 0.285627 0.143764 0.277408
H46   H     H_    0.247463 0.568514 0.113553 0.158316
H47   H     H_    0.308707 0.454292 0.132069 0.150610
H48   H     H_    0.655459 0.415889 0.020368 0.200254
H49   H     H_    0.106850 0.539912 0.152841 0.255929
H50   H     H_    0.159317 0.423877 0.158353 0.184943
H51   H     H_    0.220432 0.426056 0.282347 0.255913
H52   H     H_    0.113119 0.411405 0.309853 0.263675
H53   H     H_    0.122632 0.519940 0.289622 0.275878
H54   H     H_    0.277825 0.798515 0.560250 0.073166
H55   H     H_    0.389230 0.793021 0.551692 0.116875
H56   H     H_    0.220305 0.821584 0.712959 0.261072
H57   H     H_    0.302001 0.715572 0.705914 0.165578
H58   H     H_    0.421961 0.778153 0.686630 0.245815
H59   H     H_    0.369668 0.587050 0.959744 0.199637
H60   H     H_    0.334582 0.774862 0.792669 0.240238
H61   H     H_    0.335527 0.879787 0.705006 0.272760
H62   H     H_    0.737450 0.901678 0.430557 0.167076
H63   H     H_    0.660237 0.897263 0.539996 0.147341
H64   H     H_    0.866234 0.848008 0.489756 0.263790
H65   H     H_    0.790721 0.846285 0.601936 0.196071
H66   H     H_    0.729202 0.737045 0.597778 0.260691
H67   H     H_    0.847120 0.696704 0.585757 0.271907
H68   H     H_    0.809396 0.735651 0.488198 0.269076
H69   H     H_    0.644141 0.345587 0.814901 0.170603
H70   H     H_    0.332948 0.011790 0.579316 0.207468
H71   H     H_    0.537087 0.425197 0.818038 0.128576
H72   H     H_    0.603749 0.252143 0.763533 0.243824
H73   H     H_    0.496668 0.334690 0.764179 0.209204
H74   H     H_    0.573326 0.451349 0.649181 0.258989
H75   H     H_    0.604976 0.356968 0.609530 0.268525
H76   H     H_    0.681341 0.369317 0.648738 0.271051
H77   H     H_    0.430822 0.748872 0.892799 0.158872
H78   H     H_    0.544187 0.685020 0.877163 0.151199
H79   H     H_    0.463719 0.888179 0.852493 0.259334
H80   H     H_    0.579739 0.832784 0.846385 0.182792
H81   H     H_    0.622196 0.075109 0.403681 0.195687
H82   H     H_    0.578850 0.773471 0.723752 0.257906
H83   H     H_    0.584805 0.884667 0.695086 0.266169
H84   H     H_    0.479572 0.865902 0.719075 0.275365
H85   H     H_    0.769581 0.619481 0.360568 0.164459
H86   H     H_    0.768835 0.506408 0.389308 0.118901
H87   H     H_    0.778987 0.645876 0.200462 0.264693
H88   H     H_    0.773929 0.533043 0.231723 0.190790
H89   H     H_    0.623619 0.568386 0.344391 0.254057
H90   H     H_    0.624365 0.643087 0.232244 0.268370
H91   H     H_    0.628937 0.681697 0.313434 0.271886
H92   H     H_    0.574843 0.336023 0.008372 0.198263
H93   H     H_    0.833459 0.486549 0.801557 0.176775
H94   H     H_    0.849445 0.560358 0.690245 0.140623
H95   H     H_    0.840334 0.601862 0.853953 0.227282
H96   H     H_    0.845620 0.679536 0.742487 0.206202
H97   H     H_    0.702409 0.660982 0.754316 0.268025
H98   H     H_    0.692430 0.705408 0.838202 0.263043
H99   H     H_    0.695583 0.589488 0.868193 0.271368
H100  H     H_    0.764650 0.869869 0.760032 -0.031477
H101  H     H_    0.319704 0.805050 0.313071 -0.026875
H102  H     H_    0.194324 0.678317 0.686863 -0.026405
O1    O     O_R   0.982940 0.138950 0.510160 -0.589367
O2    O     O_R   0.982940 0.510160 0.138950 -0.622239
O3    O     O_R   0.861050 0.017060 0.489840 -0.589050
O4    O     O_R   0.138950 0.982940 0.510160 -0.615293
O5    O     O_R   0.867700 0.025880 0.612340 -0.590118
O6    O     O_R   0.132300 0.974120 0.387660 -0.586375
O7    O     O_R   0.025880 0.612340 0.867700 -0.591204
O8    O     O_R   0.974120 0.387660 0.132300 -0.593461
O9    O     O_R   0.612340 0.867700 0.025880 -0.587716
O10   O     O_R   0.387660 0.132300 0.974120 -0.609600
O11   O     O_R   0.387660 0.974120 0.132300 -0.593801
O12   O     O_R   0.017060 0.861050 0.489840 -0.614462
O13   O     O_R   0.612340 0.025880 0.867700 -0.595467
O14   O     O_R   0.132300 0.387660 0.974120 -0.588113
O15   O     O_R   0.867700 0.612340 0.025880 -0.619031
O16   O     O_R   0.974120 0.132300 0.387660 -0.592140
O17   O     O_R   0.025880 0.867700 0.612340 -0.584796
O18   O     O_3   0.455457 0.108092 0.704158 -0.634698
O19   O     O_3   0.490311 0.044653 0.257706 -0.636183
O20   O     O_3   0.076002 0.708723 0.450422 -0.611641
O21   O     O_3   0.997435 0.273054 0.523830 -0.626858
O22   O     O_3   0.698832 0.459143 0.105078 -0.609917
O23   O     O_R   0.138950 0.510160 0.982940 -0.588227
O24   O     O_3   0.263104 0.517558 0.016730 -0.629713
O25   O     O_3   0.293351 0.917445 0.550318 -0.610869
O26   O     O_3   0.727860 0.998275 0.478035 -0.628417
O27   O     O_3   0.541424 0.296050 0.913452 -0.635777
O28   O     O_3   0.480587 0.733665 0.990361 -0.630057
O29   O     O_3   0.888136 0.543566 0.297172 -0.639815
O30   O     O_3   0.957967 0.505674 0.742777 -0.635830
O31   O     O_2   0.781786 0.960172 0.792640 -0.490156
O32   O     O_2   0.245836 0.914885 0.244412 -0.526528
O33   O     O_2   0.085510 0.753814 0.754559 -0.524943
O34   O     O_R   0.861050 0.489840 0.017060 -0.589345
O35   O     O_2   0.041434 0.218484 0.207078 -0.495521
O36   O     O_2   0.781978 0.790990 0.981814 -0.495623
O37   O     O_2   0.210668 0.218650 0.011802 -0.492814
O38   O     O_R   0.510160 0.982940 0.138950 -0.578052
O39   O     O_R   0.489840 0.017060 0.861050 -0.614853
O40   O     O_R   0.489840 0.861050 0.017060 -0.590921
O41   O     O_R   0.510160 0.138950 0.982940 -0.583611
O42   O     O_R   0.017060 0.489840 0.861050 -0.576647
Zn1   Zn    Zn3+2 0.004880 0.004880 0.583590 1.062172
Zn2   Zn    Zn3+2 0.995120 0.995120 0.416410 1.058835
Zn3   Zn    Zn3+2 0.004880 0.583590 0.004880 1.047313
Zn4   Zn    Zn3+2 0.995120 0.416410 0.995120 1.080896
Zn5   Zn    Zn3+2 0.583590 0.004880 0.004880 1.084505
Zn6   Zn    Zn3+2 0.416410 0.995120 0.995120 1.056267

loop_
_geom_bond_atom_site_label_1
_geom_bond_atom_site_label_2
_ccdc_geom_bond_type
C92   H53   S    
C25   C31   A    
C79   H20   S    
C9    H3    S    
C101  C102  S    
C80   H24   S    
C94   H56   S    
C46   C59   A    
C75   H14   S    
C73   C74   S    
C105  H83   S    
C104  C105  S    
C18   O5    A    
C103  H77   S    
O39   Zn6   S    
C17   O2    A    
C95   H60   S    
C85   H35   S    
C83   H31   S    
C55   C68   A    
C16   O42   A    
C77   H17   S    
C106  H86   S    
C77   C78   S    
C93   O25   S    
C74   H11   S    
C99   H66   S    
C8    C69   S    
C34   H15   S    
C97   H64   S    
C49   C65   A    
C92   H51   S    
C16   O7    A    
C102  H75   S    
C23   C29   A    
C57   C76   S    
C44   O21   S    
O1    Zn1   S    
C82   H29   S    
C17   C64   S    
C86   C88   S    
C58   C71   A    
C4    H96   S    
C66   C69   A    
C2    O34   A    
C106  C107  S    
C93   H55   S    
C24   C30   A    
C79   H21   S    
C94   H57   S    
O5    Zn1   S    
C90   O24   S    
C19   O6    A    
O7    Zn3   S    
C108  H89   S    
C53   C67   A    
O8    Zn4   S    
C107  H88   S    
C91   H50   S    
C1    C40   A    
C25   C37   A    
C7    C68   S    
C20   C35   A    
C15   C62   S    
C89   H44   S    
C41   C55   A    
C99   H68   S    
C28   C35   A    
C96   H63   S    
C98   O14   A    
C29   C38   A    
C24   C38   A    
C107  C108  S    
C6    O31   D    
C10   H4    S    
O9    Zn5   S    
C45   O22   S    
C64   C70   A    
C57   C70   A    
C90   H46   S    
C9    O35   D    
C6    H100  S    
C35   H1    S    
C3    O30   S    
O42   Zn4   S    
C42   C56   A    
C10   C71   S    
C47   C60   A    
C80   H23   S    
C22   C28   A    
C21   C22   S    
C86   H39   S    
O4    Zn1   S    
C108  H90   S    
C50   C63   A    
C26   C65   S    
C37   H48   S    
O3    Zn2   S    
C103  H78   S    
C13   O13   A    
C74   H10   S    
C78   H19   S    
C85   H36   S    
C107  H87   S    
C83   H32   S    
C97   C99   S    
C81   H27   S    
C106  H85   S    
C47   O25   S    
O12   Zn2   S    
C27   C34   A    
C22   C34   A    
C104  H80   S    
C45   C58   A    
C97   H65   S    
C74   C75   S    
C51   C64   A    
C76   O16   A    
C102  H74   S    
C87   O12   A    
C32   C52   A    
C50   O28   S    
C73   H9    S    
C84   C85   S    
C46   C65   A    
C49   O27   S    
C91   C92   S    
O13   Zn5   S    
C52   O30   S    
C11   C72   S    
C80   C81   S    
C56   C87   S    
C8    O33   D    
C12   O38   A    
C79   H22   S    
C88   H41   S    
C81   C82   S    
C29   H7    S    
C93   H54   S    
C9    C70   S    
C40   O18   S    
O10   Zn6   S    
C43   C44   A    
C13   C53   S    
C5    H99   S    
C61   C67   A    
C26   C33   A    
C89   H45   S    
C83   C84   S    
C84   H34   S    
C44   C57   A    
O15   Zn3   S    
C96   C97   S    
O17   Zn1   S    
C96   O26   S    
C62   C72   A    
C100  O27   S    
C18   C61   S    
C93   C94   S    
C50   C54   A    
C85   H38   S    
C95   H61   S    
C48   O26   S    
C25   C54   S    
C10   O36   D    
C42   O20   S    
C76   O1    A    
C26   C36   A    
C6    C67   S    
C15   O41   A    
C41   O19   S    
C45   C54   A    
C40   C53   A    
C87   O17   A    
C106  O29   S    
C5    H98   S    
C21   C41   A    
C14   O9    A    
C8    H102  S    
C18   O3    A    
C16   C66   S    
C7    H101  S    
C3    C4    S    
C78   H18   S    
C95   H58   S    
C46   O24   S    
C52   C66   A    
O14   Zn4   S    
C33   C37   A    
C30   H6    S    
C3    H94   S    
C104  H79   S    
C1    C20   S    
O6    Zn2   S    
C49   C62   A    
C75   H13   S    
C38   H37   S    
C88   H42   S    
C105  H82   S    
C75   H12   S    
C80   O20   S    
C4    C5    S    
C4    H95   S    
C86   H40   S    
C73   O18   S    
C2    C58   S    
C1    C48   A    
C81   H25   S    
C14   O40   A    
C20   C27   A    
C19   C60   S    
C96   H62   S    
C13   O39   A    
C59   C72   A    
C77   O19   S    
C33   H92   S    
C92   H52   S    
C19   O4    A    
C11   O37   D    
C23   C32   S    
C108  H91   S    
C15   O10   A    
C102  H76   S    
C82   H30   S    
C77   H16   S    
O41   Zn5   S    
C78   C79   S    
C43   C51   A    
C90   C91   S    
C98   O23   A    
C105  H84   S    
C84   H33   S    
O2    Zn3   S    
C103  O28   S    
C3    H93   S    
C14   C63   S    
C7    O32   D    
C100  C101  S    
C31   H2    S    
O40   Zn6   S    
C30   C39   A    
C73   H8    S    
C83   O21   S    
C36   H59   S    
C82   H28   S    
C94   C95   S    
C11   H5    S    
C101  H73   S    
C100  H69   S    
C12   O11   A    
C91   H49   S    
C12   C55   S    
O23   Zn3   S    
C5    H97   S    
O38   Zn5   S    
O16   Zn2   S    
C89   H43   S    
C99   H67   S    
C88   C89   S    
C60   C68   A    
C56   C69   A    
O34   Zn4   S    
C48   C61   A    
C103  C104  S    
C101  H72   S    
C59   C98   S    
C32   C42   A    
C31   C36   A    
C24   C43   S    
C51   O29   S    
C27   H81   S    
C90   H47   S    
C100  H71   S    
C28   H70   S    
C63   C71   A    
C23   C39   A    
C17   O8    A    
O11   Zn6   S    
C2    O15   A    
C86   O22   S    
C21   C47   A    
C39   H26   S    
