data_mof_unit_14807.cif
_audit_creation_date              2012-12-10T17:37:18-0500
_audit_creation_method            fapswitch 2.2
_symmetry_space_group_name_H-M    P1
_symmetry_Int_Tables_number       1
_space_group_crystal_system       triclinic
_cell_length_a                    12.32289
_cell_length_b                    13.116371
_cell_length_c                    15.831525
_cell_angle_alpha                 78.299415
_cell_angle_beta                  101.085499
_cell_angle_gamma                 116.080399
_cell_volume                      2235.04576832

loop_
_atom_site_label
_atom_site_type_symbol
_atom_type_description
_atom_site_fract_x
_atom_site_fract_y
_atom_site_fract_z
_atom_type_partial_charge
C1    C     C_R   0.855106 0.286628 0.505085 0.818892
C2    C     C_3   0.003899 0.506218 0.916894 0.196586
C3    C     C_3   0.071006 0.615352 0.018272 -0.160798
C4    C     C_3   0.007820 0.509161 0.082401 0.199740
C5    C     C_3   0.954666 0.576065 0.952473 -0.154414
C6    C     C_3   0.891532 0.469907 0.018152 -0.169328
C7    C     C_1   0.001471 0.504031 0.825121 -0.079633
C8    C     C_1   0.008698 0.509242 0.174294 -0.094943
C9    C     C_R   0.271445 0.038637 0.450123 -0.266200
C10   C     C_R   0.227752 0.836703 0.484386 -0.136614
C11   C     C_R   0.819762 0.083179 0.545528 -0.213636
C12   C     C_R   0.999634 0.500187 0.659983 0.817678
C13   C     C_R   0.742306 0.968538 0.563747 -0.153799
C14   C     C_R   0.617085 0.932842 0.545622 -0.151341
C15   C     C_R   0.566509 0.010759 0.502955 0.034169
C16   C     C_R   0.646635 0.125609 0.476367 -0.027103
C17   C     C_R   0.438851 0.979374 0.487072 0.065911
C18   C     C_R   0.395352 0.065161 0.456085 0.030950
C19   C     C_R   0.474560 0.174350 0.424002 -0.310320
C20   C     C_R   0.596047 0.198004 0.422235 0.443390
C21   C     C_R   0.353188 0.865632 0.499169 -0.310242
C22   C     C_R   0.185846 0.924217 0.461991 0.442230
C23   C     C_R   0.144943 0.713918 0.490483 0.813049
C24   C     C_R   0.773384 0.163705 0.505050 -0.086170
C25   C     C_R   0.347308 0.328404 0.636853 -0.299906
C26   C     C_R   0.756061 0.640994 0.381011 0.080073
C27   C     C_R   0.657846 0.670270 0.354221 -0.274944
C28   C     C_R   0.556127 0.617719 0.399299 -0.192425
C29   C     C_R   0.550543 0.533330 0.471492 -0.010974
C30   C     C_R   0.653437 0.505659 0.496291 0.302828
C31   C     C_R   0.446729 0.474621 0.519350 -0.042337
C32   C     C_R   0.447212 0.388172 0.589360 0.174738
C33   C     C_R   0.547524 0.361956 0.612015 -0.284372
C34   C     C_R   0.002221 0.502452 0.339901 0.835409
C35   C     C_R   0.648450 0.419921 0.567148 -0.179813
C36   C     C_R   0.341643 0.497471 0.501287 0.018546
C37   C     C_R   0.247165 0.354887 0.615734 0.071041
C38   C     C_3   0.057046 0.439309 0.046799 -0.158832
C39   C     C_3   0.940751 0.400076 0.981066 -0.163669
C40   C     C_1   0.000025 0.502117 0.749553 -0.175669
C41   C     C_1   0.006864 0.507049 0.250066 -0.195882
C42   C     C_3   0.120240 0.545476 0.981088 -0.157094
Cu1   Cu    Cu3+1 0.098270 0.475420 0.519690 0.931130
Cu2   Cu    Cu3+1 0.901730 0.524580 0.480310 0.966601
H1    H     H_    0.887191 0.311688 0.964493 0.125056
H2    H     H_    0.382689 0.797399 0.515965 0.171913
H3    H     H_    0.916057 0.109367 0.566584 0.155166
H4    H     H_    0.562717 0.844501 0.568140 0.127243
H5    H     H_    0.779330 0.907750 0.596334 0.146544
H6    H     H_    0.169796 0.309099 0.652185 0.122897
H7    H     H_    0.548495 0.296016 0.665643 0.151579
H8    H     H_    0.346888 0.261825 0.690215 0.136170
H9    H     H_    0.333716 0.562182 0.449632 0.122089
H10   H     H_    0.833616 0.680889 0.344811 0.118115
H11   H     H_    0.099128 0.383231 0.086913 0.125164
H12   H     H_    0.482774 0.643659 0.375583 0.134495
H13   H     H_    0.660279 0.733568 0.298027 0.147365
H14   H     H_    0.720319 0.393650 0.590498 0.198951
H15   H     H_    0.797412 0.438863 0.034083 0.129419
H16   H     H_    0.912496 0.632084 0.912390 0.129234
H17   H     H_    0.124486 0.703694 0.034948 0.124123
H18   H     H_    0.214089 0.576434 0.964458 0.128013
H19   H     H_    0.439766 0.236576 0.390443 0.158936
H20   H     H_    0.241279 0.107145 0.434294 0.143841
N1    N     N_R   0.246280 0.438200 0.549540 -0.179046
N2    N     N_R   0.754330 0.561180 0.450980 -0.193874
O1    O     O_R   0.972510 0.318130 0.524770 -0.597394
O2    O     O_R   0.806530 0.359650 0.491510 -0.557912
O3    O     O_R   0.082970 0.479240 0.637550 -0.576852
O4    O     O_R   0.916990 0.520750 0.604290 -0.596866
O5    O     O_R   0.193470 0.640350 0.508490 -0.600020
O6    O     O_R   0.027490 0.681870 0.475230 -0.545590
O7    O     O_R   0.083010 0.479250 0.395710 -0.583588
O8    O     O_R   0.917030 0.520760 0.362450 -0.572069
O9    O     O_3   0.660627 0.283221 0.360283 -0.561805
C43   C     C_3   0.613908 0.244768 0.277871 0.060406
H21   H     H_    0.517120 0.231583 0.259989 0.129905
H22   H     H_    0.620194 0.162538 0.277606 0.094794
C44   C     C_3   0.687254 0.332277 0.207809 -0.338040
H23   H     H_    0.783386 0.345183 0.224240 0.221289
H24   H     H_    0.653204 0.297569 0.144753 0.154179
C45   C     C_3   0.677245 0.446207 0.198076 -0.754592
H25   H     H_    0.581495 0.434050 0.177041 0.222701
H26   H     H_    0.734881 0.508463 0.148486 0.215070
H27   H     H_    0.708408 0.482191 0.260436 0.292269
O10   O     O_3   0.063846 0.898363 0.461408 -0.595846
C46   C     C_3   0.013845 0.935603 0.379286 0.043329
H28   H     H_    0.981383 0.867371 0.337124 0.135691
H29   H     H_    0.078869 0.015129 0.344305 0.118283
C47   C     C_3   0.906949 0.958122 0.392302 -0.293066
H30   H     H_    0.838193 0.878887 0.424458 0.233511
H31   H     H_    0.940465 0.025586 0.435375 0.224616
C48   C     C_3   0.847225 0.997863 0.306401 -0.950900
H32   H     H_    0.913067 0.080458 0.275659 0.255124
H33   H     H_    0.768362 0.010466 0.318486 0.262433
H34   H     H_    0.814638 0.932864 0.261335 0.245042

loop_
_geom_bond_atom_site_label_1
_geom_bond_atom_site_label_2
_ccdc_geom_bond_type
Cu1   O7    S    
C46   H28   S    
C3    C42   S    
C48   H32   S    
C9    H20   S    
Cu2   N2    S    
C19   C20   A    
C43   C44   S    
C4    C8    S    
C28   H12   S    
C10   C22   A    
C26   C27   A    
C30   C35   A    
C35   H14   S    
C28   C29   A    
C43   H22   S    
C38   C42   S    
C5    C6    S    
C9    C22   A    
C15   C16   A    
C11   C24   A    
C1    O2    A    
C18   C19   A    
C48   H33   S    
C23   O6    A    
O9    C43   S    
C36   H9    S    
C25   C37   A    
C11   H3    S    
C2    C39   S    
C38   H11   S    
C2    C7    S    
C19   H19   S    
C37   N1    A    
C7    C40   T    
Cu2   O4    S    
C42   H18   S    
C16   C20   A    
C39   H1    S    
C25   C32   A    
C16   C24   A    
C13   C14   A    
C34   C41   S    
C26   H10   S    
C3    H17   S    
C10   C21   A    
C26   N2    A    
C23   O5    A    
C8    C41   T    
C4    C6    S    
C27   H13   S    
C44   H24   S    
O10   C46   S    
C14   H4    S    
C17   C21   A    
C20   O9    S    
C12   C40   S    
Cu1   Cu2   S    
C29   C30   A    
C47   H31   S    
C31   C32   A    
C14   C15   A    
Cu1   N1    S    
C17   C18   A    
C43   H21   S    
Cu2   O8    S    
C30   N2    A    
C34   O8    A    
C13   H5    S    
C12   O3    A    
C4    C38   S    
C48   H34   S    
C45   H26   S    
C46   H29   S    
Cu2   O2    S    
C2    C5    S    
C3    C4    S    
C47   C48   S    
C21   H2    S    
C15   C17   A    
C12   O4    A    
Cu1   O5    S    
C5    H16   S    
C31   C36   A    
C6    H15   S    
C3    C5    S    
C44   C45   S    
C1    O1    A    
C10   C23   S    
C33   H7    S    
C45   H27   S    
C32   C33   A    
C36   N1    A    
C25   H8    S    
C29   C31   A    
C37   H6    S    
C11   C13   A    
C47   H30   S    
C38   C39   S    
C2    C42   S    
C33   C35   A    
Cu2   O6    S    
C22   O10   S    
C34   O7    A    
C44   H23   S    
C9    C18   A    
C1    C24   S    
Cu1   O1    S    
C45   H25   S    
C46   C47   S    
C27   C28   A    
C6    C39   S    
Cu1   O3    S    
