data_mof_unit_62651.cif
_audit_creation_date              2012-10-26T19:01:49-0400
_audit_creation_method            fapswitch 2.2
_symmetry_space_group_name_H-M    P1
_symmetry_Int_Tables_number       1
_space_group_crystal_system       triclinic
_cell_length_a                    13.88506
_cell_length_b                    15.945235
_cell_length_c                    17.041769
_cell_angle_alpha                 95.512096
_cell_angle_beta                  88.126952
_cell_angle_gamma                 82.777535
_cell_volume                      3721.98143921

loop_
_atom_site_label
_atom_site_type_symbol
_atom_type_description
_atom_site_fract_x
_atom_site_fract_y
_atom_site_fract_z
_atom_type_partial_charge
C1    C     C_R   0.500641 0.509751 0.651380 0.567238
C2    C     C_R   0.555989 0.836446 0.468670 0.224402
C3    C     C_R   0.509451 0.107973 0.478990 0.144704
C4    C     C_R   0.490549 0.892027 0.521010 0.144704
C5    C     C_R   0.572248 0.145232 0.429872 0.077215
C6    C     C_R   0.427753 0.854768 0.570128 0.077214
C7    C     C_R   0.573167 0.234461 0.437012 0.309979
C8    C     C_R   0.426833 0.765539 0.562988 0.309978
C9    C     C_R   0.316402 0.513442 0.500812 0.567321
C10   C     C_R   0.683598 0.486558 0.499187 0.567321
C11   C     C_1   0.787038 0.478793 0.498534 0.058311
C12   C     C_R   0.499359 0.490249 0.348620 0.567238
C13   C     C_1   0.212961 0.521206 0.501466 0.058311
C14   C     C_2   0.978073 0.465049 0.497356 -0.092328
C15   C     C_2   0.021927 0.534951 0.502644 -0.092328
C16   C     C_1   0.125842 0.527913 0.502042 0.007991
C17   C     C_1   0.874158 0.472087 0.497958 0.007991
C18   C     C_R   0.506428 0.513023 0.737458 -0.028529
C19   C     C_R   0.493574 0.486976 0.262542 -0.028529
C20   C     C_R   0.523124 0.437191 0.773376 -0.083842
C21   C     C_R   0.476866 0.562808 0.226624 -0.083844
C22   C     C_R   0.531347 0.438987 0.854708 0.267569
C23   C     C_R   0.506805 0.593395 0.865470 -0.104434
C24   C     C_R   0.468646 0.561010 0.145291 0.267569
C25   C     C_R   0.520788 0.517927 0.901533 0.238989
C26   C     C_R   0.479219 0.482070 0.098466 0.238990
C27   C     C_R   0.493213 0.406603 0.134529 -0.104436
C28   C     C_R   0.499099 0.591210 0.784046 -0.137932
C29   C     C_R   0.500917 0.408789 0.215954 -0.137933
C30   C     C_R   0.448332 0.252072 0.537708 0.338315
C31   C     C_R   0.551668 0.747928 0.462292 0.338315
C32   C     C_R   0.444011 0.163554 0.531330 0.224402
Cl1   Cl    Cl    0.439795 0.658556 0.105363 -0.482174
Cl2   Cl    Cl    0.560185 0.341439 0.894635 -0.482177
Cl3   Cl    Cl    0.631484 0.683144 0.392132 -0.446023
Cl4   Cl    Cl    0.368515 0.316856 0.607868 -0.446026
Cl5   Cl    Cl    0.652325 0.873645 0.417887 -0.408407
Cl6   Cl    Cl    0.347675 0.126355 0.582114 -0.408406
Cl7   Cl    Cl    0.654694 0.277431 0.375543 -0.498036
Cl8   Cl    Cl    0.345307 0.722569 0.624458 -0.498028
Cu1   Cu    Cu3+1 0.495370 0.585120 0.503830 1.117129
Cu2   Cu    Cu3+1 0.504630 0.414880 0.496170 1.117129
H1    H     H_    0.980087 0.597725 0.507436 0.170324
H2    H     H_    0.019913 0.402275 0.492564 0.170324
H3    H     H_    0.468479 0.623812 0.261777 0.199560
H4    H     H_    0.531500 0.376187 0.738223 0.199568
H5    H     H_    0.500287 0.654143 0.900915 0.189668
H6    H     H_    0.499742 0.345854 0.099084 0.189672
H7    H     H_    0.487410 0.650614 0.757711 0.192368
H8    H     H_    0.512615 0.349385 0.242288 0.192376
I1    I     I_    0.662923 0.067289 0.340989 -0.000763
I2    I     I_    0.337078 0.932711 0.659012 -0.000760
N1    N     N_2   0.525528 0.523900 0.984495 -0.142561
N2    N     N_2   0.474478 0.476097 0.015504 -0.142551
N3    N     N_R   0.511590 0.287020 0.490400 -0.268704
N4    N     N_R   0.488410 0.712980 0.509600 -0.268705
N5    N     N_2   0.509444 0.016841 0.469307 -0.114210
N6    N     N_2   0.490556 0.983159 0.530693 -0.114209
O1    O     O_R   0.495670 0.579790 0.617520 -0.470004
O2    O     O_R   0.504330 0.420210 0.382480 -0.470005
O3    O     O_R   0.503490 0.436020 0.611040 -0.474422
O4    O     O_R   0.496510 0.563980 0.388960 -0.474420
O5    O     O_R   0.357690 0.582040 0.503680 -0.454972
O6    O     O_R   0.642310 0.417960 0.496320 -0.454971
O7    O     O_R   0.365510 0.438280 0.497200 -0.463757
O8    O     O_R   0.634490 0.561720 0.502800 -0.463758

loop_
_geom_bond_atom_site_label_1
_geom_bond_atom_site_label_2
_ccdc_geom_bond_type
C27   H6    S    
Cu2   O7    S    
C2    C4    A    
Cu1   N4    S    
Cu1   O8    S    
C32   Cl6   S    
C31   N4    A    
C27   C29   A    
C20   C22   A    
C12   O4    A    
Cu1   Cu2   S    
C21   H3    S    
C24   Cl1   S    
C2    Cl5   S    
C30   Cl4   S    
C3    C5    A    
C8    N4    A    
C10   O8    A    
C1    C18   S    
C15   H1    S    
C1    O3    A    
C9    O5    A    
N1    N2    D    
C30   C32   A    
C14   C17   S    
N5    N6    D    
Cu1   O4    S    
C22   Cl2   S    
C7    N3    A    
C26   N2    S    
C12   C19   S    
C4    C6    A    
C19   C21   A    
C22   C25   A    
C25   N1    S    
C18   C20   A    
C29   H8    S    
C1    O1    A    
C26   C27   A    
C3    C32   A    
Cu2   N3    S    
C9    C13   S    
C9    O7    A    
C13   C16   T    
C23   H5    S    
C10   C11   S    
Cu1   O5    S    
C4    N6    S    
C15   C16   S    
C19   C29   A    
Cu2   O6    S    
C23   C25   A    
C18   C28   A    
Cu1   O1    S    
C14   H2    S    
C30   N3    A    
C21   C24   A    
Cu2   O2    S    
Cu2   O3    S    
C5    C7    A    
C31   Cl3   S    
C7    Cl7   S    
C14   C15   D    
C5    I1    S    
C6    C8    A    
C8    Cl8   S    
C6    I2    S    
C23   C28   A    
C11   C17   T    
C10   O6    A    
C24   C26   A    
C20   H4    S    
C2    C31   A    
C3    N5    S    
C28   H7    S    
C12   O2    A    
