data_mof_unit_18132.cif
_audit_creation_date              2012-12-10T17:52:23-0500
_audit_creation_method            fapswitch 2.2
_symmetry_space_group_name_H-M    P1
_symmetry_Int_Tables_number       1
_space_group_crystal_system       triclinic
_cell_length_a                    19.188635
_cell_length_b                    10.715704
_cell_length_c                    9.895865
_cell_angle_alpha                 88.767329
_cell_angle_beta                  89.778688
_cell_angle_gamma                 92.192577
_cell_volume                      2032.8025077

loop_
_atom_site_label
_atom_site_type_symbol
_atom_type_description
_atom_site_fract_x
_atom_site_fract_y
_atom_site_fract_z
_atom_type_partial_charge
C1    C     C_R   0.508033 0.261039 0.502001 0.885161
C2    C     C_R   0.288902 0.488781 0.498861 -0.100620
C3    C     C_R   0.928709 0.478351 0.480885 0.287016
C4    C     C_R   0.067806 0.456952 0.477129 0.296288
C5    C     C_R   0.824442 0.576729 0.579074 0.215793
C6    C     C_R   0.750821 0.580273 0.586612 0.181571
C7    C     C_R   0.710187 0.505273 0.497810 -0.086026
C8    C     C_R   0.741874 0.432373 0.401569 -0.256439
C9    C     C_R   0.813416 0.427511 0.395785 -0.209444
C10   C     C_R   0.854494 0.496052 0.485453 0.046208
C11   C     C_R   0.514061 0.108354 0.761397 -0.143256
C12   C     C_R   0.365287 0.499162 0.500340 0.867517
C13   C     C_R   0.485976 0.045399 0.874995 -0.147375
C14   C     C_R   0.448022 0.933685 0.860028 -0.152358
C15   C     C_R   0.444587 0.878949 0.733697 -0.141388
C16   C     C_R   0.479354 0.936218 0.620406 0.093956
C17   C     C_R   0.504572 0.059490 0.630228 0.054690
C18   C     C_R   0.519251 0.127962 0.508137 -0.159205
C19   C     C_R   0.532242 0.064837 0.387242 0.190684
C20   C     C_R   0.518843 0.937759 0.385002 -0.219617
C21   C     C_R   0.492470 0.873476 0.499300 -0.179110
C22   C     C_R   0.408013 0.335383 0.144136 -0.184050
C23   C     C_R   0.494880 0.739653 0.499240 0.889872
C24   C     C_R   0.364191 0.250881 0.075951 0.199668
C25   C     C_R   0.364260 0.252544 0.935586 -0.197737
C26   C     C_R   0.408589 0.335591 0.863768 -0.217740
C27   C     C_R   0.454510 0.419499 0.929789 0.137510
C28   C     C_R   0.454146 0.419904 0.074334 0.083253
C29   C     C_R   0.545661 0.574498 0.067663 0.225124
C30   C     C_R   0.543762 0.576075 0.924608 -0.121463
C31   C     C_R   0.634359 0.502964 0.499690 0.882429
C32   C     C_R   0.247200 0.522820 0.609431 0.185293
C33   C     C_R   0.174979 0.507561 0.599555 -0.205380
C34   C     C_R   0.143643 0.461828 0.482077 0.028931
C35   C     C_R   0.184860 0.428145 0.371663 0.215214
C36   C     C_R   0.257050 0.441649 0.381870 -0.242863
N1    N     N_R   0.034296 0.499545 0.366078 -0.167683
N2    N     N_R   0.965583 0.509314 0.367497 -0.168786
N3    N     N_R   0.961767 0.433520 0.591226 -0.164323
N4    N     N_R   0.030439 0.423570 0.589553 -0.179712
N5    N     N_R   0.499340 0.498800 0.142780 -0.115945
N6    N     N_R   0.499320 0.498720 0.857170 -0.135792
O1    O     O_R   0.500000 0.316780 0.614690 -0.650696
O2    O     O_R   0.499990 0.316750 0.385360 -0.626734
O3    O     O_R   0.398140 0.500000 0.614700 -0.630989
O4    O     O_R   0.398130 0.499970 0.385370 -0.635652
O5    O     O_R   0.500010 0.683250 0.614640 -0.619639
O6    O     O_R   0.500000 0.683220 0.385310 -0.622756
O7    O     O_R   0.601870 0.500030 0.614630 -0.611218
O8    O     O_R   0.601860 0.500000 0.385300 -0.621394
Zn1   Zn    Zn3+2 0.500000 0.500020 0.653130 0.920233
Zn2   Zn    Zn3+2 0.500000 0.499980 0.346870 0.926888
C37   C     C_3   0.277123 0.579679 0.735823 -0.867560
H1    H     H_    0.311299 0.662250 0.708650 0.231743
H2    H     H_    0.235738 0.611732 0.804259 0.227678
H3    H     H_    0.306881 0.509731 0.793252 0.261166
H4    H     H_    0.545047 0.192732 0.778788 0.169661
H5    H     H_    0.492283 0.084894 0.974094 0.148117
H6    H     H_    0.423287 0.887325 0.946928 0.141933
H7    H     H_    0.415015 0.791619 0.726043 0.151316
H8    H     H_    0.530440 0.888599 0.293648 0.166965
C38   C     C_3   0.603056 0.650853 0.132759 -0.834094
H9    H     H_    0.629792 0.715889 0.058640 0.195699
H10   H     H_    0.583055 0.709047 0.213087 0.260987
H11   H     H_    0.643213 0.588455 0.172513 0.253338
H12   H     H_    0.405481 0.330793 0.251354 0.211444
C39   C     C_3   0.318435 0.156430 0.151984 -0.931351
H13   H     H_    0.322050 0.168239 0.263026 0.238597
H14   H     H_    0.263302 0.166043 0.121397 0.246408
H15   H     H_    0.334583 0.060916 0.128148 0.249167
H16   H     H_    0.330541 0.187795 0.881185 0.166474
H17   H     H_    0.406147 0.329992 0.756643 0.223430
H18   H     H_    0.142518 0.535056 0.682938 0.159763
H19   H     H_    0.579135 0.637323 0.866487 0.155857
C40   C     C_3   0.153593 0.375534 0.244282 -0.885877
H20   H     H_    0.194222 0.342959 0.174663 0.235124
H21   H     H_    0.117647 0.294714 0.269760 0.244668
H22   H     H_    0.124983 0.448478 0.188855 0.257078
H23   H     H_    0.288626 0.414713 0.297297 0.175233
C41   C     C_3   0.869855 0.660362 0.667283 -0.899903
H24   H     H_    0.858277 0.759634 0.646505 0.240386
H25   H     H_    0.859766 0.636490 0.775517 0.250206
H26   H     H_    0.926455 0.653527 0.648649 0.248633
C42   C     C_3   0.715118 0.663260 0.686005 -0.891467
H27   H     H_    0.750450 0.731708 0.735859 0.242069
H28   H     H_    0.675053 0.718197 0.633309 0.236147
H29   H     H_    0.690243 0.604138 0.767326 0.249437
H30   H     H_    0.710925 0.376117 0.332598 0.163122
H31   H     H_    0.836906 0.367262 0.323202 0.161726
C43   C     C_3   0.564021 0.127991 0.262155 -0.863496
H32   H     H_    0.590420 0.060230 0.197805 0.218538
H33   H     H_    0.522844 0.171013 0.200432 0.253819
H34   H     H_    0.604186 0.199997 0.290561 0.239907

loop_
_geom_bond_atom_site_label_1
_geom_bond_atom_site_label_2
_ccdc_geom_bond_type
C8    C9    A    
C16   C21   A    
C26   H17   S    
C15   H7    S    
C19   C20   A    
C42   H29   S    
C2    C12   S    
C7    C8    A    
C37   H1    S    
C14   H6    S    
C35   C40   S    
C26   C27   A    
C38   H9    S    
C42   H28   S    
C34   C35   A    
C5    C6    A    
C30   H19   S    
O3    Zn1   S    
C15   C16   A    
O4    Zn2   S    
C28   N5    A    
C2    C32   A    
C18   C19   A    
C20   H8    S    
C22   H12   S    
C38   H10   S    
C24   C39   S    
C1    O1    A    
C4    N4    A    
C3    N2    A    
C16   C17   A    
O7    Zn1   S    
O8    Zn2   S    
C25   H16   S    
C29   C30   A    
C9    C10   A    
N5    Zn2   S    
N6    Zn1   S    
O2    Zn2   S    
C3    N3    A    
C22   C28   A    
C13   C14   A    
C31   O7    A    
C41   H26   S    
C33   C34   A    
C37   H2    S    
C4    C34   S    
C6    C42   S    
C39   H13   S    
C7    C31   S    
C24   C25   A    
C41   H25   S    
C9    H31   S    
N3    N4    A    
C12   O3    A    
O5    Zn1   S    
C13   H5    S    
C25   C26   A    
C39   H14   S    
C12   O4    A    
C40   H20   S    
N1    N2    A    
C1    O2    A    
C43   H33   S    
C20   C21   A    
C17   C18   A    
C1    C18   S    
C42   H27   S    
C5    C41   S    
C40   H21   S    
C33   H18   S    
C21   C23   S    
C22   C24   A    
C31   O8    A    
C32   C37   S    
C43   H34   S    
C37   H3    S    
C2    C36   A    
C29   C38   S    
C11   C17   A    
C23   O6    A    
C38   H11   S    
C29   N5    A    
C41   H24   S    
C36   H23   S    
C6    C7    A    
C39   H15   S    
C32   C33   A    
C23   O5    A    
C5    C10   A    
C3    C10   S    
C11   C13   A    
C27   N6    A    
O1    Zn1   S    
C43   H32   S    
C40   H22   S    
O6    Zn2   S    
C4    N1    A    
C27   C28   A    
C19   C43   S    
C14   C15   A    
C30   N6    A    
C35   C36   A    
C8    H30   S    
C11   H4    S    
