data_mof_unit_52686.cif
_audit_creation_date              2012-12-11T17:01:22-0500
_audit_creation_method            fapswitch 2.2
_symmetry_space_group_name_H-M    P1
_symmetry_Int_Tables_number       1
_space_group_crystal_system       triclinic
_cell_length_a                    19.365096
_cell_length_b                    7.085103
_cell_length_c                    17.707927
_cell_angle_alpha                 89.587878
_cell_angle_beta                  108.579549
_cell_angle_gamma                 90.444849
_cell_volume                      2302.87009421

loop_
_atom_site_label
_atom_site_type_symbol
_atom_type_description
_atom_site_fract_x
_atom_site_fract_y
_atom_site_fract_z
_atom_type_partial_charge
O1    O     O_R   0.413720 0.494330 0.415730 -0.542831
O2    O     O_R   0.586280 0.994330 0.584270 -0.543956
O3    O     O_R   0.560210 0.819300 0.430070 -0.550208
O4    O     O_R   0.439790 0.319300 0.569930 -0.546535
C1    C     C_R   0.581722 0.656267 0.414936 0.711858
C2    C     C_R   0.418879 0.154392 0.585823 0.713850
O5    O     O_R   0.412670 0.823730 0.406310 -0.537635
O6    O     O_R   0.587330 0.323730 0.593690 -0.537728
O7    O     O_R   0.437690 0.998790 0.560340 -0.537541
O8    O     O_R   0.562310 0.498790 0.439660 -0.535064
C3    C     C_R   0.385368 0.655095 0.383524 0.708663
C4    C     C_R   0.615113 0.155411 0.615588 0.709759
O9    O     O_3   0.508380 0.662350 0.550560 -0.376565
O10   O     O_3   0.491620 0.162350 0.449440 -0.377225
V1    V     V_3+5 0.498450 0.935370 0.490620 1.401243
V2    V     V_3+5 0.501550 0.435370 0.509380 1.406025
C5    C     C_R   0.738161 0.013331 0.686055 0.055153
C6    C     C_R   0.261469 0.515801 0.313786 0.050482
C7    C     C_R   0.684894 0.149215 0.681660 -0.171891
C8    C     C_R   0.316290 0.647744 0.316162 -0.171028
C9    C     C_R   0.701341 0.287421 0.741299 -0.121482
C10   C     C_R   0.301667 0.781148 0.253752 -0.131874
H1    H     H_    0.662243 0.397592 0.739201 0.138950
H2    H     H_    0.341967 0.888557 0.254289 0.138275
C11   C     C_R   0.764383 0.275980 0.808419 0.191915
C12   C     C_R   0.237862 0.769598 0.187017 0.190953
C13   C     C_R   0.815771 0.127264 0.815544 -0.146098
C14   C     C_R   0.184702 0.625834 0.183139 -0.143951
C15   C     C_R   0.801860 0.003268 0.750949 0.016924
C16   C     C_R   0.197571 0.505488 0.249305 0.014987
C17   C     C_3   0.802058 0.792693 0.749716 -0.368621
C18   C     C_3   0.194501 0.295139 0.253671 -0.368713
C19   C     C_3   0.732519 0.803102 0.678678 0.048058
C20   C     C_3   0.264497 0.305810 0.324235 0.050589
H3    H     H_    0.792779 0.732499 0.803525 0.165882
H4    H     H_    0.202399 0.227963 0.200721 0.158653
H5    H     H_    0.683730 0.741731 0.690177 0.143114
H6    H     H_    0.312307 0.239377 0.313298 0.144601
C21   C     C_R   0.325191 0.987573 0.633272 -0.192043
C22   C     C_R   0.680182 0.800364 0.369170 -0.202466
C23   C     C_R   0.370681 0.144931 0.636132 -0.109148
C24   C     C_R   0.631121 0.650838 0.366225 -0.085562
C25   C     C_R   0.369240 0.296094 0.686408 -0.185288
C26   C     C_R   0.629578 0.496158 0.316945 -0.216644
C27   C     C_R   0.323424 0.291276 0.733610 0.120031
C28   C     C_R   0.675782 0.490414 0.270215 0.107800
C29   C     C_R   0.276836 0.134833 0.729728 0.007439
C30   C     C_R   0.724908 0.640820 0.272846 0.021954
C31   C     C_R   0.277303 0.981640 0.678947 0.077446
C32   C     C_R   0.727621 0.797159 0.322981 0.078900
C33   C     C_R   0.323335 0.441632 0.784406 -0.177235
C34   C     C_R   0.674364 0.334332 0.221831 -0.226798
C35   C     C_R   0.277046 0.439040 0.830685 -0.162853
C36   C     C_R   0.723186 0.322443 0.178928 -0.148809
C37   C     C_R   0.229503 0.285517 0.827366 0.106322
C38   C     C_R   0.773048 0.469826 0.181090 0.111060
C39   C     C_R   0.229664 0.132477 0.776532 -0.006490
C40   C     C_R   0.772352 0.632187 0.226525 -0.008788
C41   C     C_R   0.182874 0.977241 0.772420 0.058624
C42   C     C_R   0.820223 0.783325 0.227336 0.056827
C43   C     C_R   0.183354 0.825844 0.721980 -0.210192
C44   C     C_R   0.822747 0.938205 0.277079 -0.200740
C45   C     C_R   0.229772 0.826699 0.674875 0.192904
C46   C     C_R   0.778295 0.944733 0.326440 0.195485
C47   C     C_R   0.182097 0.282994 0.873793 0.147851
C48   C     C_R   0.824087 0.455336 0.139740 0.139430
C49   C     C_R   0.133899 0.126817 0.868735 -0.126073
C50   C     C_R   0.868610 0.614104 0.134970 -0.128534
C51   C     C_R   0.135744 0.975414 0.818308 -0.229825
C52   C     C_R   0.865892 0.776062 0.179558 -0.218854
H7    H     H_    0.326452 0.871599 0.594229 0.159782
H8    H     H_    0.681608 0.917609 0.408524 0.143797
H9    H     H_    0.358770 0.562683 0.787891 0.136221
H10   H     H_    0.636903 0.218150 0.219082 0.132565
H11   H     H_    0.099641 0.855378 0.814035 0.139056
H12   H     H_    0.901568 0.894481 0.179411 0.136991
H13   H     H_    0.147139 0.706632 0.718929 0.127922
H14   H     H_    0.860692 0.052693 0.278859 0.130259
O11   O     O_R   0.937800 0.775460 0.060470 -0.533662
O12   O     O_R   0.062200 0.275460 0.939530 -0.539892
O13   O     O_R   0.087350 0.441340 0.093710 -0.540172
O14   O     O_R   0.912650 0.941340 0.906290 -0.537081
C53   C     C_R   0.115856 0.610642 0.115034 0.701548
C54   C     C_R   0.884099 0.110744 0.884749 0.707107
O15   O     O_R   0.939820 0.446010 0.069950 -0.547150
O16   O     O_R   0.060180 0.946010 0.930050 -0.543348
O17   O     O_R   0.913690 0.271230 0.915700 -0.541057
O18   O     O_R   0.086310 0.771230 0.084300 -0.540073
C55   C     C_R   0.918362 0.612517 0.085144 0.711349
C56   C     C_R   0.082710 0.115563 0.916424 0.711488
O19   O     O_3   0.991670 0.603050 0.949510 -0.375977
O20   O     O_3   0.008330 0.103050 0.050490 -0.375649
V3    V     V_3+5 0.001550 0.329940 0.009370 1.369437
V4    V     V_3+5 0.998450 0.829940 0.990630 1.385386
H15   H     H_    0.278450 0.559214 0.868586 0.171696
H16   H     H_    0.721339 0.196863 0.143830 0.171247
N1    N     N_3   0.185688 0.437282 0.927179 -0.691217
H17   H     H_    0.193848 0.384853 0.984697 0.234598
H18   H     H_    0.137377 0.514236 0.907417 0.248242
N2    N     N_3   0.831446 0.275428 0.106466 -0.689314
H19   H     H_    0.883301 0.222393 0.135958 0.243056
H20   H     H_    0.823972 0.290376 0.045999 0.234381
N3    N     N_3   0.228558 0.670955 0.622810 -0.676361
H21   H     H_    0.204227 0.718351 0.564353 0.224568
H22   H     H_    0.195605 0.561514 0.632162 0.236067
N4    N     N_3   0.786736 0.096658 0.382245 -0.666344
H23   H     H_    0.738102 0.172004 0.366768 0.231982
H24   H     H_    0.826910 0.191616 0.377864 0.236030
N5    N     N_3   0.768743 0.403088 0.872157 -0.690133
H25   H     H_    0.767572 0.322679 0.921119 0.218931
H26   H     H_    0.816719 0.482127 0.886244 0.244869
N6    N     N_3   0.232478 0.894219 0.121244 -0.679919
H27   H     H_    0.224207 0.813562 0.069852 0.232199
H28   H     H_    0.188094 0.983585 0.112874 0.237812
H29   H     H_    0.850025 0.735881 0.735919 0.180548
H30   H     H_    0.146038 0.244394 0.268850 0.176916
N7    N     N_3   0.742484 0.734790 0.605008 -0.639166
H31   H     H_    0.695157 0.765946 0.558272 0.229978
H32   H     H_    0.785163 0.808276 0.593406 0.244508
N8    N     N_3   0.254220 0.244611 0.399125 -0.648641
H33   H     H_    0.301980 0.276484 0.445234 0.234062
H34   H     H_    0.212406 0.321949 0.409720 0.237170
H35   H     H_    0.404397 0.417599 0.689385 0.130787
H36   H     H_    0.592027 0.380324 0.314658 0.125887

loop_
_geom_bond_atom_site_label_1
_geom_bond_atom_site_label_2
_ccdc_geom_bond_type
C48   C50   A    
C1    C24   S    
C19   N7    S    
C31   C45   A    
C12   N6    S    
C13   C15   A    
C5    C15   A    
O1    C3    A    
C54   O17   A    
O2    C4    A    
C2    O7    A    
N6    H28   S    
N1    H17   S    
C21   C23   A    
O5    C3    A    
C5    C19   S    
O14   V4    S    
C18   H4    S    
C13   C54   S    
C7    C9    A    
C34   H10   S    
N7    H32   S    
C38   C48   A    
C39   C41   A    
C35   H15   S    
N4    H23   S    
C27   C33   A    
C40   C42   A    
C28   C34   A    
C32   C46   A    
C6    C8    A    
C42   C44   A    
C27   C29   A    
C48   N2    S    
C43   C45   A    
O20   V3    S    
C44   C46   A    
O16   V4    S    
N1    H18   S    
O15   V3    S    
N8    H34   S    
C47   C49   A    
C2    C23   S    
C17   C19   S    
C6    C16   A    
C36   H16   S    
C11   N5    S    
O5    V1    S    
C53   O18   A    
O6    V2    S    
C20   H6    S    
C14   C53   S    
C23   C25   A    
C24   C26   A    
C17   H29   S    
N6    H27   S    
O13   C53   A    
C34   C36   A    
C28   C30   A    
C35   C37   A    
C20   N8    S    
C36   C38   A    
C3    C8    S    
C41   C43   A    
O11   V4    S    
C29   C31   A    
O16   C56   A    
C43   H13   S    
O15   C55   A    
C26   C28   A    
C26   H36   S    
C49   C56   S    
C19   H5    S    
C49   C51   A    
C18   C20   S    
O4    V2    S    
C37   C39   A    
O19   V3    S    
O13   V3    S    
C42   C52   A    
O6    C4    A    
O20   V4    S    
C50   C55   S    
N3    H22   S    
O1    V2    S    
C18   H30   S    
C46   N4    S    
O2    V1    S    
C6    C20   S    
C41   C51   A    
C45   N3    S    
C21   C31   A    
C8    C10   A    
O14   C54   A    
C9    H1    S    
C52   H12   S    
C17   H3    S    
O4    C2    A    
C25   H35   S    
N3    H21   S    
O3    V1    S    
N8    H33   S    
N2    H20   S    
C9    C11   A    
C22   H8    S    
C37   C47   A    
C44   H14   S    
C33   H9    S    
C22   C24   A    
O3    C1    A    
C30   C40   A    
C11   C13   A    
C12   C14   A    
N5    H26   S    
O7    V1    S    
C47   N1    S    
C14   C16   A    
C15   C17   S    
O8    V2    S    
N7    H31   S    
O19   V4    S    
C16   C18   S    
N4    H24   S    
C22   C32   A    
O17   V3    S    
C4    C7    S    
C30   C32   A    
N2    H19   S    
C5    C7    A    
C38   C40   A    
C51   H11   S    
C10   H2    S    
O12   C56   A    
O11   C55   A    
C1    O8    A    
C50   C52   A    
C10   C12   A    
O9    V2    S    
C29   C39   A    
O18   V4    S    
C21   H7    S    
O10   V1    S    
C33   C35   A    
O12   V3    S    
N5    H25   S    
C25   C27   A    
