data_mof_unit_10113.cif
_audit_creation_date              2013-03-05T15:42:08-0500
_audit_creation_method            fapswitch 2.2
_symmetry_space_group_name_H-M    P1
_symmetry_Int_Tables_number       1
_space_group_crystal_system       triclinic
_cell_length_a                    21.950799
_cell_length_b                    7.205192
_cell_length_c                    14.901518
_cell_angle_alpha                 89.88624
_cell_angle_beta                  106.88229
_cell_angle_gamma                 89.960446
_cell_volume                      2255.24257186

loop_
_atom_site_label
_atom_site_type_symbol
_atom_site_description
_atom_site_fract_x
_atom_site_fract_y
_atom_site_fract_z
_atom_type_partial_charge
O1    O     O_R   0.584770 0.505770 0.002090 -0.538536
O2    O     O_R   0.415230 0.005770 0.997910 -0.549719
O3    O     O_R   0.467060 0.173340 0.861950 -0.556379
O4    O     O_R   0.532940 0.673340 0.138050 -0.542777
C1    C     C_R   0.454338 0.344381 0.826049 0.878651
C2    C     C_R   0.545653 0.843866 0.173954 0.880202
O5    O     O_R   0.587510 0.175890 0.993210 -0.552653
O6    O     O_R   0.412490 0.675890 0.006790 -0.542538
O7    O     O_R   0.536540 0.008150 0.130100 -0.548826
O8    O     O_R   0.463460 0.508150 0.869900 -0.534164
C3    C     C_R   0.612976 0.344890 0.997474 0.842131
C4    C     C_R   0.387024 0.844949 0.002549 0.849738
O9    O     O_3   0.483140 0.340040 0.044760 -0.279379
O10   O     O_3   0.516860 0.840040 0.955240 -0.277760
V1    V     V_3+5 0.503130 0.064190 0.991700 1.236430
V2    V     V_3+5 0.496870 0.564190 0.008300 1.261253
C5    C     C_2   0.214202 0.727507 0.004292 -0.053558
C6    C     C_2   0.785934 0.227721 0.996043 -0.064927
C7    C     C_2   0.180404 0.886629 0.996577 -0.184441
C8    C     C_2   0.819562 0.386892 0.003262 -0.172772
H1    H     H_    0.191218 0.596730 0.010619 0.114807
H2    H     H_    0.809094 0.096909 0.990276 0.113210
H3    H     H_    0.201896 0.018874 0.989352 0.081988
H4    H     H_    0.797908 0.519207 0.009924 0.091673
C9    C     C_2   0.282091 0.714528 0.004055 -0.015943
C10   C     C_2   0.718030 0.214606 0.996169 -0.057227
C11   C     C_2   0.319929 0.861441 0.003512 -0.152363
C12   C     C_2   0.680077 0.361423 0.996579 -0.139064
H5    H     H_    0.301430 0.575520 0.005022 0.138991
H6    H     H_    0.698795 0.075575 0.995305 0.138149
H7    H     H_    0.301877 0.001314 0.003504 0.089569
H8    H     H_    0.698056 0.501320 0.996608 0.107073
C13   C     C_R   0.928483 0.886824 0.723658 -0.073200
C14   C     C_R   0.071994 0.386702 0.276081 -0.071577
C15   C     C_R   0.578516 0.848883 0.274563 -0.147819
C16   C     C_R   0.422138 0.353112 0.725264 -0.146926
C17   C     C_R   0.940124 0.929347 0.568873 -0.066679
C18   C     C_R   0.059315 0.357382 0.430900 -0.067660
C19   C     C_R   0.966834 0.924420 0.665762 -0.097107
C20   C     C_R   0.032600 0.367590 0.334072 -0.099396
C21   C     C_R   0.863759 0.848640 0.684458 -0.068297
C22   C     C_R   0.137839 0.402474 0.315033 -0.072124
C23   C     C_R   0.836436 0.839227 0.586399 0.076634
C24   C     C_R   0.165494 0.410765 0.412970 0.076992
C25   C     C_R   0.875023 0.892826 0.529088 0.060310
C26   C     C_R   0.125450 0.374045 0.470479 0.060406
C27   C     C_R   0.770612 0.797849 0.544105 -0.041414
C28   C     C_R   0.232286 0.436656 0.455063 -0.041733
C29   C     C_R   0.742771 0.837590 0.446868 0.029386
C30   C     C_R   0.258905 0.397339 0.552569 0.028868
C31   C     C_R   0.782159 0.907698 0.394725 0.003956
C32   C     C_R   0.217651 0.341752 0.604863 0.002257
C33   C     C_R   0.847445 0.924014 0.433751 -0.100103
C34   C     C_R   0.152086 0.341282 0.565870 -0.102113
C35   C     C_R   0.731069 0.721460 0.595098 0.112381
C36   C     C_R   0.273816 0.498081 0.403733 0.112842
C37   C     C_R   0.664706 0.742381 0.560901 0.355636
C38   C     C_R   0.339367 0.462102 0.438264 0.356881
C39   C     C_R   0.636954 0.799982 0.467419 -0.093563
C40   C     C_R   0.365449 0.405172 0.532204 -0.092460
C41   C     C_R   0.675595 0.818977 0.406343 -0.051804
C42   C     C_R   0.326382 0.401600 0.593214 -0.052690
C43   C     C_R   0.570972 0.831406 0.432647 0.029560
C44   C     C_R   0.430299 0.358149 0.567323 0.026536
C45   C     C_R   0.542499 0.861593 0.337474 -0.121027
C46   C     C_R   0.457621 0.325431 0.662530 -0.122687
C47   C     C_R   0.644979 0.820954 0.307722 0.318098
C48   C     C_R   0.356842 0.398427 0.691851 0.320560
H9    H     H_    0.875899 0.974458 0.390293 0.076699
H10   H     H_    0.122254 0.302753 0.609517 0.075496
H11   H     H_    0.491441 0.882137 0.312085 0.130671
H12   H     H_    0.507723 0.290288 0.688037 0.126434
H13   H     H_    0.969922 0.967641 0.525159 0.068279
H14   H     H_    0.028438 0.332823 0.474771 0.069449
H15   H     H_    0.016918 0.955555 0.695729 0.063726
H16   H     H_    0.981511 0.355277 0.304240 0.063455
H17   H     H_    0.834695 0.839288 0.731530 0.103786
H18   H     H_    0.166905 0.399562 0.267813 0.102671
H19   H     H_    0.763240 0.958966 0.324118 0.133518
H20   H     H_    0.235027 0.290300 0.675638 0.133732
H21   H     H_    0.540847 0.831642 0.478666 0.163363
H22   H     H_    0.460348 0.346090 0.521483 0.161108
O11   O     O_R   0.036450 0.233070 0.130130 -0.555955
O12   O     O_R   0.963550 0.733070 0.869870 -0.550208
O13   O     O_R   0.912470 0.560570 0.006790 -0.555847
O14   O     O_R   0.087530 0.060570 0.993210 -0.559613
C49   C     C_R   0.886943 0.391985 0.002416 0.836986
C50   C     C_R   0.113052 0.891881 0.997557 0.836022
O15   O     O_R   0.032920 0.562940 0.138050 -0.551745
O16   O     O_R   0.967080 0.062940 0.861950 -0.555331
O17   O     O_R   0.084790 0.730500 0.002090 -0.556301
O18   O     O_R   0.915210 0.230500 0.997910 -0.559075
C51   C     C_R   0.044756 0.394269 0.174472 0.814398
C52   C     C_R   0.955149 0.894638 0.825465 0.813693
O19   O     O_3   0.016820 0.396170 0.955260 -0.283953
O20   O     O_3   0.983180 0.896170 0.044740 -0.284777
V3    V     V_3+5 0.996880 0.672090 0.008300 1.166540
V4    V     V_3+5 0.003120 0.172090 0.991700 1.161162
I1    I     I_    0.765229 0.516724 0.703433 -0.385920
I2    I     I_    0.245613 0.702891 0.294124 -0.390075
N1    N     N_R   0.678562 0.765086 0.242327 0.057030
O21   O     O_R   0.673220 0.859825 0.165949 -0.391748
O22   O     O_R   0.713621 0.616017 0.258229 -0.371418
N2    N     N_R   0.324790 0.465748 0.757059 0.058657
O23   O     O_R   0.294045 0.622601 0.741201 -0.372172
O24   O     O_R   0.326808 0.372559 0.832803 -0.395414
N3    N     N_R   0.625577 0.689569 0.619022 0.096459
O25   O     O_R   0.581790 0.563509 0.590823 -0.359892
O26   O     O_R   0.637013 0.756755 0.703271 -0.333114
N4    N     N_R   0.379779 0.498683 0.379810 0.096627
O27   O     O_R   0.427072 0.614162 0.407139 -0.365886
O28   O     O_R   0.366281 0.428155 0.296016 -0.333283

loop_
_geom_bond_atom_site_label_1
_geom_bond_atom_site_label_2
_geom_bond_distance
_ccdc_geom_bond_type
C43   C45   1.390348 A    
N1    O21   1.301685 A    
N3    O26   1.301152 A    
C14   C22   1.397171 A    
C14   C51   1.458375 S    
C33   H9    1.084370 S    
C13   C52   1.460114 S    
C2    O7    1.337492 A    
N2    O24   1.301792 A    
O19   V4    1.756152 S    
O18   V4    2.003037 S    
C27   C29   1.427869 A    
O5    C3    1.334126 A    
C13   C19   1.395578 A    
C43   H21   1.082086 S    
C14   C20   1.395414 A    
O12   V3    2.025568 S    
C21   H17   1.078605 S    
C16   C46   1.394194 A    
C37   C39   1.410082 A    
C15   C45   1.393916 A    
C38   C40   1.409791 A    
O11   C51   1.323722 A    
C1    C16   1.463592 S    
O14   C50   1.331546 A    
C2    C15   1.463377 S    
C40   C42   1.419624 A    
N4    O27   1.301090 A    
C46   H12   1.083769 S    
C8    H4    1.082504 S    
C24   C26   1.419133 A    
C29   C31   1.412678 A    
O11   V4    2.027565 S    
C6    C10   1.494139 S    
C30   C32   1.413095 A    
N3    O25   1.301366 A    
C19   H15   1.083498 S    
C28   C30   1.427535 A    
O2    C4    1.325267 A    
O6    V2    2.013104 S    
C38   N4    1.436420 S    
C49   O18   1.329213 A    
C21   C23   1.411003 A    
C22   C24   1.409897 A    
N2    O23   1.301465 A    
C32   C34   1.386809 A    
O16   C52   1.324783 A    
N4    O28   1.301160 A    
O13   C49   1.331815 A    
C9    H5    1.085988 S    
C39   C41   1.419357 A    
C29   C41   1.428424 A    
C4    C11   1.481715 S    
C11   H7    1.082646 S    
C12   H8    1.082698 S    
O4    C2    1.337953 A    
C7    C50   1.483181 S    
C45   H11   1.083719 S    
C5    H1    1.085931 S    
C20   H16   1.083454 S    
O15   V3    2.021723 S    
C31   C33   1.386437 A    
C44   C46   1.390093 A    
O4    V2    2.025206 S    
C7    H3    1.082496 S    
C41   C47   1.427530 A    
C34   H10   1.084336 S    
C50   O17   1.329106 A    
C15   C47   1.411951 A    
O6    C4    1.333597 A    
O20   V3    1.757752 S    
C26   C34   1.390662 A    
O1    V2    2.002837 S    
O12   C52   1.323945 A    
O17   V3    2.003519 S    
O2    V1    2.003322 S    
C23   C25   1.419587 A    
C44   H22   1.082157 S    
C37   N3    1.436606 S    
C10   H6    1.086012 S    
C35   C37   1.404510 A    
C30   C42   1.428562 A    
C36   I2    2.151884 S    
C17   C25   1.404238 A    
O3    V1    2.021796 S    
C47   N1    1.439946 S    
C27   C35   1.419815 A    
C18   H14   1.084041 S    
C28   C36   1.419932 A    
C17   H13   1.084107 S    
C6    H2    1.085930 S    
C10   C12   1.347173 D    
C48   N2    1.439781 S    
O3    C1    1.339068 A    
C16   C48   1.411758 A    
C22   H18   1.078616 S    
C9    C11   1.347407 D    
C39   C43   1.407359 A    
C42   C48   1.427249 A    
C40   C44   1.407484 A    
C13   C21   1.398060 A    
O7    V1    2.017935 S    
C5    C9    1.494109 S    
C1    O8    1.336730 A    
C17   C19   1.391990 A    
O8    V2    2.019774 S    
C18   C20   1.392585 A    
C8    C49   1.483271 S    
C3    C12   1.481727 S    
O5    V1    2.014158 S    
C5    C7    1.351616 D    
C36   C38   1.404035 A    
C6    C8    1.351764 D    
O15   C51   1.324418 A    
O14   V4    2.013188 S    
C31   H19   1.077217 S    
C18   C26   1.404622 A    
O13   V3    2.014247 S    
C25   C33   1.390799 A    
N1    O22   1.301520 A    
O9    V2    1.756894 S    
C35   I1    2.151839 S    
O10   V1    1.758494 S    
O1    C3    1.325070 A    
C32   H20   1.076948 S    
C23   C27   1.430469 A    
O16   V4    2.025130 S    
C24   C28   1.429877 A    
