data_mof_unit_53802.cif
_audit_creation_date              2012-10-26T20:21:47-0400
_audit_creation_method            fapswitch 2.2
_symmetry_space_group_name_H-M    P1
_symmetry_Int_Tables_number       1
_space_group_crystal_system       triclinic
_cell_length_a                    15.561909
_cell_length_b                    15.057404
_cell_length_c                    9.617819
_cell_angle_alpha                 90.809379
_cell_angle_beta                  90.000339
_cell_angle_gamma                 89.999971
_cell_volume                      2253.44125136

loop_
_atom_site_label
_atom_site_type_symbol
_atom_type_description
_atom_site_fract_x
_atom_site_fract_y
_atom_site_fract_z
_atom_type_partial_charge
C1    C     C_R   0.118795 0.381165 0.499603 0.549025
C2    C     C_R   0.999960 0.578424 0.930224 0.177912
C3    C     C_R   0.999979 0.577817 0.078076 0.234139
C4    C     C_R   0.000027 0.422183 0.921925 0.234138
C5    C     C_R   0.500011 0.921576 0.069776 0.177904
C6    C     C_R   0.500017 0.078423 0.930224 0.177911
C7    C     C_R   0.499998 0.077817 0.078076 0.234149
C8    C     C_R   0.499989 0.922182 0.921924 0.234147
C9    C     C_R   0.776566 0.286417 0.374054 -0.141864
C10   C     C_R   0.223364 0.713659 0.625965 -0.141845
C11   C     C_R   0.212929 0.722284 0.374498 -0.130482
C12   C     C_R   0.881206 0.618836 0.500397 0.549027
C13   C     C_R   0.787156 0.277625 0.625479 -0.130471
C14   C     C_R   0.212881 0.277661 0.625485 -0.130476
C15   C     C_R   0.787177 0.722401 0.374525 -0.130465
C16   C     C_R   0.776481 0.713494 0.625928 -0.141847
C17   C     C_R   0.223471 0.286454 0.374066 -0.141840
C18   C     C_R   0.276610 0.786366 0.374040 -0.141839
C19   C     C_R   0.723475 0.213543 0.625936 -0.141839
C20   C     C_R   0.712880 0.222339 0.374513 -0.130481
C21   C     C_R   0.287048 0.777739 0.625506 -0.130481
C22   C     C_R   0.712801 0.777578 0.625472 -0.130464
C23   C     C_R   0.881214 0.381156 0.499602 0.549003
C24   C     C_R   0.287150 0.222369 0.374523 -0.130467
C25   C     C_R   0.276565 0.213581 0.625943 -0.141865
C26   C     C_R   0.723495 0.786483 0.374068 -0.141854
C27   C     C_R   0.185859 0.685777 0.500493 0.019901
C28   C     C_R   0.814147 0.314217 0.499505 0.019893
C29   C     C_R   0.814124 0.685760 0.500490 0.019904
C30   C     C_R   0.185881 0.314244 0.499511 0.019905
C31   C     C_R   0.685881 0.185756 0.500489 0.019905
C32   C     C_R   0.314123 0.814240 0.499510 0.019905
C33   C     C_R   0.314143 0.185780 0.500494 0.019893
C34   C     C_R   0.118788 0.618842 0.500398 0.549004
C35   C     C_R   0.685859 0.814223 0.499508 0.019901
C36   C     C_R   0.618788 0.881159 0.499603 0.549016
C37   C     C_R   0.381212 0.118842 0.500397 0.549010
C38   C     C_R   0.381206 0.881164 0.499603 0.549018
C39   C     C_R   0.618795 0.118835 0.500397 0.549019
C40   C     C_R   0.000040 0.421576 0.069776 0.177923
Cu1   Cu    Cu3+1 0.000000 0.500000 0.640660 0.964497
Cu2   Cu    Cu3+1 1.000000 0.500000 0.359340 0.964498
Cu3   Cu    Cu3+1 0.500000 1.000000 0.640660 0.964489
Cu4   Cu    Cu3+1 0.500000 1.000000 0.359340 0.964492
H1    H     H_    0.795870 0.314268 0.275707 0.121903
H2    H     H_    0.704187 0.185680 0.724281 0.121815
H3    H     H_    0.684866 0.201753 0.276228 0.131582
H4    H     H_    0.314999 0.798393 0.723809 0.131595
H5    H     H_    0.684745 0.798118 0.723749 0.131577
H6    H     H_    0.315162 0.201782 0.276240 0.131597
H7    H     H_    0.295868 0.185729 0.724288 0.121892
H8    H     H_    0.704239 0.814384 0.275732 0.121841
H9    H     H_    0.056014 0.325528 0.188985 0.258396
H10   H     H_    0.944409 0.325453 0.189286 0.258595
H11   H     H_    0.055569 0.674540 0.810673 0.258590
H12   H     H_    0.203999 0.685875 0.724330 0.121872
H13   H     H_    0.943966 0.674463 0.811049 0.258402
H14   H     H_    0.945615 0.696026 0.127241 0.216406
H15   H     H_    0.054327 0.696033 0.127228 0.216421
H16   H     H_    0.945706 0.303950 0.872787 0.216404
H17   H     H_    0.054417 0.303989 0.872757 0.216413
H18   H     H_    0.555917 0.825526 0.189049 0.258458
H19   H     H_    0.444318 0.825482 0.189234 0.258548
H20   H     H_    0.555961 0.174469 0.810994 0.258418
H21   H     H_    0.444363 0.174528 0.810719 0.258587
H22   H     H_    0.445653 0.196038 0.127212 0.216398
H23   H     H_    0.184977 0.701631 0.276195 0.131596
H24   H     H_    0.554363 0.196022 0.127252 0.216425
H25   H     H_    0.445609 0.803980 0.872774 0.216412
H26   H     H_    0.554321 0.803959 0.872758 0.216415
H27   H     H_    0.815174 0.298208 0.723764 0.131595
H28   H     H_    0.184870 0.298250 0.723768 0.131584
H29   H     H_    0.815232 0.701859 0.276248 0.131576
H30   H     H_    0.795729 0.685587 0.724264 0.121815
H31   H     H_    0.204181 0.314315 0.275722 0.121799
H32   H     H_    0.295966 0.814156 0.275675 0.121849
N1    N     N_R   0.000000 0.500000 0.852070 -0.217204
N2    N     N_3   0.500102 0.164024 0.867444 -0.662978
N3    N     N_3   0.499999 0.159715 0.155474 -0.548841
N4    N     N_3   0.499971 0.840285 0.844525 -0.548836
N5    N     N_R   0.000000 0.500000 0.147930 -0.217200
N6    N     N_R   0.500000 1.000000 0.852070 -0.217206
N7    N     N_R   0.500000 1.000000 0.147930 -0.217205
N8    N     N_3   0.000143 0.335973 0.132557 -0.662975
N9    N     N_3   0.999845 0.664025 0.867445 -0.662973
N10   N     N_3   0.999974 0.659714 0.155475 -0.548836
N11   N     N_3   0.000047 0.340285 0.844527 -0.548841
N12   N     N_3   0.500074 0.835977 0.132556 -0.662984
O1    O     O_R   0.090170 0.409820 0.618740 -0.477181
O2    O     O_R   0.409830 0.090180 0.381260 -0.477175
O3    O     O_R   0.409830 0.090180 0.618740 -0.521545
O4    O     O_R   0.590170 0.909820 0.381260 -0.521514
O5    O     O_R   0.409830 0.909820 0.381260 -0.521525
O6    O     O_R   0.590170 0.090180 0.618740 -0.521496
O7    O     O_R   0.590170 0.090180 0.381260 -0.477200
O8    O     O_R   0.409830 0.909820 0.618740 -0.477187
O9    O     O_R   0.909830 0.590180 0.381260 -0.477178
O10   O     O_R   0.909830 0.590180 0.618740 -0.521491
O11   O     O_R   0.090170 0.409820 0.381260 -0.521493
O12   O     O_R   0.909830 0.409820 0.381260 -0.521527
O13   O     O_R   0.090170 0.590180 0.618740 -0.521540
O14   O     O_R   0.090170 0.590180 0.381260 -0.477203
O15   O     O_R   0.909830 0.409820 0.618740 -0.477197
O16   O     O_R   0.590170 0.909820 0.618740 -0.477192

loop_
_geom_bond_atom_site_label_1
_geom_bond_atom_site_label_2
_ccdc_geom_bond_type
C10   C27   A    
Cu1   O1    S    
C11   C18   A    
C9    H1    S    
C6    N6    A    
H19   N12   S    
Cu1   Cu2   S    
C40   N8    S    
C7    N7    A    
C35   C36   S    
Cu4   N7    S    
C19   C31   A    
C1    O11   A    
H10   N8    S    
C19   H2    S    
C4    N11   S    
H22   N3    S    
C34   O14   A    
C37   O2    A    
H9    N8    S    
C8    N6    A    
Cu2   O12   S    
Cu1   N1    S    
C5    N7    A    
C6    N2    S    
H14   N10   S    
Cu3   O6    S    
C2    N9    S    
Cu3   O16   S    
Cu4   O5    S    
H17   N11   S    
C5    N12   S    
C23   O15   A    
C4    C40   A    
Cu1   O13   S    
C3    N5    A    
C18   H32   S    
C13   C28   A    
C32   C38   S    
C10   H12   S    
C12   O10   A    
Cu4   O4    S    
C21   H4    S    
C36   O4    A    
H24   N3    S    
C23   O12   A    
C10   C21   A    
C3    N10   S    
C17   C30   A    
Cu2   N5    S    
C14   H28   S    
C14   C30   A    
Cu2   O14   S    
H16   N11   S    
C11   H23   S    
C15   C29   A    
C27   C34   S    
C24   H6    S    
C21   C32   A    
C17   C24   A    
C13   C19   A    
H26   N4    S    
C34   O13   A    
Cu2   O9    S    
C37   O3    A    
C15   C26   A    
C13   H27   S    
C16   C29   A    
H18   N12   S    
Cu3   O3    S    
Cu1   O15   S    
C16   C22   A    
H11   N9    S    
Cu3   Cu4   S    
C25   H7    S    
C39   O6    A    
C22   C35   A    
C26   H8    S    
C9    C20   A    
C31   C39   S    
C11   C27   A    
C8    N4    S    
Cu3   O8    S    
C23   C28   S    
C39   O7    A    
C12   O9    A    
C22   H5    S    
C15   H29   S    
C16   H30   S    
C18   C32   A    
Cu4   O2    S    
C7    N3    S    
C1    O1    A    
H21   N2    S    
H20   N2    S    
C40   N5    A    
C12   C29   S    
C5    C8    A    
C6    C7    A    
C24   C33   A    
C36   O16   A    
C2    C3    A    
H15   N10   S    
C4    N1    A    
C2    N1    A    
Cu2   O11   S    
C38   O5    A    
C1    C30   S    
H13   N9    S    
C14   C25   A    
C33   C37   S    
C20   H3    S    
C26   C35   A    
C38   O8    A    
C17   H31   S    
Cu3   N6    S    
Cu1   O10   S    
H25   N4    S    
Cu4   O7    S    
C9    C28   A    
C25   C33   A    
C20   C31   A    
