data_mof_unit_40779.cif
_audit_creation_date              2012-12-11T15:19:33-0500
_audit_creation_method            fapswitch 2.2
_symmetry_space_group_name_H-M    P1
_symmetry_Int_Tables_number       1
_space_group_crystal_system       triclinic
_cell_length_a                    20.001108
_cell_length_b                    6.870683
_cell_length_c                    18.215778
_cell_angle_alpha                 89.723122
_cell_angle_beta                  104.222367
_cell_angle_gamma                 90.38169
_cell_volume                      2426.44298392

loop_
_atom_site_label
_atom_site_type_symbol
_atom_type_description
_atom_site_fract_x
_atom_site_fract_y
_atom_site_fract_z
_atom_type_partial_charge
O1    O     O_R   0.312200 0.620210 0.189560 -0.514822
O2    O     O_R   0.687800 0.379790 0.810440 -0.514818
O3    O     O_R   0.187800 0.120210 0.310440 -0.548209
O4    O     O_R   0.812200 0.879790 0.689560 -0.548209
O5    O     O_R   0.171590 0.286140 0.165000 -0.538264
O6    O     O_R   0.828410 0.713860 0.835000 -0.538265
O7    O     O_R   0.328410 0.786140 0.335000 -0.534869
O8    O     O_R   0.671590 0.213860 0.665000 -0.534869
C1    C     C_R   0.145674 0.459415 0.143752 0.706374
C2    C     C_R   0.854326 0.540585 0.856248 0.706360
C3    C     C_R   0.354317 0.959692 0.356249 0.706372
C4    C     C_R   0.645683 0.040308 0.643750 0.706377
O9    O     O_R   0.310670 0.290220 0.180540 -0.549906
O10   O     O_R   0.689330 0.709780 0.819460 -0.549903
O11   O     O_R   0.189330 0.790220 0.319460 -0.514751
O12   O     O_R   0.810670 0.209780 0.680540 -0.514749
O13   O     O_R   0.327870 0.124170 0.326080 -0.535358
O14   O     O_R   0.672130 0.875830 0.673920 -0.535357
O15   O     O_R   0.172130 0.624170 0.173920 -0.531456
O16   O     O_R   0.827870 0.375830 0.826080 -0.531459
C5    C     C_R   0.330987 0.460526 0.163798 0.738014
C6    C     C_R   0.669013 0.539474 0.836203 0.737999
C7    C     C_R   0.168786 0.958616 0.336077 0.738148
C8    C     C_R   0.831214 0.041384 0.663923 0.738147
O17   O     O_3   0.255480 0.455050 0.297740 -0.361142
O18   O     O_3   0.744520 0.544950 0.702260 -0.361140
O19   O     O_3   0.244520 0.955050 0.202260 -0.358339
O20   O     O_3   0.755480 0.044950 0.797740 -0.358339
V1    V     V_3+5 0.248980 0.178550 0.241140 1.427446
V2    V     V_3+5 0.751020 0.821450 0.758860 1.427442
V3    V     V_3+5 0.251020 0.678550 0.258860 1.472999
V4    V     V_3+5 0.748980 0.321450 0.741140 1.472996
C9    C     C_R   0.922933 0.871013 0.618605 -0.285930
C10   C     C_R   0.077067 0.128986 0.381396 -0.285905
C11   C     C_R   0.574118 0.677179 0.886118 -0.288200
C12   C     C_R   0.425886 0.322827 0.113888 -0.288198
C13   C     C_R   0.879597 0.032725 0.613390 -0.134934
C14   C     C_R   0.120404 0.967278 0.386612 -0.134942
C15   C     C_R   0.621102 0.526246 0.887105 -0.136839
C16   C     C_R   0.378900 0.473754 0.112897 -0.136845
C17   C     C_R   0.883942 0.184226 0.561647 0.276829
C18   C     C_R   0.116064 0.815785 0.438360 0.276809
C19   C     C_R   0.620444 0.362348 0.934444 0.275518
C20   C     C_R   0.379555 0.637647 0.065555 0.275523
C21   C     C_R   0.931744 0.170338 0.515566 0.000748
C22   C     C_R   0.068265 0.829679 0.484444 0.000734
C23   C     C_R   0.572526 0.352862 0.980564 0.013041
C24   C     C_R   0.427476 0.647141 0.019439 0.013046
C25   C     C_R   0.975913 0.007108 0.522748 -0.032815
C26   C     C_R   0.024096 0.992907 0.477262 -0.032813
C27   C     C_R   0.524309 0.504871 0.977396 -0.040206
C28   C     C_R   0.475695 0.495136 0.022610 -0.040211
C29   C     C_R   0.971974 0.857983 0.575321 0.070708
C30   C     C_R   0.028033 0.142026 0.424687 0.070689
C31   C     C_R   0.524621 0.666611 0.929087 0.076203
C32   C     C_R   0.475383 0.333395 0.070919 0.076205
C33   C     C_R   0.935850 0.315006 0.461821 -0.254819
C34   C     C_R   0.064162 0.685015 0.538192 -0.254862
C35   C     C_R   0.572238 0.195849 0.030455 -0.251506
C36   C     C_R   0.427765 0.804154 0.969549 -0.251498
C37   C     C_R   0.982792 0.301928 0.416373 0.287789
C38   C     C_R   0.017218 0.698086 0.583638 0.287798
C39   C     C_R   0.524808 0.185199 0.075513 0.289559
C40   C     C_R   0.475196 0.814806 0.924492 0.289556
H1    H     H_    0.919009 0.755701 0.658093 0.183590
H2    H     H_    0.080986 0.244287 0.341901 0.183608
H3    H     H_    0.575279 0.801640 0.849733 0.177788
H4    H     H_    0.424727 0.198367 0.150274 0.177787
H5    H     H_    0.901936 0.439284 0.453193 0.139484
H6    H     H_    0.098079 0.560744 0.546822 0.139481
H7    H     H_    0.609427 0.079871 0.036197 0.138917
H8    H     H_    0.390575 0.920131 0.963806 0.138916
C41   C     C_1   0.583201 0.027112 0.581553 -0.201879
C42   C     C_1   0.416799 0.972888 0.418446 -0.201879
C43   C     C_1   0.916819 0.527728 0.918469 -0.202653
C44   C     C_1   0.083181 0.472272 0.081531 -0.202650
C45   C     C_1   0.530868 0.010715 0.530169 0.000288
C46   C     C_1   0.469132 0.989285 0.469831 0.000288
C47   C     C_1   0.969140 0.511012 0.969841 -0.000501
C48   C     C_1   0.030860 0.488988 0.030159 -0.000502
N1    N     N_2   0.839917 0.348739 0.556404 -0.500316
H9    H     H_    0.863286 0.482204 0.554713 0.260378
C49   C     C_3   0.773836 0.328737 0.502504 -0.531739
H10   H     H_    0.780828 0.318449 0.444004 0.180273
H11   H     H_    0.741620 0.457655 0.506084 0.194378
H12   H     H_    0.746335 0.196776 0.515428 0.186270
N2    N     N_2   0.160090 0.651272 0.443603 -0.500309
H13   H     H_    0.136721 0.517802 0.445297 0.260370
C50   C     C_3   0.226173 0.671281 0.497503 -0.531699
H14   H     H_    0.219183 0.681582 0.556005 0.180264
H15   H     H_    0.253673 0.803244 0.484573 0.186263
H16   H     H_    0.258388 0.542358 0.493926 0.194370
N3    N     N_2   0.668261 0.208913 0.935108 -0.500312
H17   H     H_    0.648305 0.069951 0.933653 0.256255
C51   C     C_3   0.734264 0.233822 0.988721 -0.529635
H18   H     H_    0.727901 0.229676 0.047607 0.178878
H19   H     H_    0.758266 0.374622 0.978678 0.183380
H20   H     H_    0.769323 0.114611 0.981576 0.196393
N4    N     N_2   0.331724 0.791057 0.064877 -0.500309
H21   H     H_    0.351671 0.930031 0.066336 0.256253
C52   C     C_3   0.265731 0.766110 0.011248 -0.529689
H22   H     H_    0.272106 0.770295 0.952368 0.178894
H23   H     H_    0.230655 0.885279 0.018390 0.196401
H24   H     H_    0.241741 0.625281 0.021276 0.183383
N5    N     N_2   0.983899 0.451223 0.362118 -0.529048
H25   H     H_    0.972700 0.587516 0.379223 0.262439
C53   C     C_3   0.943494 0.406903 0.286604 -0.571998
H26   H     H_    0.887886 0.396451 0.286056 0.193544
H27   H     H_    0.960301 0.267630 0.266323 0.205109
H28   H     H_    0.950560 0.524492 0.247113 0.200216
N6    N     N_2   0.016114 0.548784 0.637893 -0.529033
H29   H     H_    0.027346 0.412507 0.620800 0.262427
C54   C     C_3   0.056486 0.593156 0.713418 -0.571944
H30   H     H_    0.112093 0.603875 0.713979 0.193547
H31   H     H_    0.049473 0.475462 0.752893 0.200193
H32   H     H_    0.039600 0.732315 0.733710 0.205089
N7    N     N_2   0.527393 0.023761 0.125497 -0.526117
H33   H     H_    0.542157 0.895605 0.104891 0.262985
C55   C     C_3   0.566376 0.060561 0.202261 -0.573402
H34   H     H_    0.621616 0.085992 0.203624 0.193230
H35   H     H_    0.562323 0.932418 0.238327 0.200749
H36   H     H_    0.545871 0.189282 0.226044 0.205709
N8    N     N_2   0.472610 0.976244 0.874509 -0.526121
H37   H     H_    0.457844 0.104397 0.895114 0.262989
C56   C     C_3   0.433631 0.939440 0.797745 -0.573421
H38   H     H_    0.378390 0.914024 0.796379 0.193234
H39   H     H_    0.454134 0.810711 0.773964 0.205712
H40   H     H_    0.437690 0.067572 0.761678 0.200756

loop_
_geom_bond_atom_site_label_1
_geom_bond_atom_site_label_2
_ccdc_geom_bond_type
C34   C38   A    
N2    H13   S    
O17   V3    S    
N3    H17   S    
O19   V1    S    
O13   V1    S    
O12   C8    A    
O3    C7    A    
C51   H18   S    
O15   V3    S    
C10   H2    S    
N1    H9    S    
C51   H20   S    
C9    H1    S    
N8    H37   S    
C45   C46   S    
O1    C5    A    
N5    C53   S    
C21   C33   A    
C52   H22   S    
C49   H10   S    
O9    V1    S    
C14   C18   A    
N7    C55   S    
C18   C22   A    
C39   N7    S    
C20   N4    S    
C25   C29   A    
N8    C56   S    
C36   H8    S    
O1    V3    S    
O2    V4    S    
C29   C38   A    
O3    V1    S    
C12   C16   A    
C1    O15   A    
C38   N6    S    
N6    H29   S    
C2    O16   A    
O2    C6    A    
C56   H40   S    
C53   H26   S    
C24   C36   A    
O14   V2    S    
C1    C44   S    
C21   C25   A    
C50   H15   S    
C37   N5    S    
C16   C20   A    
C54   H32   S    
O11   C7    A    
N3    C51   S    
C4    C41   S    
C22   C34   A    
O17   V1    S    
C53   H27   S    
O10   V2    S    
N1    C49   S    
O7    C3    A    
O5    V1    S    
C55   H35   S    
C9    C29   A    
O7    V3    S    
C11   C31   A    
C27   C28   A    
O8    V4    S    
O20   V4    S    
O18   V4    S    
C34   H6    S    
C15   C19   A    
O19   V3    S    
C9    C13   A    
C11   C15   A    
O5    C1    A    
C12   C32   A    
C2    C43   S    
N4    H21   S    
C11   H3    S    
O8    C4    A    
C17   N1    S    
C31   C40   A    
C51   H19   S    
C8    C13   S    
C32   C39   A    
O9    C5    A    
N6    C54   S    
C26   C30   A    
C50   H16   S    
C33   C37   A    
C49   H11   S    
C10   C30   A    
C52   H24   S    
N2    C50   S    
C56   H38   S    
C53   H28   S    
C7    C14   S    
C54   H30   S    
O16   V4    S    
C55   H36   S    
C3    O13   A    
C17   C21   A    
O6    V2    S    
C10   C14   A    
C44   C48   T    
C3    C42   S    
O6    C2    A    
C23   C27   A    
C55   H34   S    
C12   H4    S    
O11   V3    S    
C30   C37   A    
O12   V4    S    
C40   N8    S    
N5    H25   S    
C22   C26   A    
C35   C39   A    
C36   C40   A    
O10   C6    A    
O20   V2    S    
N7    H33   S    
C5    C16   S    
C19   C23   A    
O4    C8    A    
C6    C15   S    
C19   N3    S    
C27   C31   A    
C13   C17   A    
C23   C35   A    
C47   C48   S    
C28   C32   A    
C24   C28   A    
C49   H12   S    
C52   H23   S    
C25   C26   A    
C42   C46   T    
C4    O14   A    
C56   H39   S    
C41   C45   T    
C18   N2    S    
C33   H5    S    
C50   H14   S    
C43   C47   T    
N4    C52   S    
O4    V2    S    
C20   C24   A    
C35   H7    S    
C54   H31   S    
O18   V2    S    
