data_mof_unit_33018.cif
_audit_creation_date              2012-12-10T18:45:06-0500
_audit_creation_method            fapswitch 2.2
_symmetry_space_group_name_H-M    P1
_symmetry_Int_Tables_number       1
_space_group_crystal_system       triclinic
_cell_length_a                    10.716531
_cell_length_b                    9.851141
_cell_length_c                    10.708564
_cell_angle_alpha                 90.836211
_cell_angle_beta                  89.676916
_cell_angle_gamma                 90.320805
_cell_volume                      1130.34814628

loop_
_atom_site_label
_atom_site_type_symbol
_atom_type_description
_atom_site_fract_x
_atom_site_fract_y
_atom_site_fract_z
_atom_type_partial_charge
Br1   Br    Br    0.750948 0.734072 0.257099 -0.541229
Br2   Br    Br    0.713105 0.775577 0.756895 -0.560161
C1    C     C_R   0.259944 0.499689 0.500069 0.881960
C2    C     C_R   0.512032 0.501575 0.740150 0.896739
C3    C     C_R   0.624885 0.742769 0.131936 0.177767
C4    C     C_R   0.585687 0.755104 0.881319 0.111440
C5    C     C_R   0.605469 0.869556 0.078337 0.377132
C6    C     C_R   0.567284 0.872961 0.953784 0.303179
C7    C     C_R   0.570702 0.627551 0.938537 -0.050584
C8    C     C_R   0.582938 0.623200 0.068975 -0.063375
C9    C     C_R   0.551891 0.500802 0.130260 -0.052974
C10   C     C_R   0.543227 0.505005 0.872110 -0.048170
C11   C     C_R   0.540819 0.379565 0.062565 -0.216675
C12   C     C_R   0.740101 0.500099 0.500234 0.916312
C13   C     C_R   0.541193 0.381408 0.934597 -0.209623
C14   C     C_R   0.063378 0.377730 0.478171 -0.185994
C15   C     C_R   0.935556 0.378010 0.478009 -0.195084
C16   C     C_R   0.872598 0.500069 0.499680 0.003069
C17   C     C_R   0.127485 0.499504 0.500007 -0.020715
C18   C     C_3   0.727459 0.059202 0.104561 0.175981
C19   C     C_3   0.777037 0.151262 0.208567 -0.834999
C20   C     C_3   0.409836 0.967492 0.844435 0.126459
C21   C     C_3   0.345303 0.100405 0.816616 -0.843708
C22   C     C_R   0.936801 0.621872 0.520803 -0.104862
C23   C     C_R   0.064507 0.621575 0.521268 -0.189728
C24   C     C_R   0.609375 0.072637 0.502884 -0.029904
C25   C     C_R   0.390599 0.071035 0.494867 -0.077461
C26   C     C_R   0.609350 0.929265 0.501526 0.069568
C27   C     C_R   0.390576 0.927464 0.495244 -0.096757
C28   C     C_R   0.517105 0.499863 0.261166 0.899182
H1    H     H_    0.523701 0.283661 0.107974 0.201505
H2    H     H_    0.302729 0.873305 0.492135 0.132274
H3    H     H_    0.700192 0.123160 0.024682 0.182802
H4    H     H_    0.805112 0.990867 0.074314 0.154739
H5    H     H_    0.855903 0.213555 0.173015 0.216407
H6    H     H_    0.810600 0.088897 0.287031 0.253038
H7    H     H_    0.702529 0.219963 0.243597 0.269668
H8    H     H_    0.345947 0.908487 0.906337 0.129818
H9    H     H_    0.423006 0.910416 0.755105 0.175188
H10   H     H_    0.402075 0.159374 0.749754 0.277552
H11   H     H_    0.252811 0.079423 0.774020 0.207154
H12   H     H_    0.530517 0.285813 0.885292 0.208919
H13   H     H_    0.331521 0.160383 0.904169 0.257605
H14   H     H_    0.111520 0.282899 0.460573 0.149418
H15   H     H_    0.886546 0.283268 0.460345 0.152169
H16   H     H_    0.888885 0.716970 0.537249 0.186573
H17   H     H_    0.113430 0.716416 0.538796 0.147372
H18   H     H_    0.697224 0.126793 0.505735 0.122270
H19   H     H_    0.302788 0.124124 0.491516 0.132126
H20   H     H_    0.697386 0.876692 0.502183 0.166604
N1    N     N_R   0.500000 0.857200 0.500000 -0.077795
N2    N     N_R   0.500000 0.142810 0.500000 -0.087334
O1    O     O_R   0.316770 0.614620 0.499990 -0.637563
O2    O     O_3   0.526818 0.992724 0.901721 -0.598737
O3    O     O_R   0.683230 0.614620 0.500010 -0.580007
O4    O     O_R   0.316800 0.385290 0.500000 -0.632360
O5    O     O_R   0.683200 0.385290 0.500000 -0.653851
O6    O     O_R   0.500010 0.614690 0.316770 -0.584590
O7    O     O_R   0.499990 0.614690 0.683230 -0.595140
O8    O     O_R   0.500040 0.385360 0.316770 -0.625393
O9    O     O_R   0.499960 0.385360 0.683230 -0.635258
O10   O     O_3   0.622475 0.986722 0.149346 -0.581984
Zn1   Zn    Zn3+2 0.500000 0.653120 0.500000 0.998225
Zn2   Zn    Zn3+2 0.500000 0.346880 0.500000 0.951801

loop_
_geom_bond_atom_site_label_1
_geom_bond_atom_site_label_2
_ccdc_geom_bond_type
O9    Zn2   S    
C22   C23   A    
O4    Zn2   S    
C5    O10   S    
C1    C17   S    
C19   H5    S    
C24   N2    A    
C2    C10   S    
C9    C11   A    
C1    O4    A    
C14   H14   S    
O7    Zn1   S    
C21   H11   S    
C10   C13   A    
C24   H18   S    
O8    Zn2   S    
C18   H4    S    
C4    C7    A    
C12   O3    A    
C22   H16   S    
C3    C8    A    
C20   O2    S    
C19   H6    S    
C25   N2    A    
C18   O10   S    
O1    Zn1   S    
C1    O1    A    
Br2   C4    S    
C26   H20   S    
C14   C17   A    
Br1   C3    S    
C18   H3    S    
C28   O6    A    
C2    O7    A    
C19   H7    S    
C7    C10   A    
C15   H15   S    
C15   C16   A    
C27   H2    S    
C11   C13   A    
N2    Zn2   S    
C17   C23   A    
C26   N1    A    
C16   C22   A    
C25   C27   A    
C8    C9    A    
C20   H9    S    
C27   N1    A    
C21   H10   S    
C20   H8    S    
C5    C6    A    
N1    Zn1   S    
C18   C19   S    
C13   H12   S    
O5    Zn2   S    
C7    C8    A    
C6    O2    S    
O6    Zn1   S    
C3    C5    A    
C12   O5    A    
C12   C16   S    
C23   H17   S    
C4    C6    A    
C20   C21   S    
C21   H13   S    
C24   C26   A    
C2    O9    A    
C11   H1    S    
C25   H19   S    
C9    C28   S    
O3    Zn1   S    
C14   C15   A    
C28   O8    A    
