data_mof_unit_23692.cif
_audit_creation_date              2012-10-26T19:11:33-0400
_audit_creation_method            fapswitch 2.2
_symmetry_space_group_name_H-M    P1
_symmetry_Int_Tables_number       1
_space_group_crystal_system       triclinic
_cell_length_a                    15.874562
_cell_length_b                    15.909317
_cell_length_c                    14.672907
_cell_angle_alpha                 90.681874
_cell_angle_beta                  90.263741
_cell_angle_gamma                 89.654057
_cell_volume                      3705.32511541

loop_
_atom_site_label
_atom_site_type_symbol
_atom_type_description
_atom_site_fract_x
_atom_site_fract_y
_atom_site_fract_z
_atom_type_partial_charge
Br1   Br    Br    0.421256 0.100343 0.680140 -0.140776
Br2   Br    Br    0.932068 0.492880 0.709785 -0.296161
Br3   Br    Br    0.335523 0.599264 0.911231 -0.145961
Br4   Br    Br    0.931025 0.335591 0.384658 -0.224895
Br5   Br    Br    0.620464 0.902610 0.670203 -0.161936
C1    C     C_R   0.500125 0.339973 0.499551 0.557222
C2    C     C_3   0.579411 0.049432 0.441322 0.061318
C3    C     C_3   0.583809 0.949139 0.439117 0.309266
C4    C     C_R   0.339530 0.500229 0.499754 0.551158
C5    C     C_1   0.502988 0.749100 0.502071 0.129639
C6    C     C_3   0.506436 0.083575 0.506426 -0.113631
C7    C     C_3   0.519323 0.950206 0.610984 0.289058
C8    C     C_3   0.510484 0.916268 0.507406 -0.107200
C9    C     C_3   0.422954 0.949116 0.472939 -0.276600
C10   C     C_3   0.422805 0.045692 0.462115 0.022391
C11   C     C_1   0.506457 0.824297 0.504485 0.105051
C12   C     C_3   0.083317 0.500825 0.499105 -0.073079
C13   C     C_1   0.503237 0.175524 0.501501 0.132031
C14   C     C_1   0.501515 0.250782 0.499073 0.147798
C15   C     C_3   0.541994 0.591703 0.058479 0.265717
C16   C     C_R   0.500167 0.660005 0.500508 0.555430
C17   C     C_3   0.400222 0.484271 0.053897 0.326655
C18   C     C_3   0.401737 0.500193 0.943650 0.256953
C19   C     C_3   0.494899 0.505518 0.092626 -0.127308
C20   C     C_3   0.556984 0.584076 0.946435 0.295019
C21   C     C_3   0.498816 0.506455 0.907727 -0.124306
C22   C     C_3   0.541850 0.425687 0.946335 -0.274121
C23   C     C_3   0.970903 0.569776 0.460941 0.213514
C24   C     C_3   0.550411 0.431983 0.052158 -0.301892
C25   C     C_1   0.500781 0.503235 0.804689 0.335757
C26   C     C_1   0.496905 0.500976 0.195413 0.313260
C27   C     C_R   0.660462 0.499815 0.500227 0.552365
C28   C     C_3   0.972785 0.496431 0.585573 0.110196
C29   C     C_3   0.029115 0.430158 0.537899 0.169118
C30   C     C_1   0.250112 0.500785 0.499281 0.103547
C31   C     C_1   0.749866 0.499345 0.500567 0.090224
C32   C     C_3   0.027689 0.568074 0.546982 -0.128057
C33   C     C_3   0.916647 0.499192 0.499804 -0.054887
C34   C     C_3   0.027164 0.503582 0.413585 0.236318
C35   C     C_3   0.972551 0.432472 0.452159 0.125382
C36   C     C_1   0.174756 0.501115 0.499131 0.095363
C37   C     C_1   0.825215 0.499046 0.500380 0.093662
C38   C     C_3   0.516163 0.052059 0.609796 0.326435
Cu1   Cu    Cu3+1 0.499890 0.499910 0.589920 1.197442
Cu2   Cu    Cu3+1 0.500110 0.500090 0.410080 1.178482
H1    H     H_    0.425611 0.056698 0.387749 0.196112
H2    H     H_    0.950841 0.304409 0.649358 0.366837
H3    H     H_    0.737995 0.218763 0.487667 0.383048
H4    H     H_    0.801395 0.868837 0.388452 0.394341
H5    H     H_    0.466541 0.916097 0.217171 0.411124
H6    H     H_    0.231633 0.000611 0.531707 0.372307
H7    H     H_    0.308695 0.901453 0.719205 0.405601
H8    H     H_    0.596433 0.726471 0.754324 0.407131
H9    H     H_    0.428793 0.733747 0.219989 0.387735
H10   H     H_    0.248856 0.350027 0.142226 0.401993
H11   H     H_    0.176918 0.529028 0.111875 0.394474
H12   H     H_    0.372435 0.929962 0.518667 0.219884
H13   H     H_    0.343438 0.296618 0.820362 0.412350
H14   H     H_    0.686781 0.499707 0.203557 0.348663
H15   H     H_    0.778168 0.485366 0.948767 0.409306
H16   H     H_    0.010014 0.512487 0.165425 0.385222
H17   H     H_    0.982915 0.774357 0.351384 0.390340
H18   H     H_    0.639733 0.104060 0.815650 0.391843
H19   H     H_    0.403073 0.917486 0.409034 0.198140
H20   H     H_    0.616384 0.438267 0.069666 0.232751
H21   H     H_    0.538473 0.370777 0.084228 0.214271
H22   H     H_    0.603371 0.411404 0.914584 0.217858
H23   H     H_    0.507540 0.368926 0.927008 0.241468
H24   H     H_    0.050918 0.623839 0.585475 0.201183
H25   H     H_    0.553664 0.063873 0.373149 0.172414
N1    N     N_1   0.501700 0.501390 0.724970 -0.104097
N2    N     N_1   0.498280 0.498620 0.275030 -0.116387
O1    O     O_R   0.499910 0.379360 0.575970 -0.481220
O2    O     O_2   0.116180 0.359096 0.675178 -0.177921
O3    O     O_3   0.990732 0.270934 0.611789 -0.400964
O4    O     O_2   0.749512 0.066520 0.397071 -0.112752
O5    O     O_2   0.651716 0.172024 0.343198 -0.258429
O6    O     O_3   0.695095 0.179500 0.510788 -0.443517
O7    O     O_2   0.737789 0.955941 0.531749 -0.146623
O8    O     O_2   0.682271 0.816208 0.498511 -0.238798
O9    O     O_3   0.748946 0.897788 0.369188 -0.365784
O10   O     O_2   0.631375 0.947632 0.259640 -0.112616
O11   O     O_2   0.567451 0.818869 0.315082 -0.206232
O12   O     O_R   0.500090 0.379510 0.424100 -0.492847
O13   O     O_3   0.472006 0.946387 0.276261 -0.570962
O14   O     O_2   0.326593 0.184387 0.510913 -0.189886
O15   O     O_2   0.269755 0.088733 0.396526 -0.205560
O16   O     O_3   0.265760 0.043270 0.564605 -0.383019
O17   O     O_2   0.448461 0.809505 0.686560 -0.256627
O18   O     O_2   0.463045 0.932287 0.785065 -0.109906
O19   O     O_3   0.340629 0.929513 0.670478 -0.483316
O20   O     O_2   0.455492 0.715305 0.866521 -0.152755
O21   O     O_2   0.592651 0.752034 0.926771 -0.132019
O22   O     O_3   0.583255 0.669332 0.775895 -0.453829
O23   O     O_R   0.378990 0.499920 0.575920 -0.474947
O24   O     O_2   0.546457 0.761278 0.100725 -0.131585
O25   O     O_2   0.416621 0.717002 0.032667 -0.159748
O26   O     O_3   0.447156 0.676817 0.200145 -0.463058
O27   O     O_2   0.415058 0.306121 0.028753 -0.202490
O28   O     O_2   0.398673 0.357853 0.182462 -0.278075
O29   O     O_3   0.268816 0.353920 0.078550 -0.353955
O30   O     O_2   0.312877 0.513917 0.213092 -0.226572
O31   O     O_2   0.311543 0.632899 0.112337 -0.159149
O32   O     O_3   0.220457 0.509521 0.068242 -0.406708
O33   O     O_2   0.253917 0.413455 0.913935 -0.096377
O34   O     O_R   0.379170 0.500070 0.424050 -0.463928
O35   O     O_2   0.327522 0.458348 0.779734 -0.242647
O36   O     O_3   0.383633 0.328105 0.859491 -0.476982
O37   O     O_2   0.693822 0.674920 0.086151 -0.075805
O38   O     O_2   0.617866 0.638588 0.221124 -0.202518
O39   O     O_3   0.704531 0.523726 0.144728 -0.454321
O40   O     O_2   0.672936 0.529734 0.817202 -0.252298
O41   O     O_2   0.721641 0.640474 0.917277 -0.112138
O42   O     O_3   0.721335 0.489699 0.976087 -0.492305
O43   O     O_2   0.117435 0.585929 0.288916 -0.210297
O44   O     O_2   0.119805 0.431732 0.280971 -0.224552
O45   O     O_R   0.499910 0.620490 0.575900 -0.470838
O46   O     O_3   0.984120 0.509354 0.226569 -0.412894
O47   O     O_2   0.876483 0.640725 0.329903 -0.170223
O48   O     O_2   0.877152 0.709718 0.480445 -0.224301
O49   O     O_3   0.010103 0.724455 0.378879 -0.445226
O50   O     O_2   0.687801 0.073908 0.640949 -0.140239
O51   O     O_2   0.596241 0.195131 0.669710 -0.246878
O52   O     O_3   0.594129 0.073272 0.783577 -0.402797
O53   O     O_R   0.500090 0.620640 0.424030 -0.465921
O54   O     O_R   0.620830 0.499930 0.575950 -0.472413
O55   O     O_R   0.621010 0.500080 0.424080 -0.500861
O56   O     O_2   0.129721 0.294549 0.523454 -0.139671
S1    S     S_3+6 0.069919 0.336939 0.588684 0.153215
S2    S     S_3+6 0.312856 0.539222 0.114645 0.148399
S3    S     S_3+6 0.340024 0.423830 0.873954 0.130614
S4    S     S_3+6 0.641179 0.607237 0.127244 0.151764
S5    S     S_3+6 0.669866 0.561660 0.914011 0.108641
S6    S     S_3+6 0.065833 0.507846 0.299789 0.116340
S7    S     S_3+6 0.929901 0.663325 0.411280 0.109108
S8    S     S_3+6 0.602490 0.100897 0.673608 0.140573
S9    S     S_3+6 0.672096 0.115843 0.422248 0.121867
S10   S     S_3+6 0.689327 0.904321 0.463637 0.178622
S11   S     S_3+6 0.564142 0.913265 0.320397 0.077222
S12   S     S_3+6 0.319918 0.093372 0.483655 0.104801
S13   S     S_3+6 0.441865 0.903787 0.689562 0.105710
S14   S     S_3+6 0.543046 0.683122 0.881124 0.172646
S15   S     S_3+6 0.485945 0.688977 0.094504 0.153580
S16   S     S_3+6 0.372925 0.373121 0.085217 0.124324

loop_
_geom_bond_atom_site_label_1
_geom_bond_atom_site_label_2
_ccdc_geom_bond_type
C6    C13   S    
C3    C8    S    
C32   H24   S    
O26   S15   S    
C22   C24   S    
C23   S7    S    
H15   O42   S    
C20   S14   S    
O40   S5    D    
O56   S1    D    
C2    H25   S    
O11   S11   D    
H18   O52   S    
C2    C3    S    
O33   S3    D    
O4    S9    D    
Cu1   Cu2   S    
C2    C6    S    
C1    C14   S    
Cu1   O54   S    
C21   C22   S    
C3    S11   S    
C29   C35   S    
C27   C31   S    
C27   O55   A    
O5    S9    D    
C33   C37   S    
C7    C38   S    
O29   S16   S    
O17   S13   D    
O44   S6    D    
C15   C20   S    
H4    O9    S    
C7    S13   S    
Cu1   N1    S    
C3    S10   S    
C13   C14   T    
C12   C34   S    
C18   C21   S    
H3    O6    S    
Br3   C18   S    
C19   C24   S    
O16   S12   S    
O36   S3    S    
C16   O45   A    
C22   H23   S    
H5    O13   S    
C31   C37   T    
Br1   C38   S    
O25   S15   D    
O13   S11   S    
C15   C19   S    
C29   S1    S    
Cu2   O53   S    
H14   O39   S    
C6    C38   S    
O20   S14   D    
O15   S12   D    
O46   S6    S    
O14   S12   D    
H8    O22   S    
O41   S5    D    
C8    C9    S    
C17   S2    S    
Cu2   N2    S    
C15   S15   S    
Cu1   O1    S    
C6    C10   S    
C15   S4    S    
C25   N1    T    
C12   C36   S    
C5    C16   S    
O9    S10   S    
C1    O12   A    
O52   S8    S    
O22   S14   S    
Br4   C35   S    
O27   S16   D    
H11   O32   S    
Br5   C7    S    
O35   S3    D    
O28   S16   D    
C34   C35   S    
C2    S9    S    
C23   C34   S    
C4    O34   A    
C28   C32   S    
O10   S11   D    
C23   C33   S    
C9    H19   S    
O37   S4    D    
C28   C29   S    
C18   S3    S    
C12   C32   S    
O49   S7    S    
O38   S4    D    
O50   S8    D    
C27   O54   A    
C24   H20   S    
Br2   C28   S    
C26   N2    T    
C21   C25   S    
C17   C19   S    
C8    C11   S    
Cu2   O12   S    
C12   C29   S    
C16   O53   A    
O6    S9    S    
C20   S5    S    
Cu2   O34   S    
C1    O1    A    
C10   S12   S    
C9    H12   S    
C4    O23   A    
H16   O46   S    
C9    C10   S    
O30   S2    D    
H6    O16   S    
O43   S6    D    
H10   O29   S    
C28   C33   S    
O51   S8    D    
O48   S7    D    
C20   C21   S    
C19   C26   S    
H2    O3    S    
Cu1   O23   S    
C5    C11   T    
O24   S15   D    
C33   C35   S    
C23   C32   S    
Cu2   O55   S    
O8    S10   D    
O42   S5    S    
H13   O36   S    
C38   S8    S    
C30   C36   T    
O31   S2    D    
O47   S7    D    
O18   S13   D    
C22   H22   S    
C24   H21   S    
O39   S4    S    
O7    S10   D    
Cu1   O45   S    
C7    C8    S    
O2    S1    D    
C17   S16   S    
C4    C30   S    
C17   C18   S    
H9    O26   S    
H7    O19   S    
O32   S2    S    
C10   H1    S    
H17   O49   S    
O21   S14   D    
O3    S1    S    
O19   S13   S    
C34   S6    S    
