data_mof_unit_50022.cif
_audit_creation_date              2012-12-10T16:51:13-0500
_audit_creation_method            fapswitch 2.2
_symmetry_space_group_name_H-M    P1
_symmetry_Int_Tables_number       1
_space_group_crystal_system       triclinic
_cell_length_a                    27.786993
_cell_length_b                    8.659643
_cell_length_c                    7.433279
_cell_angle_alpha                 103.193109
_cell_angle_beta                  93.897656
_cell_angle_gamma                 92.5522
_cell_volume                      1734.07710403

loop_
_atom_site_label
_atom_site_type_symbol
_atom_type_description
_atom_site_fract_x
_atom_site_fract_y
_atom_site_fract_z
_atom_type_partial_charge
C1    C     C_R   0.498529 0.199548 0.452992 0.892312
C2    C     C_R   0.501470 0.800452 0.547008 0.892443
C3    C     C_R   0.102032 0.480459 0.515572 -0.060685
C4    C     C_R   0.897850 0.510367 0.487228 -0.059983
C5    C     C_R   0.123726 0.337633 0.435912 -0.067759
C6    C     C_R   0.876207 0.656689 0.551561 -0.069338
C7    C     C_R   0.093407 0.198653 0.352655 0.087803
C8    C     C_R   0.906578 0.797789 0.623990 0.085617
C9    C     C_R   0.131606 0.617453 0.603274 -0.027160
C10   C     C_R   0.868246 0.369431 0.418752 -0.024705
C11   C     C_R   0.354627 0.494367 0.509168 -0.036637
C12   C     C_R   0.645379 0.504641 0.491013 -0.036472
C13   C     C_R   0.969872 0.355988 0.424869 0.055628
C14   C     C_R   0.029983 0.633476 0.583155 0.058563
C15   C     C_R   0.978863 0.642455 0.566735 -0.002568
C16   C     C_R   0.021034 0.350591 0.424319 -0.003871
C17   C     C_R   0.948998 0.503155 0.492903 0.073296
C18   C     C_R   0.050876 0.487882 0.507907 0.072191
C19   C     C_R   0.938653 0.217775 0.362872 -0.229435
C20   C     C_R   0.061146 0.765315 0.675596 -0.221909
C21   C     C_R   0.889061 0.224934 0.359190 -0.172209
C22   C     C_R   0.110751 0.757667 0.683155 -0.169598
C23   C     C_R   0.407489 0.498843 0.502822 0.799363
C24   C     C_R   0.592512 0.501052 0.497190 0.799001
C25   C     C_R   0.043132 0.211114 0.342155 -0.217748
C26   C     C_R   0.956839 0.787539 0.622244 -0.220902
C27   C     C_2   0.497832 0.031434 0.426599 -0.363183
C28   C     C_2   0.502166 0.968566 0.573401 -0.363368
C29   C     C_R   0.175119 0.342086 0.440617 0.524015
C30   C     C_R   0.824778 0.654196 0.539809 0.521129
C31   C     C_R   0.181808 0.613281 0.606942 0.521439
C32   C     C_R   0.818070 0.374102 0.416112 0.523195
C33   C     C_R   0.274460 0.477494 0.351844 -0.100433
C34   C     C_R   0.716436 0.492612 0.316351 -0.095225
C35   C     C_R   0.324504 0.483824 0.346486 -0.208226
C36   C     C_R   0.666307 0.488287 0.321116 -0.215865
C37   C     C_R   0.333739 0.498274 0.677151 -0.215564
C38   C     C_R   0.675476 0.526054 0.655769 -0.206078
C39   C     C_R   0.283625 0.491652 0.682039 -0.096553
C40   C     C_R   0.725510 0.530730 0.650604 -0.107563
C41   C     C_R   0.253872 0.481182 0.519396 0.368632
C42   C     C_R   0.746103 0.513833 0.481112 0.373385
Cu1   Cu    Cu3+1 0.505380 0.517380 0.684380 0.955738
Cu2   Cu    Cu3+1 0.494620 0.482620 0.315620 0.955795
H1    H     H_    0.356038 0.505895 0.804547 0.157245
H2    H     H_    0.660442 0.539143 0.788707 0.158024
H3    H     H_    0.462081 0.378033 0.948505 0.224892
H4    H     H_    0.537917 0.621970 0.051495 0.225247
H5    H     H_    0.267865 0.494793 0.812049 0.136042
H6    H     H_    0.748372 0.546316 0.778180 0.133010
H7    H     H_    0.644026 0.471954 0.192067 0.158333
H8    H     H_    0.339529 0.480718 0.215110 0.157648
H9    H     H_    0.732266 0.479250 0.184901 0.133736
H10   H     H_    0.251590 0.470539 0.225955 0.137346
H11   H     H_    0.866965 0.115099 0.309810 0.188671
H12   H     H_    0.132819 0.863362 0.753399 0.188960
H13   H     H_    0.951039 0.099839 0.321731 0.136645
H14   H     H_    0.048698 0.876771 0.747696 0.132283
H15   H     H_    0.021323 0.110654 0.263168 0.134196
H16   H     H_    0.978751 0.896125 0.660968 0.134606
H17   H     H_    0.493762 0.959168 0.285432 0.179811
H18   H     H_    0.506236 0.040832 0.714568 0.179727
N1    N     N_R   0.202347 0.478070 0.524506 -0.460206
N2    N     N_R   0.797585 0.514412 0.476833 -0.461605
N3    N     N_2   0.486510 0.456430 0.038510 -0.218144
N4    N     N_2   0.513490 0.543570 0.961490 -0.218091
O1    O     O_R   0.503500 0.286120 0.619780 -0.583061
O2    O     O_R   0.496500 0.713880 0.380220 -0.582959
O3    O     O_R   0.494410 0.256780 0.308360 -0.582937
O4    O     O_R   0.505590 0.743220 0.691640 -0.582907
O5    O     O_R   0.434810 0.514700 0.655690 -0.591592
O6    O     O_R   0.565190 0.485300 0.344310 -0.591706
O7    O     O_R   0.425720 0.485350 0.344280 -0.584354
O8    O     O_R   0.574280 0.514650 0.655720 -0.584564
O9    O     O_2   0.198266 0.213768 0.360909 -0.556588
O10   O     O_2   0.801510 0.788881 0.587906 -0.551160
O11   O     O_2   0.789735 0.238853 0.355088 -0.531649
O12   O     O_2   0.210099 0.744752 0.688977 -0.536196
C43   C     C_3   0.114218 0.037319 0.277776 -0.322267
C44   C     C_3   0.078120 0.891277 0.215657 -0.432666
C45   C     C_3   0.104393 0.738139 0.163031 -0.771739
H19   H     H_    0.127167 0.741892 0.047156 0.262316
H20   H     H_    0.128041 0.721949 0.282538 0.258809
H21   H     H_    0.077634 0.634836 0.119803 0.244566
H22   H     H_    0.055150 0.882042 0.329958 0.236087
H23   H     H_    0.054750 0.902110 0.092385 0.217455
H24   H     H_    0.134909 0.045740 0.157171 0.234621
H25   H     H_    0.138932 0.012334 0.390361 0.247174
C46   C     C_3   0.885830 0.957745 0.706344 -0.319623
C47   C     C_3   0.921910 0.097045 0.803494 -0.431904
C48   C     C_3   0.895628 0.245117 0.885019 -0.771155
H26   H     H_    0.875493 0.287164 0.773097 0.257991
H27   H     H_    0.869721 0.219061 0.982943 0.263777
H28   H     H_    0.922277 0.341379 0.960603 0.245001
H29   H     H_    0.943897 0.063294 0.917630 0.222022
H30   H     H_    0.946258 0.128359 0.703182 0.232748
H31   H     H_    0.864545 0.995796 0.593818 0.243004
H32   H     H_    0.861614 0.938829 0.813427 0.238579

loop_
_geom_bond_atom_site_label_1
_geom_bond_atom_site_label_2
_ccdc_geom_bond_type
C29   N1    A    
C30   N2    A    
C8    C26   A    
C14   C18   A    
C34   C42   A    
C43   H24   S    
C45   H19   S    
C47   H29   S    
C39   C41   A    
C19   H13   S    
C19   C21   A    
C2    O2    A    
C9    C22   A    
C33   H10   S    
C3    C18   A    
C11   C37   A    
C44   H23   S    
C27   H17   S    
C1    O1    A    
C32   O11   S    
C5    C7    A    
C12   C36   A    
Cu1   O8    S    
C40   C42   A    
Cu2   N3    S    
C23   O7    A    
C43   H25   S    
C45   H20   S    
C5    C29   A    
C10   C21   A    
C13   C19   A    
C14   C20   A    
C32   N2    A    
C4    C6    A    
C48   H26   S    
C21   H11   S    
C15   C26   A    
C22   H12   S    
C1    O3    A    
C46   H31   S    
Cu1   Cu2   S    
C44   H22   S    
C3    C9    A    
C31   N1    A    
C48   H27   S    
C30   O10   S    
Cu2   O3    S    
C36   H7    S    
C34   H9    S    
C4    C17   A    
Cu1   O1    S    
C39   H5    S    
C20   C22   A    
Cu1   O4    S    
Cu2   O2    S    
C41   N1    S    
C20   H14   S    
C42   N2    S    
C35   H8    S    
C45   H21   S    
C24   O6    A    
C31   O12   S    
C7    C43   S    
C16   C25   A    
C15   C17   A    
Cu1   O5    S    
C6    C30   A    
C4    C10   A    
C44   C45   S    
C3    C5    A    
C6    C8    A    
C47   H30   S    
C29   O9    S    
C12   C24   S    
C7    C25   A    
C13   C17   A    
C46   H32   S    
C33   C41   A    
C11   C35   A    
C37   C39   A    
C48   H28   S    
C38   C40   A    
C24   O8    A    
C47   C48   S    
C26   H16   S    
Cu1   N4    S    
C40   H6    S    
C11   C23   S    
C33   C35   A    
Cu2   O6    S    
C34   C36   A    
C12   C38   A    
Cu2   O7    S    
C38   H2    S    
C9    C31   A    
C43   C44   S    
C10   C32   A    
C23   O5    A    
C16   C18   A    
N3    N4    D    
C13   C16   A    
C27   C28   D    
C1    C27   S    
C14   C15   A    
C2    C28   S    
C8    C46   S    
C25   H15   S    
H4    N4    S    
C46   C47   S    
C2    O4    A    
C37   H1    S    
H3    N3    S    
C28   H18   S    
