data_mof_unit_33021.cif
_audit_creation_date              2013-03-05T16:06:55-0500
_audit_creation_method            fapswitch 2.2
_symmetry_space_group_name_H-M    P1
_symmetry_Int_Tables_number       1
_space_group_crystal_system       triclinic
_cell_length_a                    10.783628
_cell_length_b                    9.576789
_cell_length_c                    10.856048
_cell_angle_alpha                 89.998819
_cell_angle_beta                  90.93045
_cell_angle_gamma                 89.720997
_cell_volume                      1120.97041843

loop_
_atom_site_label
_atom_site_type_symbol
_atom_site_description
_atom_site_fract_x
_atom_site_fract_y
_atom_site_fract_z
_atom_type_partial_charge
O1    O     O_R   0.319640 0.618740 0.499990 -0.576669
O2    O     O_R   0.680360 0.618740 0.500010 -0.563962
O3    O     O_R   0.319620 0.381170 0.499990 -0.551389
O4    O     O_R   0.680380 0.381170 0.500010 -0.542459
C1    C     C_R   0.262469 0.500276 0.496965 0.872756
C2    C     C_R   0.737547 0.499967 0.498450 0.862842
O5    O     O_R   0.499990 0.618810 0.319660 -0.559959
O6    O     O_R   0.500010 0.618810 0.680340 -0.596599
O7    O     O_R   0.499960 0.381240 0.319650 -0.564840
O8    O     O_R   0.500040 0.381240 0.680350 -0.560767
C3    C     C_R   0.500439 0.499885 0.262826 0.891992
C4    C     C_R   0.500032 0.499911 0.737211 0.802986
Cu1   Cu    Cu3+1 0.500000 0.640660 0.500000 1.018692
Cu2   Cu    Cu3+1 0.500000 0.359340 0.500000 1.070893
C5    C     C_R   0.499718 0.620807 0.062111 0.158405
C6    C     C_R   0.499576 0.620875 0.938074 0.111957
C7    C     C_R   0.501199 0.498295 0.130200 -0.060781
C8    C     C_R   0.500440 0.498360 0.869917 -0.092936
C9    C     C_R   0.503155 0.371030 0.064629 -0.151422
C10   C     C_R   0.502008 0.371047 0.935514 -0.158184
H1    H     H_    0.505539 0.271697 0.112183 0.203482
H2    H     H_    0.502195 0.271697 0.887978 0.202853
C11   C     C_3   0.497083 0.776144 0.929294 -0.448236
C12   C     C_3   0.497212 0.775985 0.071225 -0.393015
H3    H     H_    0.583516 0.818562 0.889626 0.218926
H4    H     H_    0.409425 0.815621 0.110961 0.232210
H5    H     H_    0.409220 0.815960 0.887068 0.217585
H6    H     H_    0.583751 0.818215 0.113605 0.237356
C13   C     C_R   0.066120 0.410664 0.570162 -0.155211
C14   C     C_R   0.938162 0.411520 0.571764 -0.135005
H7    H     H_    0.116759 0.341774 0.632445 0.183362
H8    H     H_    0.891231 0.345073 0.636447 0.229163
C15   C     C_R   0.871409 0.500965 0.493710 -0.196076
C16   C     C_R   0.128531 0.500826 0.491637 -0.164950
C17   C     C_R   0.932775 0.592446 0.413571 0.269850
C18   C     C_R   0.062752 0.592075 0.411743 0.260821
C19   C     C_R   0.407858 0.073328 0.440079 0.358629
C20   C     C_R   0.592660 0.071795 0.559106 0.391718
C21   C     C_R   0.408678 0.925300 0.440571 -0.075770
C22   C     C_R   0.591513 0.923930 0.558863 -0.045846
H9    H     H_    0.336155 0.869169 0.392093 0.211216
H10   H     H_    0.664590 0.866721 0.606487 0.176219
N1    N     N_R   0.500000 0.852070 0.500000 -0.222022
N2    N     N_R   0.500000 0.147940 0.500000 -0.284503
N3    N     N_R   0.863373 0.677612 0.328236 0.156690
O9    O     O_R   0.801789 0.619478 0.238042 -0.367970
O10   O     O_R   0.846438 0.809543 0.351437 -0.273845
N4    N     N_R   0.126839 0.676093 0.323548 0.128781
O11   O     O_R   0.100676 0.808154 0.311206 -0.265912
O12   O     O_R   0.208687 0.619501 0.252007 -0.372600
N5    N     N_R   0.308763 0.142471 0.375787 0.153831
O13   O     O_R   0.195802 0.125002 0.412948 -0.299644
O14   O     O_R   0.326011 0.186928 0.264319 -0.346503
N6    N     N_R   0.695005 0.138408 0.619301 0.126964
O15   O     O_R   0.679065 0.197520 0.725607 -0.383836
O16   O     O_R   0.806789 0.102470 0.588413 -0.339266

loop_
_geom_bond_atom_site_label_1
_geom_bond_atom_site_label_2
_geom_bond_distance
_ccdc_geom_bond_type
O5    C3    1.295345 A    
C11   C12   1.540784 S    
C20   N2    1.383469 A    
C13   C14   1.380227 A    
C11   H5    1.111589 S    
Cu2   N2    2.024533 S    
C16   C18   1.411745 A    
C17   C18   1.402071 A    
C20   N6    1.426702 S    
C2    C15   1.445344 S    
O5    Cu1   1.968933 S    
O6    C4    1.295266 A    
C1    C16   1.444547 S    
C19   N2    1.380924 A    
C22   H10   1.082137 S    
O7    Cu2   1.969079 S    
C13   H7    1.084024 S    
C20   C22   1.416189 A    
N3    O9    1.300851 A    
C14   H8    1.081115 S    
O7    C3    1.292953 A    
O2    C2    1.291481 A    
O3    Cu2   1.955339 S    
O8    C4    1.293317 A    
O1    C1    1.293993 A    
N4    O12   1.301364 A    
N4    O11   1.300911 A    
C9    H1    1.082326 S    
C10   H2    1.082415 S    
C18   N4    1.438262 S    
C6    C11   1.490105 S    
C8    C10   1.411862 A    
N3    O10   1.300929 A    
C19   N5    1.427016 S    
O4    Cu2   1.957362 S    
C19   C21   1.417634 A    
N6    O16   1.301184 A    
O4    C2    1.296853 A    
O1    Cu1   1.957246 S    
C5    C6    1.346526 A    
N5    O14   1.299344 A    
C7    C9    1.411696 A    
N5    O13   1.300976 A    
C17   N3    1.433557 S    
O6    Cu1   1.968925 S    
C12   H6    1.111686 S    
Cu1   N1    2.024629 S    
C11   H3    1.111726 S    
C21   H9    1.080878 S    
C6    C8    1.387217 A    
O8    Cu2   1.969086 S    
C4    C8    1.440674 S    
C5    C7    1.386579 A    
O2    Cu1   1.955212 S    
N6    O15   1.299001 A    
C5    C12   1.489535 S    
C21   N1    1.360321 A    
C14   C15   1.394312 A    
C15   C17   1.409490 A    
Cu1   Cu2   2.694142 S    
C13   C16   1.396245 A    
C22   N1    1.357186 A    
C3    C7    1.440038 S    
C9    C10   1.401531 A    
C12   H4    1.111809 S    
O3    C1    1.294015 A    
