data_mof_unit_55735.cif
_audit_creation_date              2012-12-11T15:33:39-0500
_audit_creation_method            fapswitch 2.2
_symmetry_space_group_name_H-M    P1
_symmetry_Int_Tables_number       1
_space_group_crystal_system       triclinic
_cell_length_a                    27.212794
_cell_length_b                    7.190385
_cell_length_c                    22.667218
_cell_angle_alpha                 90.000231
_cell_angle_beta                  101.181824
_cell_angle_gamma                 89.999857
_cell_volume                      4351.1084794

loop_
_atom_site_label
_atom_site_type_symbol
_atom_type_description
_atom_site_fract_x
_atom_site_fract_y
_atom_site_fract_z
_atom_type_partial_charge
O1    O     O_R   0.207310 0.594030 0.676830 -0.534289
O2    O     O_R   0.792690 0.405970 0.323170 -0.534285
O3    O     O_R   0.292690 0.094030 0.823170 -0.534285
O4    O     O_R   0.707310 0.905970 0.176830 -0.534281
O5    O     O_R   0.197320 0.262370 0.795700 -0.505836
O6    O     O_R   0.802680 0.737630 0.204300 -0.505851
O7    O     O_R   0.302680 0.762370 0.704300 -0.505803
O8    O     O_R   0.697320 0.237630 0.295700 -0.505812
C1    C     C_R   0.184296 0.432294 0.811505 0.696609
C2    C     C_R   0.815704 0.567706 0.188495 0.696560
C3    C     C_R   0.315704 0.932293 0.688495 0.696724
C4    C     C_R   0.684296 0.067706 0.311505 0.696699
O9    O     O_R   0.201410 0.264250 0.675590 -0.537489
O10   O     O_R   0.798590 0.735750 0.324410 -0.537485
O11   O     O_R   0.298590 0.764250 0.824410 -0.537489
O12   O     O_R   0.701410 0.235750 0.175590 -0.537485
O13   O     O_R   0.296810 0.094940 0.702210 -0.542841
O14   O     O_R   0.703190 0.905060 0.297790 -0.542849
O15   O     O_R   0.203190 0.594940 0.797790 -0.542875
O16   O     O_R   0.796810 0.405060 0.202210 -0.542886
C5    C     C_R   0.189683 0.432518 0.653443 0.679691
C6    C     C_R   0.810317 0.567482 0.346557 0.679675
C7    C     C_R   0.310317 0.932518 0.846557 0.679741
C8    C     C_R   0.689683 0.067482 0.153443 0.679732
O17   O     O_3   0.281300 0.427390 0.758870 -0.373813
O18   O     O_3   0.718700 0.572610 0.241130 -0.373814
O19   O     O_3   0.218700 0.927390 0.741130 -0.373840
O20   O     O_3   0.781300 0.072610 0.258870 -0.373835
V1    V     V_3+5 0.244190 0.152150 0.748350 1.441919
V2    V     V_3+5 0.755810 0.847850 0.251650 1.441896
V3    V     V_3+5 0.255810 0.652150 0.751650 1.441907
V4    V     V_3+5 0.744190 0.347850 0.248350 1.441880
C9    C     C_R   0.654648 0.062941 0.094990 -0.038611
C10   C     C_R   0.345351 0.937059 0.905010 -0.038614
C11   C     C_R   0.845352 0.562932 0.405009 -0.038583
C12   C     C_R   0.154648 0.437068 0.594991 -0.038590
C13   C     C_R   0.638440 0.132263 0.988639 -0.161476
C14   C     C_R   0.361560 0.867737 0.011361 -0.161474
C15   C     C_R   0.861551 0.632099 0.511369 -0.161477
C16   C     C_R   0.138449 0.367902 0.488631 -0.161473
C17   C     C_R   0.671495 0.121061 0.043641 -0.159477
C18   C     C_R   0.328505 0.878938 0.956359 -0.159485
C19   C     C_R   0.828499 0.620949 0.456364 -0.159477
C20   C     C_R   0.171501 0.379051 0.543636 -0.159487
C21   C     C_R   0.603873 0.016340 0.090999 -0.220566
C22   C     C_R   0.396127 0.983660 0.909001 -0.220559
C23   C     C_R   0.896130 0.516385 0.408997 -0.220582
C24   C     C_R   0.103870 0.483615 0.591003 -0.220572
C25   C     C_R   0.568951 0.029855 0.035361 0.087707
C26   C     C_R   0.431049 0.970145 0.964639 0.087705
C27   C     C_R   0.931049 0.529847 0.464638 0.087720
C28   C     C_R   0.068951 0.470153 0.535362 0.087716
C29   C     C_R   0.587561 0.088834 0.984089 0.138145
C30   C     C_R   0.412439 0.911166 0.015911 0.138145
C31   C     C_R   0.912433 0.588717 0.515917 0.138142
C32   C     C_R   0.087567 0.411284 0.484083 0.138141
C33   C     C_R   0.516374 0.989925 0.028815 0.059337
C34   C     C_R   0.483626 0.010075 0.971185 0.059338
C35   C     C_R   0.983628 0.489961 0.471182 0.059337
C36   C     C_R   0.016372 0.510039 0.528818 0.059339
C37   C     C_R   0.504576 0.068922 0.922052 -0.192771
C38   C     C_R   0.495424 0.931078 0.077948 -0.192773
C39   C     C_R   0.995416 0.568773 0.577958 -0.192779
C40   C     C_R   0.004584 0.431227 0.422042 -0.192779
C41   C     C_R   0.555347 0.106768 0.928516 -0.200712
C42   C     C_R   0.444653 0.893232 0.071484 -0.200711
C43   C     C_R   0.944643 0.606582 0.571495 -0.200711
C44   C     C_R   0.055357 0.393418 0.428505 -0.200709
H1    H     H_    0.569548 0.152080 0.889369 0.125035
H2    H     H_    0.430452 0.847920 0.110631 0.125036
H3    H     H_    0.930438 0.651807 0.610647 0.125040
H4    H     H_    0.069562 0.348194 0.389353 0.125044
H5    H     H_    0.652613 0.177993 0.949540 0.117914
H6    H     H_    0.347387 0.822006 0.050460 0.117914
H7    H     H_    0.847373 0.677745 0.550474 0.117914
H8    H     H_    0.152626 0.322255 0.449526 0.117915
H9    H     H_    0.482661 0.088001 0.877555 0.120724
H10   H     H_    0.517339 0.911999 0.122445 0.120724
H11   H     H_    0.017327 0.587788 0.622460 0.120722
H12   H     H_    0.982672 0.412213 0.377540 0.120723
C45   C     C_R   0.637820 0.889793 0.378864 -0.218194
C46   C     C_R   0.362175 0.110198 0.621129 -0.218207
C47   C     C_R   0.862198 0.389766 0.121161 -0.218139
C48   C     C_R   0.137810 0.610222 0.878851 -0.218179
H13   H     H_    0.660588 0.768850 0.374590 0.178062
H14   H     H_    0.339405 0.231137 0.625399 0.178043
H15   H     H_    0.839442 0.268804 0.125451 0.178133
H16   H     H_    0.160569 0.731179 0.874565 0.178108
C49   C     C_R   0.601926 0.875302 0.415264 -0.134224
C50   C     C_R   0.398068 0.124687 0.584729 -0.134213
C51   C     C_R   0.898094 0.375272 0.084763 -0.134258
C52   C     C_R   0.101917 0.624712 0.915251 -0.134245
H17   H     H_    0.598102 0.743906 0.437277 0.159327
H18   H     H_    0.401890 0.256077 0.562711 0.159319
H19   H     H_    0.901930 0.243857 0.062766 0.159358
H20   H     H_    0.098085 0.756119 0.937255 0.159346
C53   C     C_R   0.571879 0.028130 0.423677 -0.043587
C54   C     C_R   0.428119 0.971863 0.576320 -0.043568
C55   C     C_R   0.928126 0.528123 0.076329 -0.043664
C56   C     C_R   0.071881 0.471866 0.923679 -0.043628
C57   C     C_R   0.578210 0.195300 0.393819 -0.220907
C58   C     C_R   0.421792 0.804700 0.606184 -0.220945
C59   C     C_R   0.921780 0.695317 0.106166 -0.220758
C60   C     C_R   0.078221 0.304682 0.893834 -0.220825
H21   H     H_    0.555682 0.315802 0.399449 0.156025
H22   H     H_    0.444321 0.684201 0.600558 0.156012
H23   H     H_    0.944298 0.815835 0.100524 0.156077
H24   H     H_    0.055701 0.184168 0.899473 0.156053
C61   C     C_R   0.613336 0.210153 0.355847 0.411801
C62   C     C_R   0.386667 0.789851 0.644158 0.411808
C63   C     C_R   0.886652 0.710178 0.144134 0.411774
C64   C     C_R   0.113346 0.289827 0.855862 0.411791
C65   C     C_R   0.644702 0.057096 0.349056 -0.151660
C66   C     C_R   0.355297 0.942902 0.650943 -0.151643
C67   C     C_R   0.855300 0.557095 0.150948 -0.151721
C68   C     C_R   0.144702 0.442902 0.849056 -0.151693
N1    N     N_R   0.505534 0.161669 0.472257 -0.283786
N2    N     N_R   0.494463 0.838322 0.527740 -0.283786
N3    N     N_R   0.994440 0.661701 0.027711 -0.283776
N4    N     N_R   0.005567 0.338285 0.972299 -0.283776
N5    N     N_R   0.472030 0.148554 0.507927 -0.287193
N6    N     N_R   0.527968 0.851436 0.492070 -0.287193
N7    N     N_R   0.027944 0.648591 0.992039 -0.287185
N8    N     N_R   0.972064 0.351396 0.007971 -0.287183
C69   C     C_R   0.465705 0.986585 0.536521 0.537544
C70   C     C_R   0.534292 0.013406 0.463475 0.537546
C71   C     C_R   0.034296 0.486587 0.963480 0.537550
C72   C     C_R   0.965712 0.513400 0.036530 0.537553
H25   H     H_    0.407131 0.024716 0.867734 0.090051
H26   H     H_    0.592869 0.975284 0.132266 0.090042
H27   H     H_    0.092862 0.524599 0.632274 0.090013
H28   H     H_    0.907138 0.475401 0.367726 0.090002
H29   H     H_    0.289626 0.840566 0.953699 0.111858
H30   H     H_    0.710374 0.159434 0.046301 0.111862
H31   H     H_    0.210383 0.340726 0.546293 0.111845
H32   H     H_    0.789617 0.659274 0.453707 0.111849
O21   O     O_3   0.617975 0.378146 0.327744 -0.550181
C73   C     C_3   0.581256 0.386359 0.274397 0.109405
H33   H     H_    0.542854 0.366156 0.283695 0.110715
H34   H     H_    0.588636 0.278616 0.241853 0.100423
C74   C     C_3   0.582915 0.576754 0.245513 -0.692763
H35   H     H_    0.620527 0.602249 0.235123 0.236841
H36   H     H_    0.554621 0.583571 0.203073 0.165013
H37   H     H_    0.574520 0.686830 0.276466 0.216163
O22   O     O_3   0.382031 0.621870 0.672270 -0.550170
C75   C     C_3   0.418767 0.613644 0.725600 0.109349
H38   H     H_    0.411424 0.721463 0.758136 0.100408
H39   H     H_    0.457162 0.633711 0.716272 0.110769
C76   C     C_3   0.417087 0.423314 0.754517 -0.692813
H40   H     H_    0.425427 0.313157 0.723568 0.216191
H41   H     H_    0.445406 0.416460 0.796931 0.165015
H42   H     H_    0.379489 0.397988 0.764956 0.236837
O23   O     O_3   0.882000 0.878214 0.172205 -0.550215
C77   C     C_3   0.918650 0.886377 0.225615 0.109545
H43   H     H_    0.957073 0.865638 0.216434 0.110564
H44   H     H_    0.911127 0.778959 0.258185 0.100546
C78   C     C_3   0.917085 0.077013 0.254373 -0.692886
H45   H     H_    0.879437 0.103150 0.264582 0.236891
H46   H     H_    0.945282 0.083727 0.296899 0.165052
H47   H     H_    0.925680 0.186737 0.223415 0.216129
O24   O     O_3   0.117993 0.121809 0.827778 -0.550201
C79   C     C_3   0.081310 0.113621 0.774396 0.109485
H48   H     H_    0.088768 0.221188 0.741837 0.100480
H49   H     H_    0.042896 0.134118 0.783632 0.110622
C80   C     C_3   0.082918 0.923091 0.745583 -0.692779
H50   H     H_    0.074413 0.813204 0.776542 0.216136
H51   H     H_    0.054675 0.916332 0.703094 0.165030
H52   H     H_    0.120552 0.897242 0.735290 0.236862

loop_
_geom_bond_atom_site_label_1
_geom_bond_atom_site_label_2
_ccdc_geom_bond_type
O17   V3    S    
C47   H15   S    
O1    C5    A    
C78   H45   S    
O19   V1    S    
C56   C71   S    
C9    C21   A    
O12   C8    A    
O3    C7    A    
C10   C18   A    
O1    V3    S    
C11   C23   A    
C22   H25   S    
O22   C75   S    
N4    C71   A    
C25   C33   A    
C33   C38   A    
C5    C12   S    
C39   H11   S    
O7    C3    A    
C6    C11   S    
C35   C40   A    
C79   H48   S    
C36   C39   A    
C40   C44   A    
O2    V4    S    
C14   C18   A    
C21   H26   S    
C76   H41   S    
O16   V4    S    
O4    C8    A    
C25   C29   A    
C43   H3    S    
C57   C61   A    
C79   C80   S    
C60   H24   S    
C52   H20   S    
O13   V1    S    
C31   C43   A    
C59   C63   A    
N2    N6    A    
O3    V1    S    
C3    C66   S    
N1    N5    A    
O12   V4    S    
C28   C36   A    
N5    C69   A    
N4    N8    A    
C1    O15   A    
C54   C69   S    
C15   C31   A    
C37   H9    S    
C16   C32   A    
O2    C6    A    
C24   H27   S    
C58   H22   S    
C10   C22   A    
N2    C69   A    
C15   H7    S    
C62   O22   S    
C11   C19   A    
N1    C70   A    
C62   C66   A    
C16   C20   A    
O5    V1    S    
C12   C20   A    
C61   C65   A    
N8    C72   A    
C13   C29   A    
N3    C72   A    
C34   C37   A    
O11   C7    A    
O15   V3    S    
C35   C36   A    
C48   C68   A    
C49   H17   S    
C40   H12   S    
O10   V2    S    
C17   H30   S    
C50   H18   S    
C75   H39   S    
C57   H21   S    
C39   C43   A    
O7    V3    S    
C38   C42   A    
O8    V4    S    
C47   C67   A    
C46   C66   A    
C77   C78   S    
C55   C59   A    
C74   H37   S    
C2    O16   A    
C60   C64   A    
O18   V4    S    
C15   C19   A    
C56   C60   A    
C32   C44   A    
O4    V2    S    
C16   H8    S    
C49   C53   A    
C44   H4    S    
C26   C34   A    
C78   H46   S    
O5    C1    A    
C64   O24   S    
C54   C58   A    
C75   C76   S    
N7    C71   A    
C14   C30   A    
C21   C25   A    
O8    C4    A    
C7    C10   S    
O9    C5    A    
C26   C30   A    
C63   O23   S    
C77   H43   S    
C75   H38   S    
C73   H34   S    
O14   V2    S    
O6    V2    S    
C80   H52   S    
C18   H29   S    
C76   H42   S    
C27   C35   A    
C4    O14   A    
C64   C68   A    
C29   C41   A    
C52   C56   A    
C59   H23   S    
C4    C65   S    
C14   H6    S    
O9    V1    S    
C13   H5    S    
C3    O13   A    
C1    C68   S    
C77   H44   S    
C38   H10   S    
C48   H16   S    
C53   C70   S    
C73   C74   S    
O6    C2    A    
C23   C27   A    
O11   V3    S    
C55   C72   S    
C30   C42   A    
N3    N7    A    
C78   H47   S    
C47   C51   A    
O21   C73   S    
C22   C26   A    
C8    C9    S    
C46   C50   A    
C23   H28   S    
C61   O21   S    
C9    C17   A    
O10   C6    A    
C74   H36   S    
C45   C49   A    
C79   H49   S    
O24   C79   S    
C76   H40   S    
C46   H14   S    
C33   C34   A    
C42   H2    S    
C20   H31   S    
C41   H1    S    
O20   V2    S    
N6    C70   A    
C12   C24   A    
C27   C31   A    
C13   C17   A    
C19   H32   S    
C45   H13   S    
C58   C62   A    
C73   H33   S    
C51   H19   S    
C37   C41   A    
C80   H50   S    
C24   C28   A    
C80   H51   S    
C45   C65   A    
C63   C67   A    
C48   C52   A    
C51   C55   A    
O23   C77   S    
C74   H35   S    
C50   C54   A    
C53   C57   A    
C2    C67   S    
C28   C32   A    
