data_mof_unit_50455.cif
_audit_creation_date              2012-12-11T14:42:00-0500
_audit_creation_method            fapswitch 2.2
_symmetry_space_group_name_H-M    P1
_symmetry_Int_Tables_number       1
_space_group_crystal_system       monoclinic
_cell_length_a                    18.9602
_cell_length_b                    10.925554
_cell_length_c                    18.836222
_cell_angle_alpha                 90.0
_cell_angle_beta                  89.793115
_cell_angle_gamma                 90.0
_cell_volume                      3901.91092773

loop_
_atom_site_label
_atom_site_type_symbol
_atom_type_description
_atom_site_fract_x
_atom_site_fract_y
_atom_site_fract_z
_atom_type_partial_charge
C1    C     C_R   0.726891 0.956349 0.854026 0.595283
C2    C     C_R   0.273111 0.956357 0.145970 0.595556
C3    C     C_R   0.226889 0.456357 0.854030 0.595557
C4    C     C_R   0.773109 0.456349 0.145973 0.595283
C5    C     C_R   0.692370 0.457943 0.040029 0.283080
C6    C     C_R   0.307621 0.457981 0.959985 0.282726
C7    C     C_R   0.192379 0.957981 0.040015 0.282727
C8    C     C_R   0.807630 0.957943 0.959971 0.283080
C9    C     C_R   0.756760 0.424151 0.072753 -0.011717
C10   C     C_R   0.243234 0.424176 0.927255 -0.011697
C11   C     C_R   0.256766 0.924176 0.072744 -0.011697
C12   C     C_R   0.743240 0.924151 0.927247 -0.011717
C13   C     C_R   0.813973 0.385544 0.031238 -0.181713
C14   C     C_R   0.186019 0.385572 0.968769 -0.181640
C15   C     C_R   0.313981 0.885572 0.031231 -0.181640
C16   C     C_R   0.686027 0.885544 0.968762 -0.181713
C17   C     C_R   0.809438 0.382947 0.958826 -0.140725
C18   C     C_R   0.190552 0.382974 0.041181 -0.140537
C19   C     C_R   0.309448 0.882975 0.958819 -0.140538
C20   C     C_R   0.690562 0.882947 0.041174 -0.140725
C21   C     C_R   0.746354 0.412548 0.925008 -0.023138
C22   C     C_R   0.253637 0.412573 0.075001 -0.022789
C23   C     C_R   0.246363 0.912573 0.924999 -0.022790
C24   C     C_R   0.753646 0.912548 0.074992 -0.023138
C25   C     C_R   0.532031 0.278143 0.526937 -0.120334
C26   C     C_R   0.527416 0.274305 0.454485 -0.120070
C27   C     C_R   0.972584 0.774304 0.545515 -0.120070
C28   C     C_R   0.967968 0.778142 0.473063 -0.120334
C29   C     C_R   0.506182 0.166123 0.421561 0.033568
C30   C     C_R   0.519517 0.172085 0.567226 0.034101
C31   C     C_R   0.980482 0.672085 0.432774 0.034101
C32   C     C_R   0.993818 0.666123 0.578439 0.033568
C33   C     C_R   0.500195 0.057499 0.460526 -0.144885
C34   C     C_R   0.506656 0.060614 0.533611 -0.148630
C35   C     C_R   0.993344 0.560615 0.466389 -0.148630
C36   C     C_R   0.999805 0.557499 0.539474 -0.144885
C37   C     C_R   0.824099 0.400279 0.545884 0.071217
C38   C     C_R   0.176630 0.397661 0.454664 0.067525
C39   C     C_R   0.323370 0.897661 0.545336 0.067525
C40   C     C_R   0.675901 0.900279 0.454116 0.071218
C41   C     C_R   0.832693 0.426556 0.474406 -0.119128
C42   C     C_R   0.168316 0.423388 0.526108 -0.121706
C43   C     C_R   0.331684 0.923388 0.473892 -0.121707
C44   C     C_R   0.667307 0.926556 0.525594 -0.119127
C45   C     C_R   0.529874 0.177338 0.851025 0.574841
C46   C     C_R   0.470129 0.177337 0.148976 0.570965
C47   C     C_R   0.029871 0.677337 0.851024 0.570964
C48   C     C_R   0.970126 0.677338 0.148974 0.574842
C49   C     C_R   0.779707 0.484550 0.436048 -0.021880
C50   C     C_R   0.220715 0.483435 0.564129 -0.019872
C51   C     C_R   0.279284 0.983435 0.435871 -0.019872
C52   C     C_R   0.720293 0.984550 0.563952 -0.021880
C53   C     C_R   0.719447 0.527573 0.471232 -0.124222
C54   C     C_R   0.280718 0.527207 0.528861 -0.119435
C55   C     C_R   0.219282 0.027206 0.471139 -0.119435
C56   C     C_R   0.780553 0.027573 0.528768 -0.124222
C57   C     C_R   0.708481 0.500352 0.543231 0.059963
C58   C     C_R   0.291918 0.499268 0.457012 0.067512
C59   C     C_R   0.208082 0.999268 0.542988 0.067512
C60   C     C_R   0.791518 0.000353 0.456769 0.059963
C61   C     C_R   0.758881 0.428182 0.579728 0.073878
C62   C     C_R   0.241473 0.427047 0.420535 0.073346
C63   C     C_R   0.258527 0.927047 0.579465 0.073346
C64   C     C_R   0.741119 0.928182 0.420272 0.073878
C65   C     C_R   0.737861 0.365066 0.852902 0.541073
C66   C     C_R   0.262136 0.365072 0.147101 0.540748
C67   C     C_R   0.237864 0.865072 0.852899 0.540748
C68   C     C_R   0.762139 0.865066 0.147098 0.541073
C69   C     C_R   0.709488 0.002377 0.640132 0.558699
C70   C     C_R   0.290388 0.002079 0.359883 0.563234
C71   C     C_R   0.209612 0.502080 0.640117 0.563233
C72   C     C_R   0.790512 0.502377 0.359868 0.558700
C73   C     C_R   0.534181 0.177053 0.642073 0.545597
C74   C     C_R   0.472310 0.175777 0.353606 0.546550
C75   C     C_R   0.027690 0.675777 0.646394 0.546550
C76   C     C_R   0.965819 0.677053 0.357927 0.545597
C77   C     C_R   0.740850 0.365735 0.647121 0.557617
C78   C     C_R   0.259234 0.365478 0.352936 0.560067
C79   C     C_R   0.240765 0.865478 0.647064 0.560067
C80   C     C_R   0.759150 0.865735 0.352879 0.557617
C81   C     C_2   0.497415 0.166840 0.921315 -0.094812
C82   C     C_2   0.502598 0.166837 0.078692 -0.094067
C83   C     C_2   0.997402 0.666837 0.921308 -0.094068
C84   C     C_2   0.002585 0.666840 0.078685 -0.094811
C85   C     C_2   0.492004 0.067219 0.038215 -0.176519
C86   C     C_2   0.508011 0.067221 0.961791 -0.176959
C87   C     C_2   0.991989 0.567221 0.038209 -0.176959
C88   C     C_2   0.007996 0.567219 0.961785 -0.176519
C89   C     C_R   0.688718 0.458583 0.965440 0.070129
C90   C     C_R   0.311270 0.458623 0.034573 0.070294
C91   C     C_R   0.188730 0.958623 0.965427 0.070294
C92   C     C_R   0.811282 0.958583 0.034560 0.070129
Cr1   Cr    Cr6+3 0.769270 0.163730 0.750710 1.095685
Cr2   Cr    Cr6+3 0.230730 0.163730 0.249290 1.099406
Cr3   Cr    Cr6+3 0.269270 0.663730 0.750710 1.099409
Cr4   Cr    Cr6+3 0.730730 0.663730 0.249290 1.095683
Cr5   Cr    Cr6+3 0.612620 0.009790 0.748780 1.019299
Cr6   Cr    Cr6+3 0.387380 0.009790 0.251220 1.017592
Cr7   Cr    Cr6+3 0.112620 0.509790 0.748780 1.017592
Cr8   Cr    Cr6+3 0.887380 0.509790 0.251220 1.019299
Cr9   Cr    Cr6+3 0.614160 0.322500 0.747710 1.031401
Cr10  Cr    Cr6+3 0.385840 0.322500 0.252290 1.033729
Cr11  Cr    Cr6+3 0.114160 0.822500 0.747710 1.033728
Cr12  Cr    Cr6+3 0.885840 0.822500 0.252290 1.031403
H1    H     H_    0.470303 0.984029 0.060923 0.162490
H2    H     H_    0.529709 0.984031 0.939081 0.162355
H3    H     H_    0.970291 0.484031 0.060919 0.162355
H4    H     H_    0.029697 0.484029 0.939077 0.162490
H5    H     H_    0.880765 0.398234 0.448026 0.131651
H6    H     H_    0.121092 0.392355 0.552777 0.127904
H7    H     H_    0.378908 0.892355 0.447223 0.127904
H8    H     H_    0.619235 0.898233 0.551974 0.131651
H9    H     H_    0.680121 0.579282 0.442375 0.157499
H10   H     H_    0.319791 0.579652 0.557614 0.160775
H11   H     H_    0.180208 0.079652 0.442385 0.160775
H12   H     H_    0.819879 0.079282 0.557624 0.157499
H13   H     H_    0.526996 0.247274 0.055935 0.184265
H14   H     H_    0.473020 0.247281 0.944074 0.184124
H15   H     H_    0.026979 0.747281 0.055926 0.184125
H16   H     H_    0.973004 0.747274 0.944065 0.184265
H17   H     H_    0.864107 0.360408 0.054395 0.165638
H18   H     H_    0.135887 0.360433 0.945610 0.165636
H19   H     H_    0.364113 0.860433 0.054390 0.165635
H20   H     H_    0.635893 0.860408 0.945605 0.165639
H21   H     H_    0.855286 0.352206 0.929377 0.196470
H22   H     H_    0.144705 0.352231 0.070629 0.196589
H23   H     H_    0.355295 0.852232 0.929370 0.196588
H24   H     H_    0.644714 0.852206 0.070623 0.196470
H25   H     H_    0.545849 0.364764 0.551047 0.171014
H26   H     H_    0.534472 0.358689 0.425022 0.144677
H27   H     H_    0.965527 0.858688 0.574978 0.144677
H28   H     H_    0.954151 0.864764 0.448953 0.171014
H29   H     H_    0.486641 0.972262 0.435010 0.111321
H30   H     H_    0.501781 0.976935 0.563708 0.108483
H31   H     H_    0.998219 0.476935 0.436291 0.108483
H32   H     H_    0.013359 0.472262 0.564989 0.111322
O1    O     O_R   0.784320 0.290430 0.830510 -0.477621
O2    O     O_R   0.215680 0.290430 0.169490 -0.477895
O3    O     O_R   0.284320 0.790430 0.830510 -0.477895
O4    O     O_R   0.715680 0.790430 0.169490 -0.477621
O5    O     O_R   0.554640 0.080370 0.673500 -0.526418
O6    O     O_R   0.445360 0.080370 0.326500 -0.529067
O7    O     O_R   0.054640 0.580370 0.673500 -0.529067
O8    O     O_R   0.945360 0.580370 0.326500 -0.526418
O9    O     O_R   0.543920 0.282180 0.666790 -0.510629
O10   O     O_R   0.456080 0.282180 0.333210 -0.504586
O11   O     O_R   0.043920 0.782180 0.666790 -0.504586
O12   O     O_R   0.956080 0.782180 0.333210 -0.510628
O13   O     O_R   0.679040 0.374160 0.674430 -0.480677
O14   O     O_R   0.320960 0.374160 0.325570 -0.474103
O15   O     O_R   0.179040 0.874160 0.674430 -0.474103
O16   O     O_R   0.820960 0.874160 0.325570 -0.480677
O17   O     O_3   0.665350 0.165340 0.749070 -0.290051
O18   O     O_3   0.334650 0.165340 0.250930 -0.288198
O19   O     O_3   0.165350 0.665340 0.749070 -0.288198
O20   O     O_3   0.834650 0.665340 0.250930 -0.290051
O21   O     O_R   0.762640 0.040960 0.825200 -0.419191
O22   O     O_R   0.237360 0.040960 0.174800 -0.419384
O23   O     O_R   0.262640 0.540960 0.825200 -0.419382
O24   O     O_R   0.737360 0.540960 0.174800 -0.419193
O25   O     O_R   0.667400 0.923970 0.829950 -0.533272
O26   O     O_R   0.332600 0.923970 0.170050 -0.533274
O27   O     O_R   0.167400 0.423970 0.829950 -0.533274
O28   O     O_R   0.832600 0.423970 0.170050 -0.533272
O29   O     O_R   0.553960 0.081340 0.821780 -0.499515
O30   O     O_R   0.446040 0.081340 0.178220 -0.501865
O31   O     O_R   0.053960 0.581340 0.821780 -0.501864
O32   O     O_R   0.946040 0.581340 0.178220 -0.499516
O33   O     O_R   0.543180 0.283240 0.826740 -0.501110
O34   O     O_R   0.456820 0.283240 0.173260 -0.504111
O35   O     O_R   0.043180 0.783240 0.826740 -0.504115
O36   O     O_R   0.956820 0.783240 0.173260 -0.501106
O37   O     O_R   0.678360 0.375140 0.822710 -0.523581
O38   O     O_R   0.321640 0.375140 0.177290 -0.524397
O39   O     O_R   0.178360 0.875140 0.822710 -0.524397
O40   O     O_R   0.821640 0.875140 0.177290 -0.523581
O41   O     O_R   0.785050 0.289380 0.670560 -0.496696
O42   O     O_R   0.214950 0.289380 0.329440 -0.497586
O43   O     O_R   0.285050 0.789380 0.670560 -0.497585
O44   O     O_R   0.714950 0.789380 0.329440 -0.496696
O45   O     O_R   0.763320 0.039990 0.676930 -0.490920
O46   O     O_R   0.236680 0.039990 0.323070 -0.488539
O47   O     O_R   0.263320 0.539990 0.676930 -0.488537
O48   O     O_R   0.736680 0.539990 0.323070 -0.490922
O49   O     O_R   0.668130 0.922920 0.670000 -0.519831
O50   O     O_R   0.331870 0.922920 0.330000 -0.520488
O51   O     O_R   0.168130 0.422920 0.670000 -0.520488
O52   O     O_R   0.831870 0.422920 0.330000 -0.519832
N1    N     N_3   0.645973 0.543471 0.578666 -0.611958
H33   H     H_    0.661856 0.608081 0.616305 0.244858
H34   H     H_    0.613011 0.589518 0.543165 0.214921
N2    N     N_3   0.354923 0.541021 0.421883 -0.590582
H35   H     H_    0.339685 0.605974 0.384168 0.238603
H36   H     H_    0.388068 0.586321 0.457532 0.218698
N3    N     N_3   0.145076 0.041020 0.578117 -0.590582
H37   H     H_    0.160314 0.105974 0.615832 0.238603
H38   H     H_    0.111932 0.086320 0.542467 0.218698
N4    N     N_3   0.854027 0.043471 0.421334 -0.611958
H39   H     H_    0.838144 0.108081 0.383694 0.244858
H40   H     H_    0.886988 0.089518 0.456835 0.214920
N5    N     N_3   0.627433 0.509543 0.932191 -0.516769
H41   H     H_    0.643027 0.569102 0.891616 0.235140
H42   H     H_    0.596467 0.438997 0.911884 0.297257
N6    N     N_3   0.372548 0.509598 0.067826 -0.516863
H43   H     H_    0.356947 0.569147 0.108404 0.234996
H44   H     H_    0.403524 0.439060 0.088130 0.297421
N7    N     N_3   0.127452 0.009599 0.932174 -0.516863
H45   H     H_    0.143053 0.069147 0.891596 0.234996
H46   H     H_    0.096476 0.939060 0.911870 0.297420
N8    N     N_3   0.872567 0.009543 0.067809 -0.516768
H47   H     H_    0.856973 0.069102 0.108384 0.235140
H48   H     H_    0.903533 0.938997 0.088116 0.297257
S1    S     S_3+6 0.615461 0.492953 0.091248 0.028094
O53   O     O_2   0.616329 0.626075 0.110930 -0.275159
O54   O     O_2   0.549445 0.467903 0.050316 -0.247082
O55   O     O_3   0.614160 0.407318 0.165509 -0.540419
H49   H     H_    0.576545 0.443567 0.195474 0.365185
S2    S     S_3+6 0.384533 0.492999 0.908777 0.028487
O56   O     O_2   0.383669 0.626124 0.889103 -0.275195
O57   O     O_2   0.450545 0.467936 0.949715 -0.247292
O58   O     O_3   0.385844 0.407380 0.834513 -0.537990
H50   H     H_    0.423489 0.443600 0.804574 0.367025
S3    S     S_3+6 0.115466 0.992999 0.091223 0.028487
O59   O     O_2   0.116331 0.126124 0.110897 -0.275197
O60   O     O_2   0.049455 0.967936 0.050285 -0.247289
O61   O     O_3   0.114156 0.907380 0.165487 -0.537990
H51   H     H_    0.076514 0.943604 0.195428 0.367023
S4    S     S_3+6 0.884539 0.992953 0.908752 0.028094
O62   O     O_2   0.883671 0.126075 0.889070 -0.275157
O63   O     O_2   0.950555 0.967903 0.949684 -0.247085
O64   O     O_3   0.885840 0.907319 0.834491 -0.540420
H52   H     H_    0.923458 0.943563 0.804528 0.365186
N9    N     N_3   0.880623 0.340439 0.583127 -0.604580
H53   H     H_    0.921693 0.315989 0.548750 0.202937
H54   H     H_    0.901004 0.403198 0.619574 0.239344
N10   N     N_3   0.120414 0.336041 0.417897 -0.605414
H55   H     H_    0.079475 0.311430 0.452397 0.201169
H56   H     H_    0.099739 0.397546 0.380910 0.239074
N11   N     N_3   0.379585 0.836041 0.582103 -0.605414
H57   H     H_    0.420524 0.811428 0.547602 0.201169
H58   H     H_    0.400261 0.897547 0.619089 0.239074
N12   N     N_3   0.619377 0.840439 0.416873 -0.604580
H59   H     H_    0.578307 0.815989 0.451250 0.202937
H60   H     H_    0.598996 0.903197 0.380426 0.239344

loop_
_geom_bond_atom_site_label_1
_geom_bond_atom_site_label_2
_ccdc_geom_bond_type
C58   C62   A    
C89   N5    S    
C87   C88   S    
Cr6   O18   S    
Cr10  O34   S    
C18   H22   S    
C14   H18   S    
C55   C59   A    
C27   H27   S    
N5    H41   S    
C14   C18   A    
C92   N8    S    
C35   C36   A    
C84   C87   D    
C25   H25   S    
C2    O26   A    
C32   C75   S    
S4    O63   D    
C13   H17   S    
C8    S4    S    
S3    O61   S    
Cr11  O11   S    
Cr12  O40   S    
C73   O5    A    
S1    O53   D    
C15   C19   A    
Cr9   O9    S    
C31   C76   S    
C50   C54   A    
C15   H19   S    
C37   C41   A    
Cr3   O23   S    
S3    O60   D    
C80   O44   A    
Cr7   O7    S    
Cr8   O52   S    
C74   O10   A    
C38   C42   A    
C38   N10   S    
C88   H4    S    
C49   C53   A    
C34   H30   S    
C29   C33   A    
C7    S3    S    
N10   H55   S    
Cr2   O42   S    
C23   C67   S    
C37   N9    S    
N1    H34   S    
C9    C13   A    
C72   O52   A    
C52   C69   S    
C48   O36   A    
Cr9   O37   S    
C70   O46   A    
C22   C66   S    
N11   H57   S    
C67   O39   A    
C49   C72   S    
Cr7   O19   S    
N12   H60   S    
C4    O28   A    
Cr9   O33   S    
N4    H39   S    
C8    C92   A    
C51   C70   S    
Cr5   O17   S    
C8    C12   A    
C22   C90   A    
C67   O3    A    
N9    H53   S    
Cr10  O18   S    
C90   N6    S    
C81   C86   D    
C26   H26   S    
C60   N4    S    
Cr12  O36   S    
C65   O1    A    
Cr8   O20   S    
C83   C88   D    
C74   O6    A    
C5    S1    S    
Cr2   O22   S    
C46   C82   S    
Cr7   O51   S    
Cr6   O6    S    
Cr11  O35   S    
N6    H43   S    
C64   C80   S    
N6    H44   S    
C86   H2    S    
C1    C12   S    
Cr1   O45   S    
N5    H42   S    
Cr4   O48   S    
C85   H1    S    
C2    C11   S    
C36   H32   S    
C39   N11   S    
S4    O62   D    
Cr6   O26   S    
C53   H9    S    
C7    C11   A    
Cr7   O31   S    
S1    O54   D    
C68   O40   A    
C30   C34   A    
N7    H45   S    
C20   H24   S    
C12   C16   A    
Cr8   O32   S    
Cr1   O1    S    
O55   H49   S    
C72   O48   A    
S3    O59   D    
Cr8   O28   S    
Cr8   O8    S    
C77   O13   A    
C30   C73   S    
C53   C57   A    
C19   C23   A    
C39   C43   A    
C29   C74   S    
C51   C55   A    
C59   N3    S    
C25   C26   A    
C6    C90   A    
C24   C68   S    
C81   H14   S    
C4    O24   A    
C77   O41   A    
C48   C84   S    
C73   O9    A    
Cr1   O17   S    
C28   H28   S    
Cr2   O2    S    
N2    H36   S    
C83   H16   S    
Cr5   O49   S    
C50   C71   S    
C5    C9    A    
O58   H50   S    
C65   O37   A    
C71   O47   A    
C47   O31   A    
S2    O57   D    
C66   O2    A    
Cr9   O17   S    
C16   C20   A    
C7    C91   A    
Cr11  O39   S    
C33   C34   A    
C56   H12   S    
C87   H3    S    
C57   N1    S    
N11   H58   S    
C1    O21   A    
Cr4   O44   S    
Cr1   O21   S    
N9    H54   S    
Cr5   O5    S    
C85   C86   S    
Cr6   O30   S    
C46   O34   A    
C75   O7    A    
Cr10  O14   S    
Cr7   O27   S    
C44   H8    S    
Cr3   O43   S    
Cr4   O24   S    
C42   C50   A    
O61   H51   S    
C11   C15   A    
C75   O11   A    
C10   C14   A    
C24   C92   A    
C23   C91   A    
C59   C63   A    
Cr12  O20   S    
Cr10  O10   S    
C35   H31   S    
C82   C85   D    
C69   O49   A    
O64   H52   S    
C37   C61   A    
C78   O14   A    
S2    O58   S    
C79   O15   A    
C54   C58   A    
S1    O55   S    
Cr11  O19   S    
C25   C30   A    
C80   O16   A    
C61   C77   S    
Cr1   O41   S    
C46   O30   A    
Cr3   O47   S    
N12   H59   S    
C27   C32   A    
C78   O42   A    
Cr3   O3    S    
C62   C78   S    
C28   C31   A    
C45   C81   S    
Cr12  O16   S    
C21   C89   A    
C71   O51   A    
N4    H40   S    
C76   O8    A    
C45   O33   A    
C44   C52   A    
Cr4   O4    S    
C47   O35   A    
C32   C36   A    
C57   C61   A    
C63   C79   S    
Cr11  O15   S    
Cr10  O38   S    
C41   C49   A    
C39   C63   A    
N8    H48   S    
C40   C64   A    
C13   C17   A    
C60   C64   A    
C21   C65   S    
C3    O27   A    
C6    S2    S    
C18   C22   A    
C42   H6    S    
Cr12  O12   S    
Cr6   O50   S    
C3    C10   S    
N3    H37   S    
N2    H35   S    
C58   N2    S    
Cr2   O18   S    
C17   H21   S    
S2    O56   D    
Cr4   O20   S    
C55   H11   S    
C43   C51   A    
C84   H15   S    
Cr5   O29   S    
C54   H10   S    
C31   C35   A    
Cr9   O13   S    
C91   N7    S    
N10   H56   S    
Cr3   O19   S    
C16   H20   S    
N1    H33   S    
C5    C89   A    
C68   O4    A    
C6    C10   A    
C70   O50   A    
C3    O23   A    
C1    O25   A    
C47   C83   S    
C43   H7    S    
C33   H29   S    
C40   C44   A    
C79   O43   A    
C56   C60   A    
C2    O22   A    
C76   O12   A    
C26   C29   A    
N8    H47   S    
C27   C28   A    
N7    H46   S    
C66   O38   A    
C41   H5    S    
C19   H23   S    
C82   H13   S    
C38   C62   A    
C4    C9    S    
Cr2   O46   S    
C45   O29   A    
C48   O32   A    
C20   C24   A    
S4    O64   S    
C40   N12   S    
C52   C56   A    
Cr5   O25   S    
C69   O45   A    
N3    H38   S    
C17   C21   A    
