data_mof_unit_15125.cif
_audit_creation_date              2012-10-26T18:50:05-0400
_audit_creation_method            fapswitch 2.2
_symmetry_space_group_name_H-M    P1
_symmetry_Int_Tables_number       1
_space_group_crystal_system       triclinic
_cell_length_a                    10.804983
_cell_length_b                    13.031231
_cell_length_c                    11.676055
_cell_angle_alpha                 101.979043
_cell_angle_beta                  93.82731
_cell_angle_gamma                 90.586183
_cell_volume                      1604.13852864

loop_
_atom_site_label
_atom_site_type_symbol
_atom_type_description
_atom_site_fract_x
_atom_site_fract_y
_atom_site_fract_z
_atom_type_partial_charge
C1    C     C_R   0.505049 0.298478 0.476139 0.532289
C2    C     C_R   0.441797 0.861905 0.447825 -0.035722
C3    C     C_R   0.532227 0.031578 0.549775 0.010847
C4    C     C_R   0.467820 0.968422 0.450220 0.010844
C5    C     C_R   0.362531 0.422886 0.021781 -0.180864
C6    C     C_R   0.637464 0.577117 0.978218 -0.180855
C7    C     C_R   0.378176 0.427567 0.143625 0.066572
C8    C     C_R   0.621818 0.572441 0.856375 0.066589
C9    C     C_R   0.562797 0.529867 0.156817 0.035054
C10   C     C_R   0.437208 0.470128 0.843182 0.035070
C11   C     C_R   0.550814 0.527094 0.034183 -0.014826
C12   C     C_R   0.494954 0.701522 0.523861 0.532285
C13   C     C_R   0.449188 0.472902 0.965816 -0.014826
C14   C     C_R   0.262710 0.499255 0.500309 0.532136
C15   C     C_R   0.737289 0.500746 0.499689 0.532141
C16   C     C_R   0.139046 0.686253 0.600992 -0.104464
C17   C     C_R   0.860944 0.313750 0.398974 -0.104473
C18   C     C_R   0.079446 0.778770 0.645304 -0.139458
C19   C     C_R   0.920530 0.221249 0.354579 -0.139471
C20   C     C_R   0.950824 0.780766 0.639042 -0.126625
C21   C     C_R   0.049149 0.219274 0.360788 -0.126599
C22   C     C_R   0.881013 0.689456 0.591926 -0.108120
C23   C     C_R   0.489372 0.816812 0.541397 -0.024703
C24   C     C_R   0.118971 0.310578 0.407958 -0.108131
C25   C     C_R   0.939745 0.593987 0.547835 0.000068
C26   C     C_R   0.060250 0.406022 0.452128 0.000051
C27   C     C_R   0.070283 0.592827 0.550627 0.010235
C28   C     C_R   0.929713 0.407172 0.449358 0.010237
C29   C     C_R   0.870900 0.500786 0.498481 -0.018288
C30   C     C_R   0.129098 0.499211 0.501514 -0.018294
C31   C     C_R   0.349801 0.802251 0.357189 0.040554
C32   C     C_R   0.385354 0.751023 0.246780 -0.060461
C33   C     C_R   0.296944 0.695473 0.163266 -0.105544
C34   C     C_R   0.510646 0.183190 0.458601 -0.024703
C35   C     C_R   0.172945 0.690706 0.189388 -0.104941
C36   C     C_R   0.136752 0.742823 0.298571 -0.106668
C37   C     C_R   0.224712 0.799282 0.381726 -0.098988
C38   C     C_R   0.650224 0.197761 0.642807 0.040553
C39   C     C_R   0.775295 0.200775 0.618255 -0.098997
C40   C     C_R   0.863240 0.257252 0.701408 -0.106673
C41   C     C_R   0.827055 0.309341 0.810602 -0.104939
C42   C     C_R   0.703077 0.304531 0.836736 -0.105537
C43   C     C_R   0.614677 0.248966 0.753224 -0.060467
C44   C     C_R   0.555138 0.851446 0.761173 0.056288
C45   C     C_R   0.435787 0.011491 0.352400 -0.144792
C46   C     C_R   0.669248 0.867969 0.828190 -0.107449
C47   C     C_R   0.678316 0.854241 0.943940 -0.125947
C48   C     C_R   0.573172 0.825735 0.994447 -0.103594
C49   C     C_R   0.459228 0.809040 0.928655 -0.100509
C50   C     C_R   0.450009 0.822068 0.812595 -0.052296
C51   C     C_R   0.444827 0.148553 0.238834 0.056266
C52   C     C_R   0.549916 0.177994 0.187404 -0.052266
C53   C     C_R   0.540654 0.191027 0.071348 -0.100510
C54   C     C_R   0.426712 0.174270 0.005567 -0.103622
C55   C     C_R   0.321610 0.145698 0.056083 -0.125941
C56   C     C_R   0.564263 0.988506 0.647594 -0.144804
C57   C     C_R   0.330717 0.131970 0.171831 -0.107471
C58   C     C_R   0.459936 0.116756 0.353641 -0.045710
C59   C     C_R   0.540087 0.883244 0.646356 -0.045722
C60   C     C_R   0.558237 0.138098 0.552172 -0.035719
Cu1   Cu    Cu3+1 0.509250 0.507730 0.615930 0.933540
Cu2   Cu    Cu3+1 0.490750 0.492270 0.384070 0.933513
H1    H     H_    0.094629 0.146316 0.329956 0.104134
H2    H     H_    0.218932 0.305012 0.410946 0.126724
H3    H     H_    0.395995 0.962351 0.271730 0.122214
H4    H     H_    0.604064 0.037643 0.728262 0.122213
H5    H     H_    0.360123 0.427111 0.789939 0.117847
H6    H     H_    0.639885 0.572881 0.210060 0.117848
H7    H     H_    0.689527 0.611393 0.814876 0.136791
H8    H     H_    0.310468 0.388622 0.185126 0.136800
H9    H     H_    0.481455 0.753027 0.226722 0.095847
H10   H     H_    0.324446 0.655746 0.078433 0.113352
H11   H     H_    0.104879 0.647135 0.124820 0.101755
H12   H     H_    0.905335 0.853755 0.669771 0.104137
H13   H     H_    0.040558 0.739921 0.318618 0.112977
H14   H     H_    0.195635 0.841354 0.465041 0.105035
H15   H     H_    0.804366 0.158728 0.534930 0.105043
H16   H     H_    0.959415 0.260188 0.681353 0.112990
H17   H     H_    0.895111 0.352923 0.875168 0.101758
H18   H     H_    0.675579 0.344241 0.921576 0.113326
H19   H     H_    0.518587 0.246931 0.773292 0.095844
H20   H     H_    0.749923 0.895193 0.792312 0.093383
H21   H     H_    0.766336 0.867792 0.995263 0.102119
H22   H     H_    0.580341 0.816924 0.084584 0.097492
H23   H     H_    0.283127 0.380309 0.971834 0.083825
H24   H     H_    0.377494 0.788084 0.968099 0.100630
H25   H     H_    0.360248 0.812996 0.764198 0.091303
H26   H     H_    0.639681 0.187121 0.235790 0.091332
H27   H     H_    0.622353 0.212038 0.031899 0.100622
H28   H     H_    0.419514 0.183093 0.915432 0.097495
H29   H     H_    0.233593 0.132105 0.004769 0.102137
H30   H     H_    0.250071 0.104713 0.207724 0.093355
H31   H     H_    0.716861 0.619698 0.028165 0.083819
H32   H     H_    0.239204 0.689550 0.604779 0.125890
H33   H     H_    0.760789 0.310443 0.395219 0.125877
H34   H     H_    0.133362 0.849799 0.682267 0.099252
H35   H     H_    0.866605 0.150227 0.317574 0.099256
H36   H     H_    0.781051 0.695032 0.588900 0.126687
N1    N     N_R   0.523180 0.519350 0.790130 -0.223911
N2    N     N_R   0.476820 0.480650 0.209870 -0.223918
O1    O     O_R   0.506570 0.354460 0.582000 -0.491829
O2    O     O_R   0.493430 0.645540 0.418000 -0.491838
O3    O     O_R   0.490940 0.341410 0.386200 -0.505042
O4    O     O_R   0.509060 0.658590 0.613800 -0.505021
O5    O     O_R   0.327470 0.506520 0.597900 -0.516255
O6    O     O_R   0.672530 0.493480 0.402100 -0.516262
O7    O     O_R   0.311840 0.493460 0.402100 -0.501095
O8    O     O_R   0.688160 0.506540 0.597900 -0.501083

loop_
_geom_bond_atom_site_label_1
_geom_bond_atom_site_label_2
_ccdc_geom_bond_type
C42   H18   S    
C22   H36   S    
C57   H30   S    
C18   H34   S    
C41   C42   A    
Cu1   O1    S    
C35   C36   A    
C7    H8    S    
C19   H35   S    
C10   H5    S    
C23   C59   A    
C12   C23   S    
C8    H7    S    
C39   H15   S    
C15   O6    A    
C28   C29   A    
C19   C21   A    
C8    N1    A    
C24   C26   A    
C54   H28   S    
C38   C39   A    
C44   C59   S    
C18   C20   A    
C46   C47   A    
Cu1   O8    S    
C55   H29   S    
C33   H10   S    
C17   C19   A    
C46   H20   S    
C14   O5    A    
C35   H11   S    
C31   C32   A    
C22   C25   A    
C14   O7    A    
C51   C57   A    
C47   H21   S    
Cu1   O5    S    
C1    O3    A    
C5    C13   A    
Cu1   Cu2   S    
C5    H23   S    
C3    C60   A    
C16   C27   A    
C24   H2    S    
C27   C30   A    
C34   C60   A    
Cu1   N1    S    
C14   C30   S    
C44   C46   A    
C1    C34   S    
C15   C29   S    
C32   H9    S    
C4    C45   A    
C25   C29   A    
C45   C58   A    
C7    N2    A    
C51   C52   A    
C52   H26   S    
Cu1   O4    S    
C6    C11   A    
C5    C7    A    
C6    C8    A    
Cu2   O7    S    
C53   C54   A    
C48   H22   S    
C2    C31   S    
C15   O8    A    
C2    C4    A    
C12   O2    A    
C36   H13   S    
C3    C56   A    
C47   C48   A    
C6    H31   S    
C20   H12   S    
C51   C58   S    
C9    C11   A    
C50   H25   S    
Cu2   N2    S    
C48   C49   A    
C37   H14   S    
C20   C22   A    
C26   C30   A    
C9    N2    A    
C55   C57   A    
C53   H27   S    
C43   H19   S    
C38   C60   S    
C42   C43   A    
C3    C4    A    
C1    O1    A    
C39   C40   A    
C52   C53   A    
Cu2   O3    S    
C44   C50   A    
C54   C55   A    
C36   C37   A    
C17   C28   A    
C16   H32   S    
C49   H24   S    
C17   H33   S    
C10   C13   A    
C41   H17   S    
C12   O4    A    
Cu2   O6    S    
C25   C27   A    
C26   C28   A    
C56   C59   A    
C32   C33   A    
C9    H6    S    
C38   C43   A    
C45   H3    S    
C11   C13   A    
C56   H4    S    
C33   C35   A    
C40   H16   S    
C10   N1    A    
C21   H1    S    
C31   C37   A    
C16   C18   A    
C49   C50   A    
C21   C24   A    
C2    C23   A    
C34   C58   A    
C40   C41   A    
Cu2   O2    S    
