data_mof_unit_38363.cif
_audit_creation_date              2012-10-26T19:04:41-0400
_audit_creation_method            fapswitch 2.2
_symmetry_space_group_name_H-M    P1
_symmetry_Int_Tables_number       1
_space_group_crystal_system       triclinic
_cell_length_a                    9.596091
_cell_length_b                    10.750725
_cell_length_c                    13.414238
_cell_angle_alpha                 91.711862
_cell_angle_beta                  72.216412
_cell_angle_gamma                 89.976293
_cell_volume                      1317.09874212

loop_
_atom_site_label
_atom_site_type_symbol
_atom_type_description
_atom_site_fract_x
_atom_site_fract_y
_atom_site_fract_z
_atom_type_partial_charge
C1    C     C_R   0.500990 0.736912 0.497507 0.538912
C2    C     C_R   0.374445 0.482804 0.816204 -0.018070
C3    C     C_R   0.525824 0.864692 0.304727 -0.096399
C4    C     C_R   0.421393 0.493558 0.700403 0.533607
C5    C     C_R   0.542457 0.927452 0.212323 -0.124928
C6    C     C_R   0.548419 0.056836 0.212558 -0.137861
C7    C     C_R   0.536125 0.124108 0.305413 -0.121484
C8    C     C_R   0.516458 0.062513 0.400420 0.013310
C9    C     C_R   0.513859 0.931247 0.399489 0.021425
C10   C     C_R   0.502941 0.870235 0.493069 -0.027654
C11   C     C_R   0.496430 0.936266 0.585038 -0.129539
C12   C     C_R   0.437294 0.463936 0.979455 0.008617
C13   C     C_R   0.494926 0.065369 0.588073 -0.007173
C14   C     C_R   0.502626 0.128452 0.495935 -0.027538
C15   C     C_R   0.913324 0.333826 0.363719 -0.092761
C16   C     C_R   0.500531 0.262766 0.499133 0.504213
C17   C     C_R   0.012191 0.249417 0.299444 -0.187254
C18   C     C_R   0.155924 0.249089 0.298858 -0.182064
C19   C     C_R   0.200911 0.332196 0.363746 -0.091103
C20   C     C_R   0.102925 0.417623 0.433190 0.146465
C21   C     C_R   0.953463 0.418102 0.433064 0.143592
C22   C     C_R   0.898946 0.578115 0.563640 -0.003041
C23   C     C_R   0.474910 0.444573 0.869839 -0.058108
C24   C     C_R   0.046957 0.578322 0.563332 0.016781
C25   C     C_R   0.578829 0.497099 0.299881 0.521806
C26   C     C_R   0.792732 0.385053 0.027565 0.279628
C27   C     C_R   0.624206 0.476510 0.186038 -0.060989
C28   C     C_R   0.230664 0.520162 0.875504 0.277621
C29   C     C_R   0.188671 0.518180 0.984489 -0.096956
C30   C     C_R   0.290095 0.493129 0.035867 -0.175435
C31   C     C_2   0.483155 0.132628 0.688456 0.184650
C32   C     C_3   0.872827 0.248496 0.723506 0.008517
C33   C     C_3   0.023707 0.185747 0.689814 -0.249941
C34   C     C_R   0.546999 0.451396 0.029564 -0.051760
C35   C     C_3   0.045185 0.101120 0.592810 -0.475154
C36   C     C_3   0.932118 0.208192 0.013407 0.022211
C37   C     C_3   0.084432 0.180296 0.021422 -0.267221
C38   C     C_3   0.199961 0.170795 0.914403 -0.383225
C39   C     C_3   0.092508 0.677364 0.839575 0.013064
C40   C     C_3   0.928586 0.695464 0.857035 -0.246082
C41   C     C_3   0.888245 0.833094 0.858719 -0.497627
C42   C     C_R   0.687702 0.401337 0.973561 0.063719
C43   C     C_R   0.719143 0.366525 0.866569 0.271539
C44   C     C_R   0.610768 0.386340 0.817460 -0.120677
C45   C     C_R   0.520989 0.492706 0.133878 -0.161225
C46   C     C_R   0.760971 0.425755 0.132243 -0.160955
Cu1   Cu    Cu3+1 0.359340 0.500010 0.500010 0.925470
Cu2   Cu    Cu3+1 0.640660 0.499990 0.499990 0.903000
H1    H     H_    0.841986 0.412212 0.172227 0.127312
H2    H     H_    0.313613 0.324824 0.355768 0.186879
H3    H     H_    0.080375 0.643067 0.614609 0.123063
H4    H     H_    0.420698 0.540297 0.176575 0.139955
H5    H     H_    0.248517 0.492913 0.120211 0.116925
H6    H     H_    0.076534 0.539613 0.029910 0.145710
H7    H     H_    0.632447 0.352700 0.738257 0.142325
H8    H     H_    0.489100 0.886050 0.655440 0.154015
H9    H     H_    0.447552 0.228940 0.700440 0.102670
H10   H     H_    0.863188 0.303369 0.656884 0.146817
H11   H     H_    0.787941 0.174860 0.743152 0.164154
H12   H     H_    0.523842 0.764108 0.301097 0.125891
H13   H     H_    0.109938 0.258068 0.672543 0.211496
H14   H     H_    0.035707 0.129290 0.754713 0.156922
H15   H     H_    0.963313 0.025397 0.609559 0.152078
H16   H     H_    0.156560 0.058836 0.569644 0.157059
H17   H     H_    0.033491 0.155275 0.526597 0.171985
H18   H     H_    0.906635 0.141484 0.956600 0.151456
H19   H     H_    0.852141 0.191509 0.091927 0.081603
H20   H     H_    0.115106 0.255248 0.069353 0.175145
H21   H     H_    0.082468 0.090932 0.061410 0.108437
H22   H     H_    0.182873 0.085611 0.870876 0.137993
H23   H     H_    0.552272 0.875436 0.140092 0.114292
H24   H     H_    0.309746 0.165358 0.925463 0.179502
H25   H     H_    0.195944 0.253515 0.867817 0.203849
H26   H     H_    0.155446 0.723449 0.766624 0.138615
H27   H     H_    0.120181 0.724952 0.906195 0.104460
H28   H     H_    0.896507 0.645677 0.793774 0.178059
H29   H     H_    0.866307 0.655073 0.932883 0.175115
H30   H     H_    0.917041 0.884436 0.922709 0.138998
H31   H     H_    0.768644 0.842988 0.872239 0.163697
H32   H     H_    0.946879 0.874653 0.782633 0.143596
H33   H     H_    0.563274 0.105319 0.140485 0.110259
H34   H     H_    0.544406 0.224196 0.301642 0.102627
H35   H     H_    0.821554 0.642267 0.615805 0.121005
H36   H     H_    0.807379 0.328987 0.355018 0.183694
H37   H     H_    0.976662 0.184413 0.249237 0.114995
H38   H     H_    0.233580 0.184321 0.247402 0.131025
N1    N     N_R   0.852480 0.498790 0.499000 -0.248982
N2    N     N_R   0.148360 0.498710 0.498970 -0.240861
O1    O     O_R   0.381190 0.680360 0.500010 -0.503242
O2    O     O_3   0.862017 0.328756 0.810937 -0.508810
O3    O     O_3   0.928236 0.331083 0.978716 -0.496645
O4    O     O_3   0.126343 0.548410 0.827422 -0.510115
O5    O     O_R   0.618760 0.680340 0.500000 -0.488317
O6    O     O_R   0.323240 0.499990 0.650990 -0.445174
O7    O     O_R   0.560820 0.499960 0.650980 -0.521909
O8    O     O_R   0.381240 0.319660 0.500000 -0.527826
O9    O     O_R   0.618810 0.319640 0.499990 -0.527476
O10   O     O_R   0.439180 0.500040 0.349020 -0.525722
O11   O     O_R   0.676760 0.500010 0.349010 -0.515462
O12   O     O_2   0.513374 0.080795 0.759083 -0.569062

loop_
_geom_bond_atom_site_label_1
_geom_bond_atom_site_label_2
_ccdc_geom_bond_type
C21   N1    A    
Cu2   O7    S    
C37   H21   S    
C19   C20   A    
C34   C42   A    
C32   H10   S    
C41   H32   S    
C38   H22   S    
C36   H19   S    
C7    C8    A    
Cu2   O9    S    
C12   C23   A    
C26   C42   A    
C29   C30   A    
Cu1   O10   S    
C17   H37   S    
C28   C29   A    
C5    C6    A    
C36   H18   S    
C16   O9    A    
C29   H6    S    
C35   H17   S    
C37   H20   S    
C18   C19   A    
C39   H26   S    
C25   O11   A    
C32   O2    S    
C33   H14   S    
C8    C14   A    
Cu1   O8    S    
C35   H16   S    
C39   H27   S    
C9    C10   A    
C3    H12   S    
C27   C45   A    
C24   H3    S    
C6    H33   S    
C13   C14   A    
Cu1   O1    S    
C30   H5    S    
C38   H24   S    
C16   O8    A    
C43   O2    S    
Cu2   O5    S    
C41   H30   S    
C8    C9    A    
C45   H4    S    
C26   O3    S    
C31   O12   D    
C23   C44   A    
C40   H28   S    
C32   C33   S    
C2    C4    S    
C43   C44   A    
C37   C38   S    
C3    C9    A    
C4    O7    A    
Cu1   Cu2   S    
C46   H1    S    
C17   C18   A    
Cu2   N1    S    
C28   O4    S    
C34   C45   A    
C18   H38   S    
C22   N1    A    
C24   N2    A    
C6    C7    A    
C4    O6    A    
C27   C46   A    
C1    O5    A    
C40   C41   S    
C14   C16   S    
C42   C43   A    
C12   C34   A    
C19   H2    S    
C39   O4    S    
C39   C40   S    
C36   O3    S    
C15   C17   A    
Cu2   O11   S    
C36   C37   S    
C1    O1    A    
C12   C30   A    
C13   C31   S    
C1    C10   S    
C3    C5    A    
C41   H31   S    
C35   H15   S    
C15   H36   S    
C25   C27   S    
Cu1   N2    S    
C31   H9    S    
C5    H23   S    
C22   H35   S    
C11   C13   A    
C44   H7    S    
C20   N2    A    
C33   C35   S    
Cu1   O6    S    
C22   C24   A    
C10   C11   A    
C26   C46   A    
C25   O10   A    
C15   C21   A    
C7    H34   S    
C20   C21   A    
C33   H13   S    
C2    C23   A    
C40   H29   S    
C2    C28   A    
C32   H11   S    
C11   H8    S    
C38   H25   S    
