data_mof_unit_49499.cif
_audit_creation_date              2013-03-05T15:40:42-0500
_audit_creation_method            fapswitch 2.2
_symmetry_space_group_name_H-M    P1
_symmetry_Int_Tables_number       1
_space_group_crystal_system       triclinic
_cell_length_a                    7.84669
_cell_length_b                    8.589714
_cell_length_c                    12.455537
_cell_angle_alpha                 92.698112
_cell_angle_beta                  102.480336
_cell_angle_gamma                 93.80649
_cell_volume                      816.240666948

loop_
_atom_site_label
_atom_site_type_symbol
_atom_site_description
_atom_site_fract_x
_atom_site_fract_y
_atom_site_fract_z
_atom_type_partial_charge
O1    O     O_R   0.893060 0.738880 0.507150 -0.626327
O2    O     O_R   0.172250 0.711130 0.488470 -0.637388
C1    C     C_R   0.041407 0.793742 0.493029 0.917656
O3    O     O_R   0.944700 0.520730 0.667600 -0.638063
O4    O     O_R   0.223890 0.492980 0.648920 -0.623652
C2    C     C_R   0.114540 0.536133 0.706793 0.854313
Zn1   Zn    Zn3+2 0.813580 0.518530 0.512470 1.002506
Zn2   Zn    Zn3+2 0.186420 0.481470 0.487530 1.021492
O5    O     O_R   0.827750 0.288870 0.511530 -0.566548
O6    O     O_R   0.106940 0.261120 0.492850 -0.580783
O7    O     O_R   0.776110 0.507020 0.351080 -0.590831
O8    O     O_R   0.055300 0.479270 0.332400 -0.619215
C3    C     C_R   0.952884 0.205457 0.496624 0.931751
C4    C     C_R   0.889691 0.485667 0.291125 0.865518
C5    C     C_R   0.845504 0.408025 0.986341 -0.222365
H1    H     H_    0.724726 0.478802 0.780707 0.190117
H2    H     H_    0.913868 0.355981 0.928322 0.154496
C6    C     C_R   0.826283 0.477899 0.172803 -0.095525
C7    C     C_R   0.083403 0.658928 0.887025 -0.217041
C8    C     C_R   0.148479 0.688420 0.999894 -0.115390
C9    C     C_R   0.317127 0.650930 0.048128 -0.168669
C10   C     C_R   0.430625 0.600193 0.981444 0.079818
C11   C     C_R   0.371438 0.596999 0.866487 0.098498
C12   C     C_R   0.598045 0.546071 0.022681 0.075036
C13   C     C_R   0.694995 0.485192 0.948504 0.138746
C14   C     C_R   0.645409 0.510821 0.837823 -0.254653
C15   C     C_R   0.495640 0.584645 0.800958 -0.174863
C16   C     C_R   0.670564 0.547183 0.134254 -0.237246
C17   C     C_R   0.911225 0.401968 0.098721 -0.031726
C18   C     C_R   0.190226 0.599907 0.820810 -0.127746
H3    H     H_    0.609195 0.604932 0.192793 0.169110
H4    H     H_    0.949543 0.680520 0.851889 0.164773
H5    H     H_    0.353525 0.662470 0.136797 0.146214
H6    H     H_    0.064123 0.731195 0.051097 0.156553
H7    H     H_    0.476036 0.628077 0.720284 0.164209
C19   C     C_2   0.061492 0.957572 0.492583 -0.394659
H8    H     H_    0.194817 0.009885 0.518752 0.223464
C20   C     C_2   0.920584 0.042107 0.476302 -0.239691
N1    N     N_2   0.434800 0.456690 0.470850 0.031868
N2    N     N_2   0.565200 0.543310 0.529150 -0.162851
H9    H     H_    0.530423 0.649002 0.556212 0.147961
C21   C     C_1   0.063689 0.316740 0.134487 0.201145
N3    N     N_1   0.185579 0.247725 0.162372 -0.126335
C22   C     C_1   0.741965 0.980025 0.427109 0.328032
N4    N     N_1   0.600473 0.929931 0.387629 -0.152976
N5    N     N_R   0.476953 0.309227 0.441465 0.335919
O9    O     O_R   0.464375 0.196048 0.505719 -0.406983
O10   O     O_R   0.497262 0.277626 0.342131 -0.387669

loop_
_geom_bond_atom_site_label_1
_geom_bond_atom_site_label_2
_geom_bond_distance
_ccdc_geom_bond_type
O4    Zn2   1.964458 S    
Zn1   N2    2.028013 S    
C16   H3    1.076573 S    
C20   C22   1.457061 S    
Zn2   N1    2.028014 S    
C11   C15   1.405919 A    
C17   C21   1.443005 S    
C4    C6    1.446857 S    
C7    C8    1.392959 A    
Zn2   O8    1.981708 S    
C8    H6    1.082849 S    
C8    C9    1.395352 A    
C19   C20   1.347012 D    
O2    C1    1.295758 A    
C3    C20   1.410208 S    
C6    C17   1.409944 A    
O1    Zn1   1.961824 S    
C9    C10   1.417786 A    
C12   C13   1.420189 A    
Zn1   O7    1.964460 S    
C14   C15   1.373740 A    
C1    C19   1.406022 S    
O3    Zn1   1.981707 S    
C7    H4    1.078891 S    
Zn2   O6    1.961825 S    
C19   H8    1.085827 S    
C2    C18   1.479398 S    
O8    C4    1.295908 A    
C5    C17   1.387940 A    
C10   C12   1.420441 A    
N1    N5    1.382791 S    
H1    C14   1.079248 S    
O4    C2    1.295233 A    
O7    C4    1.296948 A    
N5    O10   1.299703 A    
C5    C13   1.396066 A    
C9    H5    1.077385 S    
C21   N3    1.156690 T    
C11   C18   1.415118 A    
C6    C16   1.395556 A    
C22   N4    1.157709 T    
O3    C2    1.311938 A    
N1    N2    1.286380 D    
Zn1   O5    1.982829 S    
O5    C3    1.292912 A    
N5    O9    1.300018 A    
N2    H9    1.027692 S    
C15   H7    1.071753 S    
C13   C14   1.381475 A    
C5    H2    1.085731 S    
C7    C18   1.398450 A    
C10   C11   1.404926 A    
O2    Zn2   1.982828 S    
C12   C16   1.382542 A    
O1    C1    1.277280 A    
O6    C3    1.281411 A    
