data_mof_unit_20321.cif
_audit_creation_date              2012-12-11T14:52:43-0500
_audit_creation_method            fapswitch 2.2
_symmetry_space_group_name_H-M    P1
_symmetry_Int_Tables_number       1
_space_group_crystal_system       triclinic
_cell_length_a                    18.724621
_cell_length_b                    10.963594
_cell_length_c                    18.714831
_cell_angle_alpha                 89.921121
_cell_angle_beta                  91.434942
_cell_angle_gamma                 89.836772
_cell_volume                      3840.72717076

loop_
_atom_site_label
_atom_site_type_symbol
_atom_type_description
_atom_site_fract_x
_atom_site_fract_y
_atom_site_fract_z
_atom_type_partial_charge
Br1   Br    Br    0.394321 0.479857 0.411794 -0.477333
Br2   Br    Br    0.611214 0.472444 0.906696 -0.407339
Br3   Br    Br    0.881982 0.938485 0.086688 -0.421049
Br4   Br    Br    0.111214 0.972442 0.906697 -0.407338
Br5   Br    Br    0.605700 0.480808 0.588396 -0.471034
Br6   Br    Br    0.894316 0.979785 0.411794 -0.477304
Br7   Br    Br    0.105699 0.980850 0.588390 -0.471089
Br8   Br    Br    0.377206 0.432445 0.911539 -0.414615
Br9   Br    Br    0.611074 0.457549 0.081683 -0.399120
Br10  Br    Br    0.877207 0.932447 0.911540 -0.414620
Br11  Br    Br    0.111075 0.957545 0.081684 -0.399127
Br12  Br    Br    0.381980 0.438481 0.086687 -0.421056
C1    C     C_R   0.271769 0.042797 0.853660 0.563907
C2    C     C_R   0.690865 0.534564 0.035871 0.142408
C3    C     C_3   0.997134 0.330545 0.073165 0.042000
C4    C     C_R   0.803936 0.021267 0.961024 0.152639
C5    C     C_R   0.190866 0.034561 0.035872 0.142408
C6    C     C_R   0.302337 0.515623 0.035954 0.139500
C7    C     C_R   0.693422 0.531568 0.960906 0.147413
C8    C     C_R   0.802338 0.015626 0.035955 0.139498
C9    C     C_R   0.193423 0.031565 0.960907 0.147414
C10   C     C_R   0.244367 0.570307 0.071841 -0.010722
C11   C     C_R   0.754826 0.575893 0.926834 -0.001889
C12   C     C_R   0.744369 0.070310 0.071842 -0.010723
C13   C     C_R   0.727892 0.041320 0.145725 0.565573
C14   C     C_R   0.254827 0.075890 0.926835 -0.001889
C15   C     C_R   0.190796 0.631394 0.032617 -0.163956
C16   C     C_R   0.810397 0.628237 0.967567 -0.158824
C17   C     C_R   0.690798 0.131400 0.032618 -0.163955
C18   C     C_R   0.310399 0.128232 0.967568 -0.158822
C19   C     C_R   0.192725 0.637137 0.959838 -0.173026
C20   C     C_R   0.807742 0.631692 0.040422 -0.169349
C21   C     C_R   0.692726 0.137142 0.959839 -0.173024
C22   C     C_R   0.307743 0.131688 0.040423 -0.169348
C23   C     C_R   0.250354 0.587827 0.923313 -0.005732
C24   C     C_R   0.771769 0.542798 0.853660 0.563907
C25   C     C_R   0.747529 0.590188 0.075532 -0.013220
C26   C     C_R   0.750354 0.087830 0.923314 -0.005731
C27   C     C_R   0.247530 0.090185 0.075533 -0.013221
C28   C     C_R   0.496374 0.721701 0.535983 -0.117222
C29   C     C_R   0.502713 0.721787 0.463771 -0.117054
C30   C     C_R   0.996348 0.221676 0.535980 -0.117143
C31   C     C_R   0.002698 0.221770 0.463771 -0.117046
C32   C     C_R   0.507036 0.831322 0.426249 0.020423
C33   C     C_R   0.492490 0.831172 0.573534 0.018826
C34   C     C_R   0.007053 0.331321 0.426257 0.020410
C35   C     C_R   0.227891 0.541319 0.145724 0.565563
C36   C     C_R   0.992507 0.331153 0.573541 0.018853
C37   C     C_R   0.503735 0.942852 0.462912 -0.118039
C38   C     C_R   0.495952 0.942781 0.536845 -0.118657
C39   C     C_R   0.003812 0.442849 0.462934 -0.118032
C40   C     C_R   0.996033 0.442767 0.536867 -0.118662
C41   C     C_R   0.438397 0.816979 0.862062 0.550924
C42   C     C_R   0.527545 0.822110 0.145611 0.547432
C43   C     C_R   0.938397 0.316979 0.862062 0.550922
C44   C     C_R   0.027545 0.322110 0.145611 0.547440
C45   C     C_R   0.222307 0.731137 0.518051 -0.102380
C46   C     C_3   0.483006 0.712121 0.982108 -0.047467
C47   C     C_R   0.777213 0.731471 0.481815 -0.102570
C48   C     C_R   0.722368 0.231205 0.518029 -0.102400
C49   C     C_R   0.277220 0.231473 0.481814 -0.102601
C50   C     C_R   0.214385 0.704104 0.446507 0.357468
C51   C     C_R   0.785163 0.704426 0.553406 0.358215
C52   C     C_R   0.714442 0.204157 0.446484 0.357559
C53   C     C_R   0.285164 0.204450 0.553409 0.358262
C54   C     C_R   0.258000 0.614084 0.416026 0.035482
C55   C     C_R   0.741791 0.614431 0.583972 0.036342
C56   C     C_R   0.758016 0.114064 0.416020 0.035542
C57   C     C_3   0.435043 0.754537 0.043179 -0.106367
C58   C     C_R   0.241791 0.114450 0.583976 0.036370
C59   C     C_R   0.319115 0.572503 0.454493 0.073354
C60   C     C_R   0.680752 0.573122 0.545569 0.073658
C61   C     C_R   0.819101 0.072403 0.454502 0.073260
C62   C     C_R   0.180758 0.073132 0.545566 0.073714
C63   C     C_R   0.326074 0.600071 0.526936 -0.110108
C64   C     C_R   0.673767 0.600695 0.473084 -0.110939
C65   C     C_R   0.826040 0.099925 0.526950 -0.110131
C66   C     C_R   0.173771 0.100706 0.473083 -0.110953
C67   C     C_R   0.274524 0.672872 0.559766 -0.078166
C68   C     C_3   0.983003 0.212119 0.982109 -0.047468
C69   C     C_R   0.725222 0.673216 0.440158 -0.077840
C70   C     C_R   0.774523 0.172825 0.559764 -0.078147
C71   C     C_R   0.225224 0.173229 0.440157 -0.077871
C72   C     C_R   0.260285 0.633896 0.851133 0.566812
C73   C     C_R   0.739215 0.634863 0.148360 0.569796
C74   C     C_R   0.760285 0.133896 0.851133 0.566813
C75   C     C_R   0.239215 0.134862 0.148360 0.569788
C76   C     C_R   0.269008 0.051237 0.647987 0.577293
C77   C     C_R   0.730974 0.051215 0.352003 0.574760
C78   C     C_R   0.769007 0.551236 0.647986 0.577286
C79   C     C_3   0.935041 0.254541 0.043180 -0.106368
C80   C     C_R   0.230972 0.551217 0.352006 0.574727
C81   C     C_R   0.469135 0.823653 0.646533 0.548322
C82   C     C_R   0.530741 0.823735 0.353385 0.536453
C83   C     C_R   0.969144 0.323651 0.646538 0.548330
C84   C     C_R   0.030746 0.323735 0.353388 0.536468
C85   C     C_R   0.275452 0.692059 0.636735 0.559530
C86   C     C_R   0.724446 0.692066 0.363140 0.558348
C87   C     C_R   0.775449 0.192046 0.636731 0.559516
C88   C     C_R   0.224445 0.192073 0.363141 0.558331
C89   C     C_3   0.472963 0.942742 0.029795 -0.121150
C90   C     C_R   0.303935 0.521264 0.961023 0.152642
C91   C     C_3   0.520927 0.900317 0.968329 -0.107200
C92   C     C_3   0.972967 0.442743 0.029794 -0.121148
C93   C     C_3   0.020930 0.400312 0.968328 -0.107202
C94   C     C_3   0.410167 0.866022 0.998192 -0.161270
C95   C     C_3   0.545406 0.788562 0.012670 -0.090363
C96   C     C_3   0.910168 0.366027 0.998191 -0.161268
C97   C     C_3   0.045405 0.288556 0.012670 -0.090362
C98   C     C_3   0.458788 0.823722 0.938165 0.030728
C99   C     C_3   0.497133 0.830546 0.073165 0.042000
C100  C     C_3   0.958789 0.323721 0.938165 0.030730
Cr1   Cr    Cr6+3 0.229630 0.835900 0.747350 1.115531
Cr2   Cr    Cr6+3 0.614200 0.677120 0.250660 1.125115
Cr3   Cr    Cr6+3 0.885800 0.177120 0.749340 1.123925
Cr4   Cr    Cr6+3 0.114200 0.177120 0.250660 1.125090
Cr5   Cr    Cr6+3 0.770370 0.835900 0.252650 1.118552
Cr6   Cr    Cr6+3 0.729630 0.335900 0.747350 1.115558
Cr7   Cr    Cr6+3 0.270370 0.335900 0.252650 1.118531
Cr8   Cr    Cr6+3 0.387410 0.989850 0.750850 1.095331
Cr9   Cr    Cr6+3 0.612590 0.989850 0.249150 1.089665
Cr10  Cr    Cr6+3 0.887410 0.489850 0.750850 1.095330
Cr11  Cr    Cr6+3 0.112590 0.489850 0.249150 1.089691
Cr12  Cr    Cr6+3 0.385800 0.677120 0.749340 1.123935
F1    F     F_    0.160389 0.759675 0.408953 -0.587584
F2    F     F_    0.838964 0.759906 0.590918 -0.585667
F3    F     F_    0.660521 0.259844 0.408894 -0.587607
F4    F     F_    0.338971 0.259873 0.590905 -0.585692
H1    H     H_    0.353472 0.893098 0.990553 0.121500
H2    H     H_    0.629776 0.561796 0.442344 0.201256
H3    H     H_    0.870077 0.060764 0.557754 0.201381
H4    H     H_    0.129777 0.061814 0.442343 0.201239
H5    H     H_    0.469002 0.037003 0.050901 0.144762
H6    H     H_    0.556258 0.959433 0.936543 0.143453
H7    H     H_    0.969008 0.537005 0.050899 0.144766
H8    H     H_    0.056263 0.459423 0.936541 0.143451
H9    H     H_    0.487179 0.617177 0.962440 0.235308
H10   H     H_    0.399700 0.699093 0.076718 0.166877
H11   H     H_    0.987174 0.117175 0.962442 0.235308
H12   H     H_    0.601594 0.757248 0.019679 0.141470
H13   H     H_    0.899697 0.199102 0.076719 0.166875
H14   H     H_    0.145087 0.672253 0.057793 0.202394
H15   H     H_    0.858941 0.660696 0.943790 0.208219
H16   H     H_    0.645089 0.172260 0.057794 0.202396
H17   H     H_    0.358943 0.160692 0.943791 0.208218
H18   H     H_    0.149833 0.686500 0.932611 0.201823
H19   H     H_    0.852851 0.671411 0.069135 0.200201
H20   H     H_    0.649833 0.186506 0.932612 0.201823
H21   H     H_    0.352853 0.171409 0.069136 0.200199
H22   H     H_    0.490967 0.634200 0.561685 0.202934
H23   H     H_    0.853475 0.393107 0.990552 0.121500
H24   H     H_    0.507923 0.634327 0.438068 0.203460
H25   H     H_    0.990912 0.134165 0.561670 0.202928
H26   H     H_    0.007900 0.134300 0.438066 0.203463
H27   H     H_    0.508699 0.028866 0.434972 0.178182
H28   H     H_    0.491210 0.028760 0.564779 0.178337
H29   H     H_    0.008828 0.528867 0.435005 0.178272
H30   H     H_    0.991348 0.528748 0.564814 0.178296
H31   H     H_    0.101592 0.257237 0.019679 0.141475
H32   H     H_    0.185083 0.792860 0.541626 0.210181
H33   H     H_    0.814262 0.793144 0.458161 0.210570
H34   H     H_    0.685210 0.293057 0.541584 0.210083
H35   H     H_    0.314291 0.293076 0.458156 0.210593
H36   H     H_    0.370143 0.560987 0.557730 0.201286
O1    O     O_R   0.214270 0.709000 0.827470 -0.500577
O2    O     O_R   0.543270 0.717630 0.330160 -0.513147
O3    O     O_R   0.956730 0.217630 0.669840 -0.506329
O4    O     O_R   0.043270 0.217630 0.330160 -0.513150
O5    O     O_R   0.320620 0.625640 0.672920 -0.474731
O6    O     O_R   0.679380 0.625640 0.327080 -0.477475
O7    O     O_R   0.820620 0.125640 0.672920 -0.474764
O8    O     O_R   0.179380 0.125640 0.327080 -0.477512
O9    O     O_3   0.334280 0.834290 0.749180 -0.340954
O10   O     O_3   0.665720 0.834290 0.250820 -0.318179
O11   O     O_3   0.834280 0.334290 0.749180 -0.340944
O12   O     O_R   0.785730 0.709000 0.172530 -0.493858
O13   O     O_3   0.165720 0.334290 0.250820 -0.318174
O14   O     O_R   0.236160 0.958490 0.823130 -0.458372
O15   O     O_R   0.763840 0.958490 0.176870 -0.454430
O16   O     O_R   0.736160 0.458490 0.823130 -0.458372
O17   O     O_R   0.263840 0.458490 0.176870 -0.454429
O18   O     O_R   0.332080 0.075470 0.831280 -0.511927
O19   O     O_R   0.667920 0.075470 0.168720 -0.509429
O20   O     O_R   0.832080 0.575470 0.831280 -0.511928
O21   O     O_R   0.167920 0.575470 0.168720 -0.509440
O22   O     O_R   0.446300 0.918110 0.826620 -0.495937
O23   O     O_R   0.714270 0.209000 0.827470 -0.500575
O24   O     O_R   0.553700 0.918110 0.173380 -0.508028
O25   O     O_R   0.946300 0.418110 0.826620 -0.495945
O26   O     O_R   0.053700 0.418110 0.173380 -0.508024
O27   O     O_R   0.457110 0.716200 0.831760 -0.462907
O28   O     O_R   0.542890 0.716200 0.168240 -0.461145
O29   O     O_R   0.957110 0.216200 0.831760 -0.462910
O30   O     O_R   0.042890 0.216200 0.168240 -0.461143
O31   O     O_R   0.320980 0.624310 0.823030 -0.466550
O32   O     O_R   0.679020 0.624310 0.176970 -0.451125
O33   O     O_R   0.820980 0.124310 0.823030 -0.466550
O34   O     O_R   0.285730 0.209000 0.172530 -0.493859
O35   O     O_R   0.179020 0.124310 0.176970 -0.451130
O36   O     O_R   0.213890 0.710430 0.665540 -0.475513
O37   O     O_R   0.786110 0.710430 0.334460 -0.479548
O38   O     O_R   0.713890 0.210430 0.665540 -0.475432
O39   O     O_R   0.286110 0.210430 0.334460 -0.479587
O40   O     O_R   0.235810 0.959820 0.673020 -0.490133
O41   O     O_R   0.764190 0.959820 0.326980 -0.492794
O42   O     O_R   0.735810 0.459820 0.673020 -0.490141
O43   O     O_R   0.264190 0.459820 0.326980 -0.492773
O44   O     O_R   0.331700 0.076900 0.669350 -0.436585
O45   O     O_R   0.445950 0.919440 0.676520 -0.498460
O46   O     O_R   0.668300 0.076900 0.330650 -0.438175
O47   O     O_R   0.831700 0.576900 0.669350 -0.436567
O48   O     O_R   0.168300 0.576900 0.330650 -0.438135
O49   O     O_R   0.554050 0.919440 0.323480 -0.504458
O50   O     O_R   0.945950 0.419440 0.676520 -0.498459
O51   O     O_R   0.054050 0.419440 0.323480 -0.504444
O52   O     O_R   0.456730 0.717630 0.669840 -0.506343

loop_
_geom_bond_atom_site_label_1
_geom_bond_atom_site_label_2
_ccdc_geom_bond_type
C32   C37   A    
Cr5   O10   S    
C94   H1    S    
C9    C14   A    
C92   H7    S    
Cr11  O51   S    
C43   C100  S    
C88   O8    A    
Cr7   O34   S    
C46   C98   S    
C70   C87   S    
C3    C97   S    
C86   O37   A    
C24   O16   A    
C75   O35   A    
Cr11  O13   S    
C23   C90   A    
C33   C81   S    
C82   O2    A    
C45   C50   A    
C20   H19   S    
Cr8   O45   S    
Cr3   O33   S    
Cr5   O15   S    
Br1   C59   S    
C84   O51   A    
Cr2   O32   S    
C73   O12   A    
C26   C74   S    
C91   C98   S    
C52   C56   A    
C25   C73   S    
C4    C8    A    
C36   C83   S    
C91   H6    S    
C46   C95   S    
Br5   C60   S    
Cr5   O41   S    
C5    C27   A    
C78   O47   A    
C88   O39   A    
C87   O7    A    
C69   C86   S    
C72   O31   A    
Cr10  O11   S    
C17   C21   A    
C89   C94   S    
C15   H14   S    
C85   O5    A    
Cr4   O8    S    
C55   C60   A    
C6    C90   A    
Cr1   O40   S    
C95   H12   S    
C37   C38   A    
C66   H4    S    
C12   C17   A    
Cr3   O11   S    
C72   O1    A    
C78   O42   A    
C19   H18   S    
C64   H2    S    
C66   C71   A    
C41   C98   S    
C77   O41   A    
Cr12  O5    S    
C8    C12   A    
C38   H28   S    
C68   C97   S    
C58   C62   A    
C48   H34   S    
C84   O4    A    
C24   O20   A    
C27   C75   S    
C3    C92   S    
C35   O21   A    
C31   H26   S    
Cr9   O46   S    
C62   C66   A    
C35   O17   A    
Cr9   O19   S    
Cr4   O30   S    
Cr10  O20   S    
C10   C35   S    
Cr3   O29   S    
C58   C76   S    
C74   O23   A    
C89   C91   S    
C42   O24   A    
Cr4   O13   S    
C81   O52   A    
C85   O36   A    
Cr6   O38   S    
C48   C70   A    
C45   C67   A    
C76   O44   A    
Cr5   O37   S    
C79   C96   S    
C92   C93   S    
C22   H21   S    
C37   H27   S    
Cr2   O2    S    
Br7   C62   S    
C51   C55   A    
C40   H30   S    
C28   C33   A    
C44   O26   A    
Cr2   O28   S    
C50   C54   A    
C15   C19   A    
C22   C27   A    
Cr8   O44   S    
C53   F4    S    
C16   C20   A    
C30   H25   S    
Cr7   O39   S    
C12   C13   S    
Cr3   O7    S    
C49   C71   A    
C29   H24   S    
Cr4   O35   S    
C18   C22   A    
C54   C80   S    
Cr12  O9    S    
C56   C61   A    
C11   C16   A    
C17   H16   S    
C34   C39   A    
C39   H29   S    
C55   C78   S    
C5    C9    A    
C39   C40   A    
C83   O3    A    
C63   H36   S    
Cr9   O49   S    
Cr11  O21   S    
C7    C11   A    
C41   O22   A    
C54   C59   A    
C47   H33   S    
C21   H20   S    
C49   C53   A    
C96   H23   S    
Cr9   O10   S    
Cr2   O10   S    
C57   C94   S    
C52   F3    S    
Cr11  O48   S    
C68   C100  S    
C56   C77   S    
Br9   C2    S    
C28   H22   S    
Br3   C8    S    
C73   O32   A    
C16   H15   S    
C30   C36   A    
C20   C25   A    
C76   O40   A    
Cr11  O26   S    
C41   O27   A    
C1    O14   A    
C42   O28   A    
C93   H8    S    
C44   O30   A    
C46   H9    S    
C28   C29   A    
C43   O29   A    
C45   H32   S    
Cr6   O11   S    
C11   C24   S    
C71   C88   S    
C87   O38   A    
C81   O45   A    
C29   C32   A    
C19   C23   A    
C1    C14   S    
C80   O48   A    
Cr7   O43   S    
C30   C31   A    
C93   C100  S    
C97   H31   S    
C43   O25   A    
C92   C96   S    
Cr6   O23   S    
Cr5   O12   S    
Cr10  O25   S    
Cr1   O9    S    
Cr12  O52   S    
C57   H10   S    
Cr2   O6    S    
C93   C97   S    
Br11  C5    S    
C82   O49   A    
Cr6   O42   S    
Br2   C7    S    
C49   H35   S    
C95   C99   S    
C2    C7    A    
C67   C85   S    
C65   H3    S    
C47   C69   A    
Cr1   O1    S    
Cr8   O22   S    
C64   C69   A    
C50   F1    S    
C23   C72   S    
C13   O15   A    
C46   C57   S    
Cr7   O17   S    
C77   O46   A    
C89   H5    S    
C89   C99   S    
C68   H11   S    
C47   C51   A    
C21   C26   A    
C48   C52   A    
C10   C15   A    
C3    C44   S    
C68   C79   S    
C6    C10   A    
C80   O43   A    
Br10  C4    S    
C63   C67   A    
Cr9   O24   S    
C59   C63   A    
Br4   C9    S    
C57   C99   S    
Br8   C90   S    
C65   C70   A    
C60   C64   A    
Cr12  O31   S    
Cr1   O36   S    
C42   C99   S    
Cr1   O14   S    
Br6   C61   S    
C31   C34   A    
C51   F2    S    
C32   C82   S    
C74   O33   A    
C3    C79   S    
Cr8   O18   S    
C86   O6    A    
C18   H17   S    
C96   C100  S    
Cr8   O9    S    
C36   C40   A    
C34   C84   S    
C94   C98   S    
C1    O18   A    
Cr10  O50   S    
Br12  C6    S    
C83   O50   A    
C61   C65   A    
Cr10  O47   S    
Cr4   O4    S    
C91   C95   S    
C33   C38   A    
Cr7   O13   S    
C75   O34   A    
C79   H13   S    
C53   C58   A    
Cr3   O3    S    
Cr12  O27   S    
C13   O19   A    
C4    C26   A    
C2    C25   A    
C14   C18   A    
Cr6   O16   S    
