data_mof_unit_24965.cif
_audit_creation_date              2012-12-10T19:10:32-0500
_audit_creation_method            fapswitch 2.2
_symmetry_space_group_name_H-M    P1
_symmetry_Int_Tables_number       1
_space_group_crystal_system       triclinic
_cell_length_a                    10.633504
_cell_length_b                    9.735184
_cell_length_c                    15.723123
_cell_angle_alpha                 89.856142
_cell_angle_beta                  91.33016
_cell_angle_gamma                 90.137194
_cell_volume                      1627.19564951

loop_
_atom_site_label
_atom_site_type_symbol
_atom_type_description
_atom_site_fract_x
_atom_site_fract_y
_atom_site_fract_z
_atom_type_partial_charge
C1    C     C_R   0.257683 0.499980 0.502471 0.895120
C2    C     C_3   0.636032 0.500915 0.952123 -0.402073
C3    C     C_3   0.637469 0.501087 0.050271 -0.394940
C4    C     C_1   0.497938 0.498513 0.825904 -0.134989
C5    C     C_1   0.502498 0.500722 0.173943 -0.135187
C6    C     C_1   0.502766 0.500878 0.249323 -0.186742
C7    C     C_3   0.074641 0.625732 0.559312 0.407966
C8    C     C_3   0.073121 0.362868 0.546558 0.410309
C9    C     C_3   0.929857 0.622077 0.561701 -0.483097
C10   C     C_3   0.928908 0.364961 0.548322 -0.478428
C11   C     C_3   0.066477 0.514772 0.414570 -0.650801
C12   C     C_3   0.120882 0.500288 0.506549 0.050275
C13   C     C_3   0.878357 0.500000 0.507757 0.096170
C14   C     C_R   0.501322 0.500226 0.338236 0.899590
C15   C     C_3   0.922889 0.512120 0.415329 -0.414535
C16   C     C_3   0.388260 0.081841 0.450133 0.485853
C17   C     C_3   0.390173 0.917987 0.447819 0.456373
C18   C     C_3   0.614588 0.081292 0.459125 -0.263665
C19   C     C_3   0.616075 0.919363 0.461062 -0.255899
C20   C     C_3   0.495760 0.080643 0.585741 -0.386483
C21   C     C_3   0.492767 0.918755 0.585597 -0.384963
C22   C     C_R   0.742166 0.500042 0.505420 0.864872
C23   C     C_R   0.499599 0.499778 0.661720 0.951458
C24   C     C_3   0.431220 0.628501 0.047719 -0.408332
C25   C     C_3   0.432778 0.369478 0.048904 -0.400591
C26   C     C_3   0.431818 0.368432 0.950662 -0.397383
C27   C     C_3   0.429179 0.627383 0.949570 -0.396981
C28   C     C_1   0.498485 0.499055 0.750576 -0.194938
C29   C     C_3   0.501037 0.499963 0.082473 0.373172
C30   C     C_3   0.498608 0.498714 0.917317 0.373242
H1    H     H_    0.329964 0.627256 0.925392 0.173236
H2    H     H_    0.332953 0.364478 0.925805 0.171936
H3    H     H_    0.893009 0.721495 0.536570 0.135544
H4    H     H_    0.892638 0.273832 0.512750 0.134997
H5    H     H_    0.096684 0.613394 0.386054 0.178338
H6    H     H_    0.100169 0.431716 0.372865 0.186998
H7    H     H_    0.885195 0.607617 0.385120 0.181764
H8    H     H_    0.887303 0.423540 0.376974 0.178538
H9    H     H_    0.302775 0.112663 0.485326 -0.070956
H10   H     H_    0.302827 0.881357 0.479049 -0.053151
H11   H     H_    0.621975 0.118349 0.392481 0.195485
H12   H     H_    0.628455 0.878860 0.395753 0.194914
H13   H     H_    0.579096 0.116806 0.623581 0.185865
H14   H     H_    0.572587 0.879251 0.625501 0.189609
H15   H     H_    0.412125 0.120346 0.618722 0.174025
H16   H     H_    0.405725 0.881979 0.616169 0.164724
H17   H     H_    0.699775 0.120214 0.493628 0.142900
H18   H     H_    0.699774 0.884240 0.498799 0.141071
H19   H     H_    0.332971 0.630013 0.070688 0.168560
H20   H     H_    0.334313 0.366890 0.071463 0.169441
H21   H     H_    0.480911 0.275646 0.073718 0.172058
H22   H     H_    0.478898 0.723597 0.071060 0.169694
H23   H     H_    0.480255 0.274557 0.928004 0.164330
H24   H     H_    0.474858 0.722443 0.925521 0.164891
H25   H     H_    0.688413 0.593806 0.074220 0.164436
H26   H     H_    0.689308 0.409310 0.074649 0.164686
H27   H     H_    0.685744 0.593924 0.928697 0.164456
H28   H     H_    0.687814 0.409456 0.929120 0.164355
H29   H     H_    0.102914 0.721254 0.524860 0.027171
H30   H     H_    0.101522 0.276960 0.504166 0.017420
H31   H     H_    0.897732 0.611710 0.628320 0.182621
H32   H     H_    0.895672 0.355998 0.614762 0.183564
N1    N     N_3   0.499750 0.138610 0.498180 -0.074929
N2    N     N_3   0.499750 0.861390 0.498180 -0.077495
O1    O     O_R   0.314910 0.616040 0.499980 -0.650517
O2    O     O_R   0.314910 0.383960 0.499980 -0.625952
O3    O     O_R   0.500120 0.616090 0.377110 -0.591140
O4    O     O_R   0.500120 0.383910 0.377110 -0.564835
O5    O     O_R   0.685320 0.616040 0.499960 -0.638705
O6    O     O_R   0.685320 0.383960 0.499960 -0.640959
O7    O     O_R   0.500110 0.615990 0.622830 -0.625115
O8    O     O_R   0.500110 0.384010 0.622830 -0.624438
Zn1   Zn    Zn3+2 0.500150 0.654960 0.499960 0.931016
Zn2   Zn    Zn3+2 0.500150 0.345040 0.499960 0.946539
O9    O     O_3   0.385847 0.136659 0.366039 -0.557337
C31   C     C_3   0.261875 0.168772 0.338388 0.157792
H33   H     H_    0.221901 0.249092 0.378964 0.124281
H34   H     H_    0.199575 0.077801 0.340639 0.102151
C32   C     C_3   0.262416 0.222452 0.247474 -0.860561
H35   H     H_    0.318971 0.154542 0.206704 0.264012
H36   H     H_    0.164594 0.227205 0.221365 0.193594
H37   H     H_    0.302607 0.327355 0.246276 0.246473
O10   O     O_3   0.396337 0.873131 0.361786 -0.572925
C33   C     C_3   0.284572 0.806818 0.333047 0.173870
H38   H     H_    0.197482 0.854171 0.357365 0.063191
H39   H     H_    0.286373 0.698114 0.352861 0.166723
C34   C     C_3   0.278004 0.809565 0.236419 -0.875153
H40   H     H_    0.365824 0.766696 0.210709 0.265304
H41   H     H_    0.196891 0.747020 0.213075 0.196588
H42   H     H_    0.266147 0.916385 0.213193 0.257178
O11   O     O_3   0.128371 0.621212 0.642791 -0.551519
C35   C     C_3   0.133241 0.753655 0.679250 0.109602
H43   H     H_    0.036928 0.796070 0.686060 0.118028
H44   H     H_    0.189811 0.825268 0.640189 0.107318
C36   C     C_3   0.195507 0.743660 0.767061 -0.829077
H45   H     H_    0.293987 0.707810 0.761458 0.259271
H46   H     H_    0.196196 0.845757 0.798222 0.190054
H47   H     H_    0.143082 0.670129 0.807202 0.255928
O12   O     O_3   0.125200 0.347527 0.630058 -0.546953
C37   C     C_3   0.129317 0.207979 0.654703 0.107629
H48   H     H_    0.185472 0.146290 0.610007 0.104543
H49   H     H_    0.032829 0.164060 0.657720 0.113923
C38   C     C_3   0.191705 0.197635 0.742481 -0.829389
H50   H     H_    0.136109 0.255317 0.789425 0.254512
H51   H     H_    0.197421 0.088435 0.762409 0.188892
H52   H     H_    0.288327 0.241165 0.741170 0.260691

loop_
_geom_bond_atom_site_label_1
_geom_bond_atom_site_label_2
_ccdc_geom_bond_type
C24   H22   S    
C34   H40   S    
C26   H2    S    
C16   O9    S    
N2    Zn1   S    
C36   H45   S    
C24   C27   S    
C18   H17   S    
C36   H47   S    
C9    H31   S    
C11   H6    S    
C8    O12   S    
C31   H34   S    
C17   N2    S    
C5    C6    T    
C18   N1    S    
O4    Zn2   S    
O2    Zn2   S    
O1    Zn1   S    
C18   C19   S    
C3    C29   S    
C9    C13   S    
C25   H20   S    
C15   H7    S    
C21   N2    S    
C24   C29   S    
C3    H25   S    
C38   H51   S    
O10   C33   S    
C16   C17   S    
O6    Zn2   S    
C1    O1    A    
C14   O3    A    
C31   C32   S    
O5    Zn1   S    
O3    Zn1   S    
C16   N1    S    
C22   O5    A    
C20   H15   S    
C19   H12   S    
C27   C30   S    
C9    H3    S    
C10   H32   S    
C1    C12   S    
C11   C15   S    
C7    H29   S    
C4    C28   T    
C5    C29   S    
C25   C29   S    
C7    C12   S    
C27   H24   S    
C27   H1    S    
C23   O7    A    
C33   H38   S    
O8    Zn2   S    
C18   H11   S    
O11   C35   S    
C32   H36   S    
C19   H18   S    
C25   C26   S    
C35   C36   S    
C17   O10   S    
C17   H10   S    
O9    C31   S    
C25   H21   S    
C15   H8    S    
C6    C14   S    
C21   H14   S    
C3    H26   S    
O12   C37   S    
C19   N2    S    
C8    C12   S    
C7    O11   S    
C35   H44   S    
C1    O2    A    
C10   H4    S    
C23   C28   S    
C31   H33   S    
N1    Zn2   S    
C37   H49   S    
C26   C30   S    
C13   C15   S    
C26   H23   S    
C20   H13   S    
O7    Zn1   S    
C21   H16   S    
C2    H27   S    
C24   H19   S    
C7    C9    S    
C23   O8    A    
C33   H39   S    
C10   C13   S    
C32   H37   S    
C11   C12   S    
C36   H46   S    
C33   C34   S    
C2    C30   S    
C20   N1    S    
C11   H5    S    
C2    C3    S    
C8    H30   S    
C35   H43   S    
C13   C22   S    
C38   H52   S    
C37   C38   S    
C2    H28   S    
C16   H9    S    
C32   H35   S    
C20   C21   S    
C8    C10   S    
C34   H42   S    
C38   H50   S    
C34   H41   S    
C14   O4    A    
C37   H48   S    
C22   O6    A    
C4    C30   S    
