data_mof_unit_36455.cif
_audit_creation_date              2012-12-11T14:38:17-0500
_audit_creation_method            fapswitch 2.2
_symmetry_space_group_name_H-M    P1
_symmetry_Int_Tables_number       1
_space_group_crystal_system       monoclinic
_cell_length_a                    19.604375
_cell_length_b                    11.07903
_cell_length_c                    19.683068
_cell_angle_alpha                 90.0
_cell_angle_beta                  96.628587
_cell_angle_gamma                 90.0
_cell_volume                      4246.53448749

loop_
_atom_site_label
_atom_site_type_symbol
_atom_type_description
_atom_site_fract_x
_atom_site_fract_y
_atom_site_fract_z
_atom_type_partial_charge
C1    C     C_R   0.706064 0.000636 0.366124 0.547069
C2    C     C_R   0.293936 0.000636 0.633876 0.547068
C3    C     C_R   0.206064 0.500636 0.366124 0.547069
C4    C     C_R   0.793936 0.500636 0.633876 0.547068
C5    C     C_3   0.687523 0.456164 0.458157 0.045769
C6    C     C_3   0.312477 0.456164 0.541843 0.045769
C7    C     C_3   0.187523 0.956164 0.458157 0.045769
C8    C     C_3   0.812477 0.956164 0.541843 0.045769
C9    C     C_3   0.829043 0.545125 0.514449 -0.191112
C10   C     C_3   0.170957 0.545124 0.485551 -0.191112
C11   C     C_3   0.329043 0.045124 0.514449 -0.191112
C12   C     C_3   0.670957 0.045124 0.485551 -0.191112
C13   C     C_3   0.799965 0.339232 0.548653 -0.250446
C14   C     C_3   0.200035 0.339232 0.451347 -0.250445
C15   C     C_3   0.299965 0.839231 0.548653 -0.250446
C16   C     C_3   0.700035 0.839232 0.451347 -0.250446
C17   C     C_3   0.781531 0.472034 0.559192 -0.007387
C18   C     C_3   0.218469 0.472034 0.440808 -0.007387
C19   C     C_3   0.281531 0.972034 0.559192 -0.007387
C20   C     C_3   0.718469 0.972034 0.440808 -0.007387
C21   C     C_3   0.755268 0.415065 0.429662 0.063328
C22   C     C_3   0.244732 0.415065 0.570338 0.063328
C23   C     C_3   0.255268 0.915065 0.429662 0.063328
C24   C     C_3   0.744732 0.915065 0.570338 0.063328
C25   C     C_3   0.812525 0.512924 0.436560 0.040869
C26   C     C_3   0.187475 0.512923 0.563440 0.040870
C27   C     C_3   0.312525 0.012924 0.436560 0.040869
C28   C     C_3   0.687475 0.012924 0.563440 0.040869
C29   C     C_3   0.787030 0.308126 0.474278 -0.274263
C30   C     C_3   0.212970 0.308126 0.525722 -0.274263
C31   C     C_3   0.287030 0.808126 0.474278 -0.274263
C32   C     C_3   0.712970 0.808126 0.525722 -0.274263
C33   C     C_3   0.428332 0.237142 0.969192 -0.217405
C34   C     C_3   0.445062 0.235727 0.047085 -0.249880
C35   C     C_3   0.054938 0.735725 0.952915 -0.249881
C36   C     C_3   0.071669 0.737138 0.030808 -0.217404
C37   C     C_3   0.491123 0.039764 0.960890 -0.234961
C38   C     C_3   0.571668 0.237142 0.030808 -0.217403
C39   C     C_3   0.928332 0.737143 0.969192 -0.217406
C40   C     C_3   0.008874 0.539764 0.039110 -0.234961
C41   C     C_3   0.554938 0.235726 0.952915 -0.249882
C42   C     C_3   0.508877 0.039764 0.039109 -0.234960
C43   C     C_3   0.991121 0.539764 0.960891 -0.234960
C44   C     C_3   0.945062 0.735730 0.047085 -0.249880
C45   C     C_R   0.537168 0.180501 0.339217 0.526667
C46   C     C_R   0.462832 0.180501 0.660783 0.526667
C47   C     C_R   0.037167 0.680501 0.339217 0.526667
C48   C     C_R   0.962832 0.680501 0.660783 0.526667
C49   C     C_3   0.485578 0.171881 0.933981 0.053154
C50   C     C_3   0.514422 0.171881 0.066019 0.053158
C51   C     C_3   0.985578 0.671881 0.933981 0.053155
C52   C     C_3   0.014421 0.671881 0.066019 0.053157
C53   C     C_1   0.762581 0.427664 0.904683 -0.016663
C54   C     C_1   0.237419 0.427664 0.095317 -0.016663
C55   C     C_1   0.262581 0.927664 0.904683 -0.016663
C56   C     C_1   0.737419 0.927664 0.095317 -0.016663
C57   C     C_1   0.748002 0.406585 0.034579 -0.053449
C58   C     C_1   0.251998 0.406585 0.965421 -0.053448
C59   C     C_1   0.248002 0.906585 0.034579 -0.053449
C60   C     C_1   0.751998 0.906585 0.965421 -0.053448
C61   C     C_1   0.754334 0.416291 0.964080 -0.052105
C62   C     C_1   0.245666 0.416291 0.035920 -0.052105
C63   C     C_1   0.254334 0.916291 0.964080 -0.052105
C64   C     C_1   0.745666 0.916291 0.035920 -0.052105
C65   C     C_1   0.743195 0.392145 0.094527 -0.017118
C66   C     C_1   0.256805 0.392145 0.905473 -0.017118
C67   C     C_1   0.243195 0.892145 0.094527 -0.017118
C68   C     C_1   0.756805 0.892145 0.905473 -0.017118
C69   C     C_R   0.740547 0.365401 0.359896 0.511131
C70   C     C_R   0.259453 0.365401 0.640104 0.511130
C71   C     C_R   0.240547 0.865402 0.359896 0.511130
C72   C     C_R   0.759453 0.865401 0.640104 0.511130
C73   C     C_R   0.721955 0.954418 0.163111 0.546755
C74   C     C_R   0.278045 0.954418 0.836889 0.546756
C75   C     C_R   0.221955 0.454418 0.163111 0.546755
C76   C     C_R   0.778045 0.454418 0.836889 0.546756
C77   C     C_R   0.534246 0.178978 0.139971 0.542608
C78   C     C_R   0.465754 0.178977 0.860028 0.542607
C79   C     C_R   0.034246 0.678978 0.139972 0.542608
C80   C     C_R   0.965753 0.678978 0.860028 0.542608
C81   C     C_R   0.735865 0.358102 0.163546 0.541609
C82   C     C_R   0.264135 0.358103 0.836454 0.541609
C83   C     C_R   0.235865 0.858102 0.163546 0.541609
C84   C     C_R   0.764135 0.858103 0.836454 0.541609
C85   C     C_1   0.483117 0.173566 0.593444 -0.051384
C86   C     C_1   0.516883 0.173566 0.406556 -0.051384
C87   C     C_1   0.983117 0.673566 0.593444 -0.051385
C88   C     C_1   0.016883 0.673566 0.406556 -0.051385
C89   C     C_1   0.505632 0.170789 0.465344 -0.088120
C90   C     C_1   0.494368 0.170789 0.534656 -0.088120
C91   C     C_1   0.005631 0.670789 0.465344 -0.088120
C92   C     C_1   0.994368 0.670789 0.534656 -0.088120
C93   C     C_3   0.703771 0.486840 0.533798 -0.176697
C94   C     C_3   0.296229 0.486840 0.466202 -0.176697
C95   C     C_3   0.203771 0.986840 0.533798 -0.176696
C96   C     C_3   0.796229 0.986840 0.466202 -0.176697
Cr1   Cr    Cr6+3 0.765780 0.160710 0.267420 1.004044
Cr2   Cr    Cr6+3 0.234220 0.160710 0.732580 1.004044
Cr3   Cr    Cr6+3 0.265780 0.660710 0.267420 1.004044
Cr4   Cr    Cr6+3 0.734220 0.660710 0.732580 1.004044
Cr5   Cr    Cr6+3 0.612200 0.009560 0.248850 1.004695
Cr6   Cr    Cr6+3 0.387800 0.009560 0.751150 1.004695
Cr7   Cr    Cr6+3 0.112200 0.509560 0.248850 1.004695
Cr8   Cr    Cr6+3 0.887800 0.509560 0.751150 1.004695
Cr9   Cr    Cr6+3 0.616030 0.323720 0.248510 1.000114
Cr10  Cr    Cr6+3 0.383970 0.323720 0.751490 1.000114
Cr11  Cr    Cr6+3 0.116030 0.823720 0.248510 1.000114
Cr12  Cr    Cr6+3 0.883970 0.823720 0.751490 1.000114
H1    H     H_    0.684967 0.577202 0.545149 0.155409
H2    H     H_    0.315033 0.577203 0.454851 0.155409
H3    H     H_    0.184968 0.077203 0.545149 0.155409
H4    H     H_    0.815033 0.077203 0.454851 0.155409
H5    H     H_    0.837279 0.279617 0.458038 0.136860
H6    H     H_    0.162722 0.279616 0.541962 0.136860
H7    H     H_    0.337279 0.779617 0.458038 0.136860
H8    H     H_    0.662721 0.779617 0.541962 0.136860
H9    H     H_    0.882674 0.515457 0.530326 0.101635
H10   H     H_    0.117326 0.515457 0.469674 0.101635
H11   H     H_    0.382674 0.015455 0.530326 0.101635
H12   H     H_    0.617326 0.015456 0.469674 0.101635
H13   H     H_    0.859608 0.471885 0.419243 0.132839
H14   H     H_    0.140392 0.471884 0.580757 0.132839
H15   H     H_    0.359608 0.971885 0.419243 0.132839
H16   H     H_    0.640392 0.971885 0.580757 0.132839
H17   H     H_    0.377874 0.192255 0.954828 0.119982
H18   H     H_    0.447004 0.330162 0.066568 0.140974
H19   H     H_    0.052996 0.830160 0.933433 0.140975
H20   H     H_    0.122127 0.692246 0.045171 0.119981
H21   H     H_    0.422811 0.332792 0.952066 0.149421
H22   H     H_    0.403764 0.187840 0.070684 0.116342
H23   H     H_    0.096235 0.687838 0.929315 0.116342
H24   H     H_    0.077193 0.832787 0.047935 0.149420
H25   H     H_    0.441560 0.991434 0.947705 0.149125
H26   H     H_    0.577190 0.332792 0.047934 0.149420
H27   H     H_    0.922810 0.832792 0.952065 0.149421
H28   H     H_    0.058436 0.491430 0.052296 0.149126
H29   H     H_    0.468640 0.990067 0.063319 0.127352
H30   H     H_    0.552996 0.330160 0.933432 0.140975
H31   H     H_    0.947007 0.830166 0.066567 0.140976
H32   H     H_    0.031358 0.490067 0.936682 0.127354
H33   H     H_    0.596236 0.187839 0.929316 0.116343
H34   H     H_    0.558440 0.991433 0.052294 0.149125
H35   H     H_    0.941558 0.491434 0.947705 0.149125
H36   H     H_    0.903764 0.687848 0.070685 0.116342
H37   H     H_    0.622127 0.192254 0.045171 0.119981
H38   H     H_    0.531359 0.990067 0.936681 0.127353
H39   H     H_    0.968636 0.490070 0.063318 0.127352
H40   H     H_    0.877873 0.692256 0.954829 0.119982
H41   H     H_    0.673323 0.425663 0.563214 0.095692
H42   H     H_    0.326677 0.425663 0.436787 0.095692
H43   H     H_    0.173323 0.925664 0.563214 0.095692
H44   H     H_    0.826677 0.925663 0.436786 0.095692
H45   H     H_    0.651956 0.377024 0.453848 0.129934
H46   H     H_    0.348044 0.377025 0.546152 0.129934
H47   H     H_    0.151956 0.877024 0.453848 0.129934
H48   H     H_    0.848044 0.877024 0.546152 0.129934
H49   H     H_    0.333198 0.142207 0.524534 0.102887
H50   H     H_    0.666802 0.142208 0.475466 0.102888
H51   H     H_    0.833198 0.642208 0.524534 0.102887
H52   H     H_    0.166802 0.642208 0.475466 0.102888
H53   H     H_    0.855082 0.321166 0.566376 0.157025
H54   H     H_    0.144918 0.321166 0.433624 0.157024
H55   H     H_    0.355081 0.821165 0.566377 0.157025
H56   H     H_    0.644918 0.821166 0.433623 0.157025
H57   H     H_    0.769857 0.281359 0.578775 0.209897
H58   H     H_    0.230143 0.281359 0.421224 0.209897
H59   H     H_    0.269856 0.781359 0.578775 0.209897
H60   H     H_    0.730143 0.781359 0.421225 0.209897
H61   H     H_    0.753416 0.231120 0.467731 0.135404
H62   H     H_    0.246585 0.231120 0.532268 0.135404
H63   H     H_    0.253416 0.731119 0.467731 0.135404
H64   H     H_    0.746584 0.731119 0.532269 0.135404
O1    O     O_R   0.783100 0.287550 0.345460 -0.545696
O2    O     O_R   0.216900 0.287550 0.654540 -0.545696
O3    O     O_R   0.283100 0.787550 0.345460 -0.545696
O4    O     O_R   0.716900 0.787550 0.654540 -0.545695
O5    O     O_R   0.554710 0.081900 0.170950 -0.507544
O6    O     O_R   0.445290 0.081900 0.829050 -0.507544
O7    O     O_R   0.054710 0.581900 0.170950 -0.507544
O8    O     O_R   0.945290 0.581900 0.829050 -0.507544
O9    O     O_R   0.545650 0.284910 0.163740 -0.523301
O10   O     O_R   0.454350 0.284910 0.836260 -0.523301
O11   O     O_R   0.045650 0.784910 0.163740 -0.523301
O12   O     O_R   0.954350 0.784910 0.836260 -0.523301
O13   O     O_R   0.677950 0.374280 0.185410 -0.500453
O14   O     O_R   0.322050 0.374280 0.814590 -0.500453
O15   O     O_R   0.177950 0.874280 0.185410 -0.500453
O16   O     O_R   0.822050 0.874280 0.814590 -0.500453
O17   O     O_3   0.664670 0.164660 0.254930 -0.268774
O18   O     O_3   0.335330 0.164660 0.745070 -0.268774
O19   O     O_3   0.164670 0.664660 0.254930 -0.268774
O20   O     O_3   0.835330 0.664660 0.745070 -0.268774
O21   O     O_R   0.760020 0.037400 0.337700 -0.515186
O22   O     O_R   0.239980 0.037400 0.662300 -0.515186
O23   O     O_R   0.260020 0.537400 0.337700 -0.515185
O24   O     O_R   0.739980 0.537400 0.662300 -0.515186
O25   O     O_R   0.666600 0.921990 0.332020 -0.523830
O26   O     O_R   0.333400 0.921990 0.667980 -0.523830
O27   O     O_R   0.166600 0.421990 0.332020 -0.523830
O28   O     O_R   0.833400 0.421990 0.667980 -0.523830
O29   O     O_R   0.557260 0.082670 0.312540 -0.511671
O30   O     O_R   0.442740 0.082670 0.687460 -0.511671
O31   O     O_R   0.057260 0.582670 0.312540 -0.511671
O32   O     O_R   0.942740 0.582670 0.687460 -0.511671
O33   O     O_R   0.548410 0.285740 0.316480 -0.514626
O34   O     O_R   0.451590 0.285740 0.683520 -0.514625
O35   O     O_R   0.048410 0.785740 0.316480 -0.514626
O36   O     O_R   0.951590 0.785740 0.683520 -0.514625
O37   O     O_R   0.680500 0.375040 0.327000 -0.510894
O38   O     O_R   0.319500 0.375040 0.673000 -0.510894
O39   O     O_R   0.180500 0.875040 0.327000 -0.510894
O40   O     O_R   0.819500 0.875040 0.673000 -0.510894
O41   O     O_R   0.780350 0.286720 0.192720 -0.506981
O42   O     O_R   0.219650 0.286720 0.807280 -0.506981
O43   O     O_R   0.280350 0.786720 0.192720 -0.506981
O44   O     O_R   0.719650 0.786720 0.807280 -0.506981
O45   O     O_R   0.757470 0.036630 0.196110 -0.490536
O46   O     O_R   0.242530 0.036630 0.803890 -0.490536
O47   O     O_R   0.257470 0.536630 0.196110 -0.490536
O48   O     O_R   0.742530 0.536630 0.803890 -0.490536
O49   O     O_R   0.663840 0.921160 0.179280 -0.510960
O50   O     O_R   0.336160 0.921160 0.820720 -0.510961
O51   O     O_R   0.163840 0.421160 0.179280 -0.510960
O52   O     O_R   0.836160 0.421160 0.820720 -0.510961
N1    N     N_2   0.652837 0.558269 0.421859 -0.507348
H65   H     H_    0.660875 0.569915 0.371628 0.280452
C97   C     C_3   0.580794 0.571946 0.430559 -0.334561
H66   H     H_    0.560666 0.656438 0.405382 0.135780
H67   H     H_    0.573452 0.577234 0.485566 0.132919
H68   H     H_    0.550828 0.494667 0.406725 0.166316
N2    N     N_2   0.347162 0.558269 0.578141 -0.507348
H69   H     H_    0.339125 0.569916 0.628372 0.280453
C98   C     C_3   0.419206 0.571947 0.569441 -0.334561
H70   H     H_    0.439334 0.656438 0.594618 0.135780
H71   H     H_    0.426548 0.577235 0.514434 0.132919
H72   H     H_    0.449172 0.494668 0.593275 0.166316
N3    N     N_2   0.152837 0.058269 0.421859 -0.507348
H73   H     H_    0.160875 0.069915 0.371628 0.280452
C99   C     C_3   0.080794 0.071946 0.430559 -0.334561
H74   H     H_    0.060666 0.156438 0.405382 0.135780
H75   H     H_    0.073452 0.077235 0.485566 0.132919
H76   H     H_    0.050828 0.994667 0.406726 0.166316
N4    N     N_2   0.847163 0.058269 0.578141 -0.507348
H77   H     H_    0.839125 0.069915 0.628372 0.280452
C100  C     C_3   0.919206 0.071946 0.569440 -0.334561
H78   H     H_    0.939334 0.156438 0.594618 0.135780
H79   H     H_    0.926548 0.077234 0.514434 0.132919
H80   H     H_    0.949172 0.994667 0.593275 0.166316
N5    N     N_2   0.294261 0.116401 0.392814 -0.534977
H81   H     H_    0.267039 0.094293 0.346558 0.252663
C101  C     C_3   0.349663 0.196564 0.380955 -0.334016
H82   H     H_    0.328948 0.273929 0.349129 0.158698
H83   H     H_    0.386897 0.148309 0.352376 0.149726
H84   H     H_    0.374880 0.232497 0.429979 0.157194
N6    N     N_2   0.705739 0.116401 0.607186 -0.534977
H85   H     H_    0.732961 0.094293 0.653442 0.252663
C102  C     C_3   0.650337 0.196564 0.619045 -0.334016
H86   H     H_    0.671052 0.273930 0.650871 0.158698
H87   H     H_    0.613103 0.148309 0.647624 0.149726
H88   H     H_    0.625120 0.232497 0.570021 0.157194
N7    N     N_2   0.794261 0.616401 0.392813 -0.534977
H89   H     H_    0.767039 0.594293 0.346558 0.252664
C103  C     C_3   0.849663 0.696564 0.380955 -0.334016
H90   H     H_    0.828948 0.773929 0.349128 0.158699
H91   H     H_    0.886897 0.648308 0.352376 0.149726
H92   H     H_    0.874880 0.732497 0.429978 0.157193
N8    N     N_2   0.205739 0.616400 0.607186 -0.534976
H93   H     H_    0.232961 0.594292 0.653442 0.252663
C104  C     C_3   0.150337 0.696564 0.619045 -0.334016
H94   H     H_    0.171052 0.773929 0.650871 0.158698
H95   H     H_    0.113103 0.648309 0.647624 0.149726
H96   H     H_    0.125120 0.732497 0.570021 0.157193

loop_
_geom_bond_atom_site_label_1
_geom_bond_atom_site_label_2
_ccdc_geom_bond_type
C58   C62   S    
C103  H92   S    
C39   C51   S    
N6    C102  S    
C67   C83   S    
C100  H78   S    
C10   H52   S    
C9    H9    S    
C14   C18   S    
C43   H35   S    
C35   C36   S    
C8    C96   S    
C28   N6    S    
Cr12  O36   S    
C87   C92   T    
C83   O15   A    
Cr7   O19   S    
C9    C25   S    
C103  H90   S    
C70   O2    A    
C79   O11   A    
C36   H20   S    
C16   H56   S    
C15   C19   S    
C40   H28   S    
C11   C19   S    
N5    H81   S    
C27   N5    S    
Cr3   O43   S    
C48   O36   A    
C82   O14   A    
C11   H49   S    
Cr8   O32   S    
C13   C29   S    
C16   C20   S    
C10   C18   S    
C72   O40   A    
Cr5   O17   S    
C74   O46   A    
Cr6   O26   S    
N7    H89   S    
Cr2   O2    S    
Cr5   O25   S    
C44   H31   S    
C101  H83   S    
Cr7   O7    S    
Cr11  O39   S    
C9    H51   S    
Cr9   O13   S    
N4    H77   S    
C6    C22   S    
N3    C99   S    
Cr3   O23   S    
N3    H73   S    
Cr9   O37   S    
C49   C78   S    
Cr2   O22   S    
C3    C18   S    
C46   O34   A    
C102  H86   S    
C95   H3    S    
Cr1   O21   S    
C37   C42   S    
C12   H50   S    
C51   C80   S    
Cr10  O10   S    
C21   C25   S    
C59   C67   T    
C25   N7    S    
C82   O42   A    
C55   C74   S    
C93   H41   S    
C58   C66   T    
C40   C43   S    
C81   O41   A    
C99   H74   S    
C71   O3    A    
C6    C94   S    
C55   C63   T    
C39   H40   S    
Cr4   O4    S    
C77   O9    A    
C56   C64   T    
C78   O6    A    
C73   O49   A    
C11   C27   S    
C37   H38   S    
C14   H58   S    
C52   C79   S    
C98   H70   S    
Cr11  O35   S    
C36   C52   S    
Cr2   O18   S    
Cr5   O29   S    
C46   C85   S    
Cr7   O51   S    
C5    C93   S    
C44   C52   S    
Cr1   O17   S    
C32   H64   S    
C20   C96   S    
C75   O51   A    
C12   H12   S    
C104  H94   S    
C42   H29   S    
Cr8   O28   S    
Cr6   O6    S    
C15   H59   S    
Cr4   O20   S    
C69   O1    A    
C14   C30   S    
C31   H7    S    
C22   C70   S    
Cr12  O40   S    
N1    H65   S    
C23   C27   S    
Cr4   O24   S    
C24   C72   S    
N1    C97   S    
C85   C90   T    
C34   C50   S    
C96   H44   S    
Cr1   O1    S    
C36   H24   S    
Cr12  O12   S    
C47   O31   A    
C68   C84   S    
C7    N3    S    
Cr6   O18   S    
Cr10  O14   S    
C38   C41   S    
C101  H82   S    
C11   H11   S    
C57   C65   T    
C76   O52   A    
C81   O13   A    
C104  H95   S    
C27   H15   S    
C101  H84   S    
C39   H27   S    
C54   C62   T    
C8    N4    S    
N4    C100  S    
C40   C52   S    
C21   C29   S    
C15   C31   S    
C94   H2    S    
C3    O23   A    
C21   C69   S    
C78   O10   A    
C5    C21   S    
C23   C31   S    
C14   H54   S    
C1    O21   A    
C24   C32   S    
C38   H37   S    
C42   H34   S    
C10   H10   S    
C37   H25   S    
Cr9   O17   S    
C66   C82   S    
C77   O5    A    
C13   H57   S    
C97   H66   S    
C88   C91   T    
C75   O47   A    
C34   H18   S    
C12   C20   S    
C33   H17   S    
C33   C34   S    
C41   H30   S    
C48   C87   S    
C7    H47   S    
C43   H32   S    
C99   H75   S    
Cr7   O27   S    
C72   O4    A    
C32   H8    S    
C3    O27   A    
Cr9   O33   S    
C98   H71   S    
C34   H22   S    
C37   C49   S    
C6    H46   S    
Cr12  O20   S    
C42   C50   S    
C30   H62   S    
C4    C17   S    
Cr11  O11   S    
C9    C17   S    
C97   H67   S    
C12   C28   S    
N5    C101  S    
C71   O39   A    
C25   H13   S    
C100  H79   S    
C35   C51   S    
C18   C94   S    
Cr1   O45   S    
C84   O16   A    
C53   C76   S    
C17   C93   S    
Cr10  O18   S    
C53   C61   T    
N6    H85   S    
C50   C77   S    
C35   H23   S    
C91   C92   S    
C19   C95   S    
Cr6   O50   S    
N7    C103  S    
C26   N8    S    
C30   H6    S    
Cr5   O49   S    
C13   H53   S    
C4    O24   A    
C29   H5    S    
C33   H21   S    
Cr4   O44   S    
C1    C20   S    
C45   O33   A    
C56   C73   S    
C22   C30   S    
C40   H39   S    
C2    C19   S    
C2    O26   A    
Cr12  O16   S    
C1    O25   A    
C24   C28   S    
C80   O12   A    
Cr3   O47   S    
C86   C89   T    
C99   H76   S    
Cr10  O34   S    
C83   O43   A    
N8    H93   S    
C28   H16   S    
C57   C61   S    
C39   C44   S    
C38   C50   S    
C13   C17   S    
C16   C32   S    
C41   C49   S    
C7    C95   S    
C41   H33   S    
C74   O50   A    
C59   C63   S    
C96   H4    S    
C47   O35   A    
C60   C64   S    
C102  H88   S    
Cr9   O9    S    
C48   O32   A    
C35   H19   S    
Cr2   O46   S    
C45   C86   S    
Cr6   O30   S    
Cr10  O38   S    
C80   O8    A    
C103  H91   S    
C47   C88   S    
Cr3   O19   S    
N8    C104  S    
C10   C26   S    
Cr8   O8    S    
C31   H63   S    
C16   H60   S    
C7    C23   S    
C43   C51   S    
C8    C24   S    
C5    N1    S    
C29   H61   S    
C69   O37   A    
C79   O7    A    
C38   H26   S    
Cr2   O42   S    
C8    H48   S    
C98   H72   S    
Cr7   O31   S    
C104  H96   S    
Cr3   O3    S    
Cr5   O5    S    
C60   C68   T    
N2    C98   S    
C2    O22   A    
C54   C75   S    
C5    H45   S    
C94   H42   S    
C4    O28   A    
C97   H68   S    
C95   H43   S    
Cr4   O48   S    
C23   C71   S    
C45   O29   A    
C22   C26   S    
C100  H80   S    
Cr11  O19   S    
N2    H69   S    
C73   O45   A    
C65   C81   S    
C76   O48   A    
Cr11  O15   S    
Cr1   O41   S    
C44   H36   S    
C26   H14   S    
C70   O38   A    
C102  H87   S    
C89   C90   S    
C6    N2    S    
C33   C49   S    
Cr8   O52   S    
C15   H55   S    
C84   O44   A    
C93   H1    S    
C46   O30   A    
Cr8   O20   S    
