data_mof_unit_59364.cif
_audit_creation_date              2012-12-10T17:24:47-0500
_audit_creation_method            fapswitch 2.2
_symmetry_space_group_name_H-M    P1
_symmetry_Int_Tables_number       1
_space_group_crystal_system       triclinic
_cell_length_a                    23.546684
_cell_length_b                    10.797702
_cell_length_c                    9.58328
_cell_angle_alpha                 90.138119
_cell_angle_beta                  90.580851
_cell_angle_gamma                 94.094344
_cell_volume                      2430.19431565

loop_
_atom_site_label
_atom_site_type_symbol
_atom_type_description
_atom_site_fract_x
_atom_site_fract_y
_atom_site_fract_z
_atom_type_partial_charge
C1    C     C_R   0.503418 0.262617 0.500206 0.785721
C2    C     C_R   0.964277 0.276288 0.437754 -0.168553
C3    C     C_R   0.023499 0.277372 0.436305 0.307496
C4    C     C_R   0.057257 0.385652 0.479202 -0.102805
C5    C     C_R   0.029753 0.490848 0.526108 -0.088239
C6    C     C_R   0.062100 0.599309 0.573464 -0.085724
C7    C     C_R   0.033162 0.703313 0.618574 0.303035
C8    C     C_R   0.973885 0.698453 0.614816 -0.171920
C9    C     C_R   0.117288 0.394054 0.476320 0.677552
C10   C     C_R   0.121951 0.599167 0.572231 0.587608
C11   C     C_R   0.236089 0.534011 0.387886 0.415853
C12   C     C_R   0.390865 0.501585 0.499184 0.893281
C13   C     C_R   0.295658 0.533019 0.379227 0.173565
C14   C     C_R   0.328006 0.505106 0.499538 -0.216531
C15   C     C_R   0.299585 0.479613 0.625808 -0.325948
C16   C     C_R   0.240312 0.481989 0.634962 0.475122
C17   C     C_R   0.208667 0.505171 0.514625 0.137984
C18   C     C_R   0.761828 0.482615 0.382085 0.551901
C19   C     C_R   0.701982 0.484910 0.379057 -0.288105
C20   C     C_R   0.671355 0.492333 0.503625 -0.076627
C21   C     C_R   0.700694 0.492766 0.631871 -0.226484
C22   C     C_R   0.759523 0.488074 0.635871 -0.173107
C23   C     C_R   0.493652 0.736114 0.501307 0.869003
C24   C     C_R   0.790201 0.482883 0.512001 0.268500
C25   C     C_R   0.542678 0.116453 0.744616 -0.251914
C26   C     C_R   0.541573 0.054528 0.873528 0.497930
C27   C     C_R   0.508600 0.942725 0.886069 -0.228428
C28   C     C_R   0.481765 0.886878 0.768938 0.218182
C29   C     C_R   0.492844 0.937493 0.634344 0.024913
C30   C     C_R   0.513766 0.062422 0.626953 0.004777
C31   C     C_R   0.505362 0.127657 0.501260 -0.067219
C32   C     C_R   0.490254 0.061796 0.378709 -0.169157
C33   C     C_R   0.483857 0.933608 0.380284 -0.128571
C34   C     C_R   0.608928 0.497345 0.500807 0.853007
C35   C     C_R   0.486497 0.869691 0.506784 -0.076405
C36   C     C_R   0.594770 0.635061 0.136389 0.286152
C37   C     C_R   0.642018 0.668608 0.053935 -0.221199
C38   C     C_R   0.635558 0.679617 0.912615 -0.264833
C39   C     C_R   0.584137 0.642211 0.851637 -0.123240
C40   C     C_R   0.542171 0.569952 0.924653 0.175981
C41   C     C_R   0.544137 0.569185 0.074863 0.125551
C42   C     C_R   0.458833 0.435943 0.072768 -0.027695
C43   C     C_R   0.459173 0.435008 0.924973 -0.020639
C44   C     C_R   0.882088 0.588401 0.563078 0.564666
C45   C     C_R   0.877235 0.379778 0.479200 0.631058
C46   C     C_R   0.936914 0.380424 0.480445 -0.077265
C47   C     C_R   0.969534 0.487743 0.525180 -0.009367
C48   C     C_R   0.941774 0.592188 0.568373 -0.062395
Cu1   Cu    Cu3+1 0.500000 0.499990 0.640660 0.963846
Cu2   Cu    Cu3+1 0.500000 0.500010 0.359340 0.991181
H1    H     H_    0.939556 0.192853 0.404176 0.215640
H2    H     H_    0.679328 0.479417 0.280275 0.164762
H3    H     H_    0.678240 0.496088 0.729588 0.176488
H4    H     H_    0.781522 0.488843 0.735712 0.165063
H5    H     H_    0.484112 0.109054 0.280812 0.160985
H6    H     H_    0.568135 0.203405 0.735522 0.172504
H7    H     H_    0.502643 0.900853 0.987965 0.188236
H8    H     H_    0.476968 0.884521 0.282133 0.184213
H9    H     H_    0.425452 0.382181 0.126998 0.161931
H10   H     H_    0.681397 0.709416 0.099271 0.189234
H11   H     H_    0.669329 0.724957 0.851213 0.190867
H12   H     H_    0.579714 0.670500 0.746306 0.215338
H13   H     H_    0.425953 0.380680 0.868847 0.142315
H14   H     H_    0.952893 0.779264 0.648598 0.217395
H15   H     H_    0.323385 0.454564 0.717426 0.198641
N1    N     N_R   0.851162 0.483393 0.518498 -0.454087
N2    N     N_R   0.147639 0.499334 0.521197 -0.435713
N3    N     N_R   0.500540 0.501210 0.147910 -0.194379
N4    N     N_R   0.500560 0.501290 0.852040 -0.188933
O1    O     O_R   0.500000 0.319640 0.618810 -0.591466
O2    O     O_2   0.845478 0.276550 0.439195 -0.495319
O3    O     O_2   0.145789 0.298899 0.429035 -0.441763
O4    O     O_2   0.154898 0.697714 0.619733 -0.493816
O5    O     O_R   0.500000 0.319660 0.381240 -0.601394
O6    O     O_R   0.417880 0.499950 0.618810 -0.564855
O7    O     O_R   0.417880 0.499980 0.381240 -0.543093
O8    O     O_R   0.500000 0.680340 0.618760 -0.580298
O9    O     O_R   0.500000 0.680360 0.381190 -0.535278
O10   O     O_R   0.582120 0.500020 0.618760 -0.618921
O11   O     O_R   0.582120 0.500050 0.381190 -0.568594
O12   O     O_2   0.855122 0.689279 0.600870 -0.524095
O13   O     O_3   0.573289 0.099603 0.987491 -0.552750
C49   C     C_3   0.553281 0.213032 0.031729 -0.265012
H16   H     H_    0.506240 0.205556 0.044944 0.136638
H17   H     H_    0.566414 0.289331 0.958777 0.154421
H18   H     H_    0.572683 0.237618 0.135004 0.202419
Br1   Br    Br    0.418447 0.768425 0.804457 -0.471617
Br2   Br    Br    0.052812 0.124392 0.375209 -0.330292
Br3   Br    Br    0.604987 0.747889 0.292315 -0.507229
Br4   Br    Br    0.069382 0.858418 0.684744 -0.332754
O14   O     O_3   0.203983 0.552049 0.268889 -0.556122
C50   C     C_3   0.195922 0.679745 0.255805 -0.199924
H19   H     H_    0.166934 0.710882 0.337291 0.186927
H20   H     H_    0.236888 0.737987 0.259305 0.190062
H21   H     H_    0.175549 0.695229 0.153037 0.195717
Br5   Br    Br    0.329373 0.571919 0.200361 -0.491174
O15   O     O_3   0.211571 0.450011 0.756778 -0.561040
C51   C     C_3   0.231315 0.529010 0.867213 -0.129928
H22   H     H_    0.235787 0.628417 0.835368 0.182889
H23   H     H_    0.272127 0.499720 0.910599 0.188253
H24   H     H_    0.199685 0.521093 0.952290 0.219787
O16   O     O_3   0.793674 0.470964 0.262012 -0.554362
C52   C     C_3   0.778880 0.556097 0.158717 -0.282936
H25   H     H_    0.772460 0.649526 0.202971 0.167072
H26   H     H_    0.740752 0.518844 0.099008 0.160896
H27   H     H_    0.814409 0.567952 0.083689 0.206959

loop_
_geom_bond_atom_site_label_1
_geom_bond_atom_site_label_2
_ccdc_geom_bond_type
C36   Br3   S    
C33   H8    S    
C45   O2    S    
C44   N1    A    
C19   C20   A    
C9    O3    S    
C9    N2    A    
O15   C51   S    
C43   H13   S    
C7    C8    A    
C22   H4    S    
C10   N2    A    
C2    C46   A    
C5    C47   A    
C26   C27   A    
C37   C38   A    
C49   H16   S    
C18   C24   A    
C1    O5    A    
C28   C29   A    
Cu2   O5    S    
C30   C31   A    
C10   O4    S    
C16   O15   S    
C15   C16   A    
C15   H15   S    
C1    C31   S    
C18   C19   A    
C18   O16   S    
Cu1   Cu2   S    
C52   H25   S    
C34   O11   A    
C19   H2    S    
C11   C17   A    
C47   C48   A    
C16   C17   A    
C25   H6    S    
Cu1   O6    S    
C32   H5    S    
C24   N1    S    
C38   H11   S    
C20   C34   S    
C26   O13   S    
Cu1   N4    S    
C21   C22   A    
C42   N3    A    
C36   C41   A    
Cu2   O9    S    
C41   N3    A    
C38   C39   A    
C17   N2    S    
C40   N4    A    
C13   Br5   S    
C44   O12   S    
C27   H7    S    
O14   C50   S    
C25   C26   A    
C45   C46   A    
C7    Br4   S    
C50   H21   S    
Cu1   O10   S    
C8    C48   A    
C29   C30   A    
Cu2   O7    S    
C34   O10   A    
C31   C32   A    
C28   Br1   S    
C50   H20   S    
C52   H26   S    
C23   O8    A    
C8    H14   S    
C40   C41   A    
C49   H17   S    
C12   C14   S    
C51   H22   S    
C51   H23   S    
Cu1   O1    S    
C12   O7    A    
C22   C24   A    
C42   C43   A    
C3    C4    A    
C39   C40   A    
C25   C30   A    
C39   H12   S    
C46   C47   A    
C36   C37   A    
C3    Br2   S    
C4    C5    A    
Cu2   O11   S    
C42   H9    S    
C6    C10   A    
C6    C7    A    
C51   H24   S    
C29   C35   A    
C23   C35   S    
C1    O1    A    
C32   C33   A    
C2    C3    A    
C21   H3    S    
C11   C13   A    
C5    C6    A    
C50   H19   S    
C33   C35   A    
Cu1   O8    S    
C52   H27   S    
C23   O9    A    
O16   C52   S    
C37   H10   S    
C2    H1    S    
C11   O14   S    
C49   H18   S    
C20   C21   A    
C43   N4    A    
O13   C49   S    
C12   O6    A    
C45   N1    A    
C14   C15   A    
C4    C9    A    
C13   C14   A    
Cu2   N3    S    
C44   C48   A    
C27   C28   A    
