data_mof_unit_10957.cif
_audit_creation_date              2012-12-10T18:09:11-0500
_audit_creation_method            fapswitch 2.2
_symmetry_space_group_name_H-M    P1
_symmetry_Int_Tables_number       1
_space_group_crystal_system       triclinic
_cell_length_a                    12.587635
_cell_length_b                    13.20889
_cell_length_c                    13.719421
_cell_angle_alpha                 89.635894
_cell_angle_beta                  96.238498
_cell_angle_gamma                 96.783978
_cell_volume                      2251.67678739

loop_
_atom_site_label
_atom_site_type_symbol
_atom_type_description
_atom_site_fract_x
_atom_site_fract_y
_atom_site_fract_z
_atom_type_partial_charge
C1    C     C_R   0.559431 0.691494 0.511495 0.912143
C2    C     C_R   0.484277 0.038329 0.437077 0.025338
C3    C     C_R   0.383895 0.995463 0.390230 -0.038499
C4    C     C_R   0.516308 0.495376 0.318421 0.939829
C5    C     C_R   0.370471 0.890306 0.369041 0.065813
C6    C     C_R   0.460969 0.837198 0.381649 -0.063185
C7    C     C_R   0.505362 0.143363 0.442439 0.112502
C8    C     C_R   0.313078 0.155925 0.414347 0.149929
C9    C     C_R   0.597186 0.801302 0.518350 -0.106503
C10   C     C_R   0.898103 0.458236 0.695619 -0.084917
C11   C     C_R   0.191728 0.574779 0.353989 0.273409
C12   C     C_1   0.523793 0.485841 0.217905 -0.096448
C13   C     C_R   0.091189 0.610389 0.328031 0.036702
C14   C     C_R   0.020950 0.613991 0.399096 -0.109289
C15   C     C_R   0.042191 0.561191 0.487211 -0.027263
C16   C     C_R   0.442786 0.308725 0.481530 0.884693
C17   C     C_R   0.149739 0.538448 0.515840 0.001507
C18   C     C_R   0.957748 0.517111 0.540692 0.041089
C19   C     C_R   0.983579 0.489837 0.639395 -0.127136
C20   C     C_R   0.093252 0.484625 0.674146 -0.060639
C21   C     C_R   0.167598 0.483286 0.603734 0.256782
C22   C     C_R   0.849217 0.495522 0.498176 -0.011719
C23   C     C_R   0.300846 0.058916 0.367872 -0.044006
C24   C     C_R   0.799164 0.417135 0.644628 0.078328
C25   C     C_R   0.483976 0.505132 0.681528 0.878604
C26   C     C_1   0.477093 0.515286 0.781979 -0.077503
C27   C     C_2   0.470940 0.530304 0.970004 -0.000910
C28   C     C_2   0.528883 0.469629 0.029698 -0.056423
C29   C     C_1   0.528100 0.477345 0.132436 -0.033785
C30   C     C_1   0.472715 0.523464 0.867415 0.013733
C31   C     C_2   0.595097 0.392211 0.996835 0.456915
C32   C     C_2   0.474302 0.758340 0.308797 0.445086
C33   C     C_2   0.726499 0.338776 0.690798 0.561675
C34   C     C_R   0.418175 0.201466 0.447916 -0.200994
C35   C     C_2   0.128208 0.463701 0.778076 0.359627
C36   C     C_2   0.902358 0.492693 0.799705 0.413963
C37   C     C_3   0.219033 0.447796 0.237862 -0.660068
C38   C     C_2   0.930359 0.677362 0.381523 0.370643
C39   C     C_3   0.077765 0.727828 0.189727 -0.772591
C40   C     C_3   0.247114 0.329329 0.678581 -0.716396
C41   C     C_2   0.404263 0.607375 0.002577 0.441232
C42   C     C_3   0.147879 0.153266 0.489861 -0.715592
C43   C     C_3   0.212890 0.829717 0.447229 -0.714849
C44   C     C_2   0.209917 0.028395 0.290083 0.420357
C45   C     C_R   0.676985 0.838676 0.595257 0.102351
C46   C     C_3   0.615447 0.224390 0.322133 -0.695724
C47   C     C_3   0.827398 0.746546 0.659745 -0.643529
C48   C     C_2   0.784427 0.986611 0.689986 0.419744
C49   C     C_R   0.702351 0.944659 0.609675 0.003172
C50   C     C_R   0.641828 0.011068 0.553986 -0.186147
C51   C     C_R   0.559285 0.974752 0.480452 0.044558
C52   C     C_R   0.542852 0.870339 0.457332 0.036101
H1    H     H_    0.824063 0.515191 0.423565 0.147900
H2    H     H_    0.231339 0.391746 0.297245 0.226777
H3    H     H_    0.270529 0.433167 0.179908 0.243875
H4    H     H_    0.897892 0.695049 0.307821 0.104844
H5    H     H_    0.976575 0.594090 0.206732 0.227164
H6    H     H_    0.031995 0.733926 0.116433 0.250500
H7    H     H_    0.164231 0.744449 0.179963 0.238597
H8    H     H_    0.054269 0.785532 0.239256 0.249287
H9    H     H_    0.197359 0.356546 0.533448 0.249362
H10   H     H_    0.298283 0.272537 0.656245 0.224840
H11   H     H_    0.171369 0.287561 0.699926 0.218249
H12   H     H_    0.653251 0.090392 0.575449 0.178732
H13   H     H_    0.293791 0.372000 0.741362 0.269151
H14   H     H_    0.361083 0.651394 0.947741 0.098489
H15   H     H_    0.184884 0.234250 0.364215 0.262898
H16   H     H_    0.109071 0.080286 0.455889 0.273690
H17   H     H_    0.083679 0.201253 0.501724 0.231914
H18   H     H_    0.190967 0.136727 0.562088 0.230581
H19   H     H_    0.263117 0.764436 0.326799 0.214382
H20   H     H_    0.218776 0.905531 0.483164 0.241602
H21   H     H_    0.248983 0.775577 0.499695 0.245700
H22   H     H_    0.126296 0.804003 0.428876 0.251712
H23   H     H_    0.642470 0.351678 0.051616 0.065122
H24   H     H_    0.213643 0.964926 0.241440 0.097732
H25   H     H_    0.660765 0.226340 0.475034 0.243200
H26   H     H_    0.700044 0.253140 0.312093 0.230890
H27   H     H_    0.564801 0.287164 0.307856 0.217565
H28   H     H_    0.587164 0.161799 0.268429 0.239913
H29   H     H_    0.667107 0.712180 0.689627 0.228595
H30   H     H_    0.823623 0.672433 0.621329 0.283055
H31   H     H_    0.869249 0.739424 0.734501 0.208601
H32   H     H_    0.875032 0.806614 0.620245 0.258632
H33   H     H_    0.822523 0.936501 0.742138 0.098451
H34   H     H_    0.407291 0.728272 0.256938 0.091602
H35   H     H_    0.645324 0.316766 0.658688 0.083294
H36   H     H_    0.082037 0.406639 0.818601 0.087019
H37   H     H_    0.970832 0.542842 0.832934 0.062077
H38   H     H_    0.252438 0.603568 0.220916 0.254122
H39   H     H_    0.133518 0.437605 0.205707 0.227201
N1    N     N_R   0.773270 0.445590 0.549770 -0.192769
N2    N     N_R   0.227520 0.553880 0.450750 -0.144553
N3    N     N_2   0.249117 0.550317 0.275905 -0.254870
N4    N     N_2   0.054656 0.625772 0.227195 -0.314124
N5    N     N_2   0.224420 0.396552 0.597012 -0.245355
N6    N     N_2   0.222050 0.206518 0.427655 -0.295408
N7    N     N_2   0.266078 0.834813 0.358401 -0.338479
N8    N     N_2   0.609637 0.186899 0.420841 -0.288513
N9    N     N_2   0.719693 0.771461 0.667374 -0.341876
O1    O     O_R   0.631100 0.627590 0.523760 -0.574331
O2    O     O_2   0.562497 0.730905 0.301896 -0.566075
O3    O     O_2   0.759120 0.292297 0.763037 -0.483026
O4    O     O_2   0.209586 0.511092 0.819406 -0.597829
O5    O     O_2   0.826466 0.472691 0.847650 -0.502330
O6    O     O_2   0.893554 0.714227 0.449957 -0.570191
O7    O     O_2   0.396250 0.623485 0.088722 -0.604750
O8    O     O_2   0.132379 0.075870 0.275162 -0.583687
O9    O     O_2   0.811192 0.078305 0.698805 -0.548369
O10   O     O_R   0.455900 0.662370 0.491970 -0.628952
O11   O     O_R   0.600200 0.480080 0.377830 -0.622779
O12   O     O_R   0.425000 0.514870 0.346040 -0.582807
O13   O     O_R   0.544100 0.337630 0.508030 -0.655330
O14   O     O_R   0.368900 0.372410 0.476240 -0.600044
O15   O     O_R   0.575000 0.485130 0.653960 -0.631510
O16   O     O_R   0.399800 0.519920 0.622170 -0.579392
O17   O     O_2   0.597416 0.371432 0.910604 -0.515118
Zn1   Zn    Zn3+2 0.616980 0.476780 0.521230 0.944407
Zn2   Zn    Zn3+2 0.383020 0.523220 0.478770 0.959036

loop_
_geom_bond_atom_site_label_1
_geom_bond_atom_site_label_2
_ccdc_geom_bond_type
C36   H37   S    
C43   H21   S    
C15   C18   A    
C6    C32   S    
C46   N8    S    
C9    C45   A    
C43   H20   S    
C12   C29   T    
C50   H12   S    
C3    C23   A    
C2    C7    A    
C43   N7    S    
C16   O13   A    
H9    N5    S    
C40   H11   S    
C7    N8    S    
C13   N4    S    
O11   Zn1   S    
O1    Zn1   S    
C28   C29   S    
C25   O15   A    
C46   H27   S    
C42   H18   S    
C8    C23   A    
C40   H10   S    
C18   C19   A    
C47   H30   S    
C44   H24   S    
N1    Zn1   S    
C31   O17   D    
C16   C34   S    
C20   C35   S    
C19   C20   A    
C47   H31   S    
C4    C12   S    
O14   Zn2   S    
C11   N2    A    
C43   H22   S    
C48   O9    D    
C4    O12   A    
C32   H34   S    
C33   O3    D    
C13   C14   A    
C27   C30   S    
C42   H16   S    
C9    C52   A    
C40   N5    S    
C24   N1    A    
H38   N3    S    
C22   H1    S    
C44   O8    D    
H19   N7    S    
C37   H39   S    
C51   C52   A    
C1    C9    S    
C35   O4    D    
C42   N6    S    
C46   H26   S    
C10   C24   A    
C25   C26   S    
C39   H6    S    
C42   H17   S    
C17   C21   A    
C47   N9    S    
C38   O6    D    
C8    N6    S    
C1    O10   A    
C14   C38   S    
C35   H36   S    
C27   C41   S    
C31   H23   S    
C14   C15   A    
C45   C49   A    
C10   C19   A    
O15   Zn1   S    
C39   H7    S    
C50   C51   A    
C8    C34   A    
C47   H32   S    
C5    N7    S    
C39   N4    S    
C37   H2    S    
C11   N3    S    
C48   C49   S    
H29   N9    S    
C4    O11   A    
C26   C30   T    
C40   H13   S    
C7    C34   A    
C32   O2    D    
C25   O16   A    
C17   N2    A    
C1    O1    A    
C15   C17   A    
C41   O7    D    
C36   O5    D    
C18   C22   A    
C28   C31   S    
C3    C5    A    
C45   N9    S    
C16   O14   A    
O10   Zn2   S    
O12   Zn2   S    
C41   H14   S    
C21   N5    S    
C24   C33   S    
O16   Zn2   S    
C2    C3    A    
C33   H35   S    
C46   H28   S    
C11   C13   A    
C5    C6    A    
C39   H8    S    
C37   N3    S    
H25   N8    S    
C2    C51   A    
H15   N6    S    
O13   Zn1   S    
C37   H3    S    
C38   H4    S    
C20   C21   A    
C49   C50   A    
H5    N4    S    
C27   C28   D    
C22   N1    A    
C48   H33   S    
C10   C36   S    
N2    Zn2   S    
C6    C52   A    
C23   C44   S    
