data_mof_unit_32174.cif
_audit_creation_date              2012-12-10T19:14:26-0500
_audit_creation_method            fapswitch 2.2
_symmetry_space_group_name_H-M    P1
_symmetry_Int_Tables_number       1
_space_group_crystal_system       triclinic
_cell_length_a                    10.765023
_cell_length_b                    9.903697
_cell_length_c                    19.239243
_cell_angle_alpha                 88.268261
_cell_angle_beta                  85.18025
_cell_angle_gamma                 91.333892
_cell_volume                      2042.29055393

loop_
_atom_site_label
_atom_site_type_symbol
_atom_type_description
_atom_site_fract_x
_atom_site_fract_y
_atom_site_fract_z
_atom_type_partial_charge
C1    C     C_R   0.257961 0.497869 0.509046 0.832652
C2    C     C_3   0.056671 0.356810 0.538519 0.038760
C3    C     C_3   0.917596 0.604892 0.551382 -0.446108
C4    C     C_3   0.917503 0.358264 0.525873 -0.430566
C5    C     C_3   0.094117 0.515035 0.432670 -0.484969
C6    C     C_3   0.120011 0.495267 0.510907 0.089721
C7    C     C_3   0.879991 0.500401 0.497658 0.100141
C8    C     C_R   0.503167 0.502115 0.365721 0.882491
C9    C     C_3   0.952934 0.530511 0.423611 0.404600
C10   C     C_3   0.373445 0.075716 0.519023 0.080387
C11   C     C_3   0.374566 0.913877 0.522028 0.094565
C12   C     C_R   0.553679 0.522674 0.069268 0.294644
C13   C     C_3   0.539984 0.087124 0.427611 0.111022
C14   C     C_3   0.535010 0.924739 0.427109 0.086397
C15   C     C_3   0.585794 0.079263 0.547658 -0.238488
C16   C     C_3   0.590460 0.919951 0.544930 -0.248804
C17   C     C_R   0.742701 0.501071 0.496441 0.844439
C18   C     C_R   0.506284 0.498824 0.634166 0.862854
C19   C     C_R   0.517404 0.632847 0.253551 -0.203530
C20   C     C_R   0.543195 0.390315 0.253293 -0.223946
C21   C     C_R   0.536147 0.640509 0.180988 0.173435
C22   C     C_R   0.564336 0.395179 0.180975 0.186755
C23   C     C_R   0.606886 0.605757 0.809343 -0.178909
C24   C     C_R   0.557482 0.520563 0.144457 0.067130
C25   C     C_R   0.518923 0.508102 0.289702 -0.126681
C26   C     C_R   0.543508 0.520446 0.930004 0.304669
C27   C     C_3   0.932642 0.674651 0.394080 -0.911083
C28   C     C_3   0.912979 0.432150 0.367567 -0.912777
C29   C     C_3   0.313809 0.132094 0.586999 -0.852262
C30   C     C_3   0.324844 0.851223 0.594055 -0.812493
C31   C     C_3   0.667811 0.150206 0.396950 -0.826027
C32   C     C_3   0.655932 0.866840 0.391969 -0.849587
C33   C     C_3   0.528162 0.775826 0.143592 -0.904652
C34   C     C_R   0.468018 0.411265 0.827890 -0.153773
C35   C     C_3   0.594093 0.264547 0.145361 -0.908227
C36   C     C_3   0.686737 0.698107 0.693649 -0.961452
C37   C     C_3   0.385163 0.286097 0.732497 -0.927359
C38   C     C_3   0.094301 0.626783 0.629497 -0.927212
C39   C     C_3   0.068227 0.320025 0.616109 -0.914965
C40   C     C_R   0.602244 0.598896 0.737223 0.179459
C41   C     C_R   0.460535 0.401735 0.756449 0.145334
C42   C     C_R   0.524182 0.498621 0.709688 -0.067835
C43   C     C_R   0.539100 0.513548 0.854594 -0.012256
C44   C     C_3   0.060227 0.614584 0.553101 0.061797
H1    H     H_    0.310400 0.106485 0.478574 0.103101
H2    H     H_    0.131624 0.427231 0.403429 0.170459
H3    H     H_    0.499841 0.724422 0.281779 0.163534
H4    H     H_    0.547055 0.293905 0.281054 0.168696
H5    H     H_    0.952080 0.754806 0.430840 0.217936
H6    H     H_    0.994732 0.695931 0.345646 0.240818
H7    H     H_    0.837151 0.681937 0.378766 0.244325
H8    H     H_    0.811907 0.439422 0.360961 0.226639
H9    H     H_    0.964170 0.458382 0.316145 0.253036
H10   H     H_    0.934092 0.325609 0.379843 0.221299
H11   H     H_    0.353547 0.091283 0.633731 0.230251
H12   H     H_    0.306865 0.878429 0.485385 0.110094
H13   H     H_    0.326335 0.240362 0.589584 0.299152
H14   H     H_    0.213537 0.105339 0.591372 0.217807
H15   H     H_    0.380770 0.879184 0.637322 0.223247
H16   H     H_    0.227970 0.882271 0.606701 0.207349
H17   H     H_    0.323245 0.742076 0.594816 0.291388
H18   H     H_    0.472333 0.122781 0.390796 0.108963
H19   H     H_    0.461378 0.895066 0.392684 0.100353
H20   H     H_    0.671944 0.260236 0.396456 0.278592
H21   H     H_    0.746845 0.118058 0.426154 0.213860
H22   H     H_    0.686596 0.123193 0.341566 0.210112
H23   H     H_    0.681145 0.123790 0.537176 0.157213
H24   H     H_    0.657600 0.758464 0.398676 0.288206
H25   H     H_    0.663889 0.890741 0.334977 0.214340
H26   H     H_    0.741488 0.902709 0.414364 0.225049
H27   H     H_    0.453386 0.771942 0.107255 0.249538
H28   H     H_    0.506674 0.857839 0.180541 0.229347
H29   H     H_    0.618641 0.802336 0.113789 0.256211
H30   H     H_    0.624903 0.279483 0.089165 0.252853
H31   H     H_    0.671171 0.214666 0.170290 0.236053
H32   H     H_    0.510597 0.195873 0.150897 0.246045
H33   H     H_    0.664502 0.683526 0.830140 0.165553
H34   H     H_    0.686748 0.889819 0.528376 0.154687
H35   H     H_    0.418627 0.336887 0.863076 0.160852
H36   H     H_    0.783049 0.691835 0.710011 0.236472
H37   H     H_    0.693415 0.679266 0.637385 0.263060
H38   H     H_    0.654204 0.802220 0.702378 0.239027
H39   H     H_    0.335488 0.225819 0.776392 0.240418
H40   H     H_    0.313982 0.325497 0.699845 0.237012
H41   H     H_    0.449873 0.218077 0.703846 0.251150
H42   H     H_    0.093481 0.710663 0.525252 0.159939
H43   H     H_    0.100099 0.274177 0.507671 0.160455
H44   H     H_    0.028674 0.572975 0.668584 0.251235
H45   H     H_    0.558467 0.108606 0.601836 0.154339
H46   H     H_    0.188432 0.589374 0.637012 0.234057
H47   H     H_    0.087176 0.733160 0.644873 0.233159
H48   H     H_    0.996653 0.367498 0.651231 0.255208
H49   H     H_    0.049106 0.210440 0.625909 0.228374
H50   H     H_    0.160734 0.349153 0.631785 0.240143
H51   H     H_    0.871991 0.571226 0.603099 0.185609
H52   H     H_    0.857393 0.330345 0.574466 0.189449
H53   H     H_    0.574219 0.875574 0.598278 0.168848
H54   H     H_    0.881831 0.707192 0.540819 0.166832
H55   H     H_    0.897040 0.277008 0.489794 0.157383
H56   H     H_    0.149043 0.604202 0.408926 0.178504
N1    N     N_R   0.462160 0.451665 0.041627 -0.164952
N2    N     N_R   0.639491 0.594256 0.026651 -0.171156
N3    N     N_R   0.457321 0.450444 0.973121 -0.181522
N4    N     N_R   0.634436 0.593134 0.957871 -0.178983
N5    N     N_3   0.499750 0.138610 0.498490 -0.063151
N6    N     N_3   0.499750 0.861390 0.498490 -0.063324
O1    O     O_R   0.314910 0.616040 0.499990 -0.634880
O2    O     O_R   0.314910 0.383960 0.499990 -0.631336
O3    O     O_R   0.500100 0.616080 0.398110 -0.631588
O4    O     O_R   0.500100 0.383920 0.398110 -0.631796
O5    O     O_R   0.685320 0.616040 0.499960 -0.637031
O6    O     O_R   0.685320 0.383960 0.499960 -0.634286
O7    O     O_R   0.500130 0.616000 0.601840 -0.624952
O8    O     O_R   0.500130 0.384000 0.601840 -0.622746
Zn1   Zn    Zn3+2 0.500150 0.654960 0.499970 0.892131
Zn2   Zn    Zn3+2 0.500150 0.345040 0.499970 0.894654

loop_
_geom_bond_atom_site_label_1
_geom_bond_atom_site_label_2
_ccdc_geom_bond_type
C31   H22   S    
C35   H30   S    
C41   C42   A    
N5    Zn2   S    
C10   C29   S    
C18   O8    A    
C5    C9    S    
C22   C35   S    
C35   H31   S    
C37   H41   S    
C19   C21   A    
C3    C7    S    
C18   C42   S    
C5    C6    S    
C34   H35   S    
C12   N2    A    
C19   H3    S    
C16   H53   S    
C21   C33   S    
C20   C25   A    
C23   C40   A    
C23   C43   A    
C31   H21   S    
C1    O2    A    
C39   H49   S    
C33   H28   S    
C26   N4    A    
C4    H52   S    
C2    C39   S    
C13   H18   S    
C11   C30   S    
C36   H38   S    
C7    C17   S    
C30   H16   S    
C37   H40   S    
C27   H6    S    
C16   N6    S    
C32   H24   S    
C40   C42   A    
N1    N3    A    
C6    C44   S    
C13   C14   S    
C8    C25   S    
C2    C6    S    
C34   C41   A    
C11   N6    S    
C4    C7    S    
C44   H42   S    
C17   O5    A    
C18   O7    A    
C27   H7    S    
C26   C43   S    
C3    C44   S    
C35   H32   S    
C1    C6    S    
C36   C40   S    
C13   N5    S    
C36   H36   S    
C28   H10   S    
C32   H26   S    
C29   H11   S    
C38   H47   S    
C38   H44   S    
C2    C4    S    
C39   H50   S    
C38   C44   S    
C8    O4    A    
C26   N3    A    
C15   H45   S    
C5    H56   S    
C36   H37   S    
C15   H23   S    
C30   H15   S    
C10   H1    S    
C2    H43   S    
C23   H33   S    
N2    N4    A    
O1    Zn1   S    
C20   H4    S    
C1    O1    A    
C33   H29   S    
C29   H13   S    
C22   C24   A    
C21   C24   A    
C4    H55   S    
C20   C22   A    
C17   O6    A    
O4    Zn2   S    
C39   H48   S    
O6    Zn2   S    
C9    C27   S    
C7    C9    S    
C38   H46   S    
C31   H20   S    
C13   C31   S    
C34   C43   A    
C14   C32   S    
O8    Zn2   S    
C28   H9    S    
C32   H25   S    
C5    H2    S    
C12   C24   S    
N6    Zn1   S    
C15   N5    S    
C12   N1    A    
C8    O3    A    
C28   H8    S    
C3    H54   S    
O2    Zn2   S    
C14   H19   S    
C16   H34   S    
C37   C41   S    
C19   C25   A    
C10   C11   S    
O3    Zn1   S    
C33   H27   S    
C27   H5    S    
C14   N6    S    
C29   H14   S    
C3    H51   S    
C30   H17   S    
C37   H39   S    
C10   N5    S    
O5    Zn1   S    
C11   H12   S    
C15   C16   S    
C9    C28   S    
O7    Zn1   S    
