data_mof_unit_36985.cif
_audit_creation_date              2012-12-10T17:50:33-0500
_audit_creation_method            fapswitch 2.2
_symmetry_space_group_name_H-M    P1
_symmetry_Int_Tables_number       1
_space_group_crystal_system       triclinic
_cell_length_a                    15.697921
_cell_length_b                    10.748306
_cell_length_c                    9.937672
_cell_angle_alpha                 87.280813
_cell_angle_beta                  88.831779
_cell_angle_gamma                 92.799348
_cell_volume                      1672.42442061

loop_
_atom_site_label
_atom_site_type_symbol
_atom_type_description
_atom_site_fract_x
_atom_site_fract_y
_atom_site_fract_z
_atom_type_partial_charge
C1    C     C_R   0.505229 0.260166 0.504090 0.872402
C2    C     C_3   0.082823 0.501498 0.500778 0.149652
C3    C     C_3   0.974710 0.605440 0.551984 0.308343
C4    C     C_3   0.917071 0.502385 0.496020 0.097969
C5    C     C_3   0.033932 0.603101 0.426228 -0.228269
C6    C     C_3   0.975204 0.498567 0.371164 0.012075
C7    C     C_1   0.173678 0.500611 0.503159 -0.046801
C8    C     C_1   0.826159 0.502263 0.495607 -0.007963
C9    C     C_R   0.469832 0.091295 0.757579 0.278483
C10   C     C_R   0.407665 0.031022 0.843597 -0.191229
C11   C     C_R   0.362920 0.924312 0.803871 -0.221936
C12   C     C_R   0.338045 0.499637 0.501184 0.864918
C13   C     C_R   0.388557 0.868727 0.686823 -0.156209
C14   C     C_R   0.450919 0.929777 0.599344 0.045743
C15   C     C_R   0.479785 0.051452 0.624407 0.038826
C16   C     C_R   0.513331 0.126757 0.513153 -0.102836
C17   C     C_R   0.535568 0.073790 0.393222 -0.256068
C18   C     C_R   0.521973 0.947802 0.377153 -0.010487
C19   C     C_R   0.484486 0.873309 0.486313 -0.171117
C20   C     C_R   0.376874 0.350787 0.150188 -0.107518
C21   C     C_R   0.314065 0.282113 0.085079 -0.206634
C22   C     C_R   0.313464 0.284316 0.945690 -0.215904
C23   C     C_R   0.494542 0.739855 0.495980 0.877071
C24   C     C_R   0.376474 0.353663 0.870829 -0.099382
C25   C     C_R   0.437626 0.430428 0.933095 0.172495
C26   C     C_R   0.437720 0.429851 0.077576 0.106446
C27   C     C_R   0.564380 0.557133 0.064457 0.313965
C28   C     C_R   0.563120 0.558655 0.922132 -0.134850
C29   C     C_R   0.661900 0.500645 0.498815 0.933288
C30   C     C_3   0.966596 0.401370 0.570167 -0.230420
C31   C     C_3   0.025942 0.397092 0.443956 -0.184698
C32   C     C_1   0.249042 0.500035 0.503425 -0.187629
C33   C     C_1   0.750825 0.501572 0.496321 -0.121441
C34   C     C_3   0.025403 0.505410 0.627053 -0.194480
H1    H     H_    0.049146 0.311914 0.399256 0.147420
H2    H     H_    0.314753 0.877704 0.870452 0.153652
H3    H     H_    0.358453 0.779754 0.663467 0.153666
H4    H     H_    0.378077 0.334660 0.256673 0.198331
H5    H     H_    0.267678 0.222866 0.143233 0.149228
H6    H     H_    0.266885 0.226380 0.895382 0.156810
H7    H     H_    0.379187 0.338668 0.765512 0.198703
H8    H     H_    0.614474 0.606790 0.863329 0.177778
H9    H     H_    0.937116 0.319319 0.628865 0.165215
H10   H     H_    0.064190 0.686227 0.370479 0.148207
H11   H     H_    0.047960 0.508812 0.732038 0.151812
H12   H     H_    0.559890 0.132683 0.307860 0.182247
H13   H     H_    0.398574 0.060857 0.945129 0.183962
N1    N     N_R   0.499210 0.498800 0.142780 -0.148942
N2    N     N_R   0.499180 0.498720 0.857170 -0.131632
O1    O     O_R   0.500000 0.316780 0.614690 -0.597872
O2    O     O_R   0.499990 0.316750 0.385360 -0.644205
O3    O     O_R   0.376780 0.500000 0.614650 -0.645716
O4    O     O_R   0.376770 0.499980 0.385310 -0.639609
O5    O     O_R   0.500010 0.683250 0.614640 -0.619945
O6    O     O_R   0.500000 0.683220 0.385310 -0.596831
O7    O     O_R   0.623230 0.500020 0.614690 -0.602152
O8    O     O_R   0.623220 0.500000 0.385350 -0.561439
Zn1   Zn    Zn3+2 0.500010 0.500020 0.653130 0.962551
Zn2   Zn    Zn3+2 0.499990 0.499980 0.346870 0.977483
C35   C     C_R   0.537372 0.905134 0.238972 0.166328
C36   C     C_R   0.613673 0.942291 0.167775 -0.115986
C37   C     C_R   0.622959 0.920014 0.030968 -0.035829
C38   C     C_R   0.557294 0.857483 0.964855 -0.068637
C39   C     C_R   0.482131 0.817887 0.035366 -0.164718
C40   C     C_R   0.470884 0.845405 0.170110 -0.095173
H14   H     H_    0.665222 0.991018 0.217532 0.134135
H15   H     H_    0.681337 0.950170 0.976573 0.158862
H16   H     H_    0.564897 0.838664 0.859365 0.156610
H17   H     H_    0.432219 0.766208 0.985416 0.138989
H18   H     H_    0.410285 0.820268 0.220722 0.125158
Br1   Br    Br    0.663843 0.633601 0.139574 -0.494718
C41   C     C_R   0.943468 0.490482 0.229678 0.131201
C42   C     C_R   0.968060 0.582282 0.129208 -0.135111
C43   C     C_R   0.937599 0.573757 0.998515 -0.116040
C44   C     C_R   0.882330 0.473967 0.967159 -0.079009
C45   C     C_R   0.857521 0.382304 0.066580 -0.102366
C46   C     C_R   0.888100 0.390234 0.197299 -0.141143
H19   H     H_    0.010662 0.660438 0.151252 0.127111
H20   H     H_    0.956894 0.644649 0.921574 0.175350
H21   H     H_    0.858823 0.467681 0.865902 0.150284
H22   H     H_    0.814627 0.305069 0.042366 0.148806
H23   H     H_    0.868416 0.318586 0.273423 0.133228
Br2   Br    Br    0.935574 0.755368 0.628640 -0.562146
Br3   Br    Br    0.559740 0.184871 0.843003 -0.549712

loop_
_geom_bond_atom_site_label_1
_geom_bond_atom_site_label_2
_ccdc_geom_bond_type
C27   N1    A    
O6    Zn2   S    
C42   C43   A    
C2    C7    S    
C4    C8    S    
O4    Zn2   S    
C6    C41   S    
C41   C46   A    
C37   H15   S    
N1    Zn2   S    
C11   H2    S    
O5    Zn1   S    
C5    C6    S    
O8    Zn2   S    
C15   C16   A    
C29   C33   S    
C18   C19   A    
C36   H14   S    
C16   C17   A    
C42   H19   S    
C1    O1    A    
C13   H3    S    
C12   O4    A    
C26   N1    A    
C2    C34   S    
C6    C31   S    
C21   C22   A    
C12   C32   S    
C24   H7    S    
C12   O3    A    
C45   C46   A    
C43   C44   A    
C30   C34   S    
O1    Zn1   S    
C24   C25   A    
C4    C6    S    
C1    C16   S    
C3    C34   S    
C25   C26   A    
N2    Zn1   S    
C35   C36   A    
C19   C23   S    
C44   C45   A    
C37   C38   A    
C20   H4    S    
C28   N2    A    
C21   H5    S    
C22   H6    S    
C17   C18   A    
C34   H11   S    
C39   H17   S    
C17   H12   S    
C1    O2    A    
O3    Zn1   S    
C18   C35   S    
C5    H10   S    
C29   O8    A    
C35   C40   A    
C43   H20   S    
C3    Br2   S    
C31   H1    S    
C30   H9    S    
C2    C5    S    
O2    Zn2   S    
C3    C4    S    
C10   H13   S    
C27   Br1   S    
C23   O5    A    
C9    C10   A    
C38   H16   S    
C7    C32   T    
C14   C19   A    
C41   C42   A    
C3    C5    S    
C45   H22   S    
C23   O6    A    
C29   O7    A    
C39   C40   A    
C9    C15   A    
C11   C13   A    
C30   C31   S    
C20   C26   A    
C46   H23   S    
C28   H8    S    
O7    Zn1   S    
C22   C24   A    
C8    C33   T    
C36   C37   A    
C25   N2    A    
C10   C11   A    
C9    Br3   S    
C38   C39   A    
C44   H21   S    
C20   C21   A    
C27   C28   A    
C14   C15   A    
C2    C31   S    
C13   C14   A    
C4    C30   S    
C40   H18   S    
