data_mof_unit_35634.cif
_audit_creation_date              2012-10-26T21:21:09-0400
_audit_creation_method            fapswitch 2.2
_symmetry_space_group_name_H-M    P1
_symmetry_Int_Tables_number       1
_space_group_crystal_system       triclinic
_cell_length_a                    10.785908
_cell_length_b                    10.910294
_cell_length_c                    9.755111
_cell_angle_alpha                 89.315121
_cell_angle_beta                  89.96591
_cell_angle_gamma                 90.162915
_cell_volume                      1147.86948743

loop_
_atom_site_label
_atom_site_type_symbol
_atom_type_description
_atom_site_fract_x
_atom_site_fract_y
_atom_site_fract_z
_atom_type_partial_charge
C1    C     C_R   0.503560 0.265516 0.500862 0.537436
C2    C     C_2   0.517367 0.133719 0.504889 -0.157135
C3    C     C_2   0.434542 0.425403 0.927884 0.257993
C4    C     C_R   0.262707 0.501428 0.499716 0.532464
C5    C     C_2   0.416265 0.446265 0.078511 0.058029
C6    C     C_R   0.503527 0.734546 0.499104 0.558332
C7    C     C_R   0.736959 0.497471 0.500008 0.534957
C8    C     C_R   0.130552 0.285722 0.594131 -0.110293
C9    C     C_R   0.066904 0.183758 0.645797 -0.122514
C10   C     C_R   0.938056 0.183692 0.650749 -0.120548
C11   C     C_R   0.872139 0.285430 0.603569 -0.099130
C12   C     C_R   0.065872 0.391564 0.549441 0.014611
C13   C     C_R   0.934950 0.390328 0.552356 0.021225
C14   C     C_3   0.122991 0.711798 0.383997 -0.251500
C15   C     C_3   0.159997 0.800451 0.497687 -0.301151
C16   C     C_3   0.200298 0.924155 0.437540 -0.450342
C17   C     C_R   0.128412 0.497144 0.498325 0.013762
C18   C     C_R   0.061531 0.597397 0.442704 -0.029410
C19   C     C_R   0.932870 0.593013 0.443929 -0.138687
C20   C     C_R   0.870401 0.492673 0.499945 -0.006170
C21   C     C_2   0.543748 0.935272 0.390154 0.067164
C22   C     C_2   0.503171 0.867256 0.497754 -0.082526
C23   C     C_2   0.528106 0.069302 0.389533 -0.150099
Cu1   Cu    Cu3+1 0.500020 0.500020 0.638630 0.913085
Cu2   Cu    Cu3+1 0.499980 0.499980 0.361370 0.944780
H1    H     H_    0.525423 0.091358 0.605500 0.092533
H2    H     H_    0.527971 0.116142 0.290613 0.154890
H3    H     H_    0.272217 0.911582 0.357512 0.178138
H4    H     H_    0.119563 0.972158 0.391248 0.157155
H5    H     H_    0.239300 0.982168 0.519707 0.137201
H6    H     H_    0.080150 0.815419 0.567646 0.163285
H7    H     H_    0.237307 0.760737 0.558642 0.174715
H8    H     H_    0.204914 0.688284 0.320896 0.178134
H9    H     H_    0.057913 0.759386 0.312779 0.135864
H10   H     H_    0.446873 0.256702 0.845148 0.243569
H11   H     H_    0.320350 0.340094 0.794061 0.266906
H12   H     H_    0.335408 0.406305 0.128086 0.144662
H13   H     H_    0.610135 0.641796 0.854188 0.257298
H14   H     H_    0.457730 0.673637 0.870025 0.253969
H15   H     H_    0.617844 0.943952 0.196383 0.217146
H16   H     H_    0.683984 0.842104 0.302830 0.224966
H17   H     H_    0.583413 0.516651 0.108803 0.249307
H18   H     H_    0.230341 0.279765 0.587491 0.118662
H19   H     H_    0.117695 0.104115 0.681277 0.110464
H20   H     H_    0.888922 0.103947 0.689771 0.109409
H21   H     H_    0.772015 0.280466 0.606316 0.130908
H22   H     H_    0.880187 0.670028 0.403655 0.109494
H23   H     H_    0.462095 0.908550 0.587291 0.063412
N1    N     N_2   0.498640 0.498660 0.846910 -0.157597
N2    N     N_2   0.498610 0.498630 0.153040 -0.351262
N3    N     N_3   0.377542 0.316928 0.876089 -0.652383
N4    N     N_3   0.527521 0.612864 0.900333 -0.555006
N5    N     N_3   0.598480 0.878188 0.272276 -0.581734
O1    O     O_R   0.500020 0.321960 0.617040 -0.522839
O2    O     O_R   0.499980 0.321920 0.382900 -0.492638
O3    O     O_R   0.319670 0.500020 0.617100 -0.512514
O4    O     O_R   0.319630 0.499980 0.382950 -0.509259
O5    O     O_R   0.500020 0.678080 0.617100 -0.526911
O6    O     O_R   0.499980 0.678040 0.382960 -0.445669
O7    O     O_R   0.680370 0.500020 0.617050 -0.497122
O8    O     O_R   0.680330 0.499980 0.382900 -0.501488

loop_
_geom_bond_atom_site_label_1
_geom_bond_atom_site_label_2
_ccdc_geom_bond_type
C4    O4    A    
C12   C17   A    
C22   H23   S    
C1    O1    A    
Cu1   Cu2   S    
C14   H9    S    
Cu2   N2    S    
C5    H12   S    
Cu1   O3    S    
C9    C10   A    
C6    O5    A    
C19   C20   A    
C8    H18   S    
Cu1   O7    S    
C8    C12   A    
N1    N4    S    
C10   H20   S    
C17   C18   A    
C1    O2    A    
H10   N3    S    
C15   H7    S    
C2    H1    S    
Cu2   O8    S    
C21   C22   D    
C4    O3    A    
C21   N5    S    
C11   C13   A    
H16   N5    S    
H11   N3    S    
Cu2   O4    S    
C14   H8    S    
C4    C17   S    
C1    C2    S    
C6    O6    A    
H17   N2    S    
C7    C20   S    
C23   H2    S    
C21   C23   S    
C3    N1    D    
C19   H22   S    
C5    N2    D    
H13   N4    S    
C10   C11   A    
C16   H5    S    
C15   C16   S    
C6    C22   S    
C7    O7    A    
Cu1   N1    S    
C12   C13   A    
Cu1   O5    S    
H15   N5    S    
C2    C23   D    
C14   C18   S    
C16   H3    S    
C18   C19   A    
C11   H21   S    
C3    N3    S    
Cu2   O6    S    
C13   C20   A    
C3    C5    S    
C16   H4    S    
C14   C15   S    
Cu1   O1    S    
C15   H6    S    
C7    O8    A    
Cu2   O2    S    
H14   N4    S    
C8    C9    A    
C9    H19   S    
