data_mof_unit_61797.cif
_audit_creation_date              2012-12-10T20:49:06-0500
_audit_creation_method            fapswitch 2.2
_symmetry_space_group_name_H-M    P1
_symmetry_Int_Tables_number       1
_space_group_crystal_system       triclinic
_cell_length_a                    19.105961
_cell_length_b                    19.173242
_cell_length_c                    19.405238
_cell_angle_alpha                 89.197852
_cell_angle_beta                  94.480165
_cell_angle_gamma                 85.250288
_cell_volume                      7061.03264925

loop_
_atom_site_label
_atom_site_type_symbol
_atom_type_description
_atom_site_fract_x
_atom_site_fract_y
_atom_site_fract_z
_atom_type_partial_charge
C1    C     C_R   0.493592 0.689389 0.505648 0.548236
C2    C     C_2   0.449285 0.515281 0.016146 0.319811
C3    C     C_2   0.494410 0.471514 0.983441 0.341444
C4    C     C_R   0.507674 0.310157 0.493512 0.539310
C5    C     C_R   0.507366 0.488314 0.763985 -0.026909
C6    C     C_R   0.513252 0.232379 0.497177 -0.015955
C7    C     C_R   0.466610 0.201165 0.538400 -0.144114
C8    C     C_R   0.470687 0.129385 0.549848 0.104639
C9    C     C_R   0.522043 0.086143 0.519584 0.213367
C10   C     C_R   0.569370 0.115589 0.477867 0.103732
C11   C     C_R   0.564955 0.188803 0.465452 0.085746
C12   C     C_R   0.456020 0.514617 0.093054 -0.019054
C13   C     C_R   0.471650 0.878350 0.441422 0.078924
C14   C     C_R   0.479280 0.804802 0.441040 0.023724
C15   C     C_R   0.478137 0.913614 0.504008 0.177637
C16   C     C_R   0.689676 0.492083 0.507047 0.547800
C17   C     C_R   0.491779 0.766494 0.504441 -0.027239
C18   C     C_R   0.501134 0.802304 0.567064 0.205894
C19   C     C_R   0.490551 0.875918 0.567141 0.270196
C20   C     C_R   0.233227 0.515786 0.497091 0.015274
C21   C     C_R   0.206043 0.513430 0.562779 0.236488
C22   C     C_R   0.133268 0.513732 0.567624 0.129570
C23   C     C_R   0.437413 0.456295 0.130988 0.088522
C24   C     C_R   0.086922 0.519517 0.507879 0.168942
C25   C     C_R   0.114164 0.525634 0.442719 -0.093642
C26   C     C_R   0.186656 0.523377 0.437052 0.022363
C27   C     C_R   0.858009 0.570653 0.473608 0.111228
C28   C     C_R   0.309899 0.508019 0.493038 0.547106
C29   C     C_R   0.787415 0.564470 0.485430 0.231443
C30   C     C_R   0.904984 0.510633 0.473063 0.164913
C31   C     C_R   0.764725 0.497998 0.500064 0.000123
C32   C     C_R   0.812226 0.437609 0.500648 0.035099
C33   C     C_R   0.882448 0.444025 0.486176 0.110798
C34   C     C_R   0.450726 0.453339 0.203236 0.062128
C35   C     C_R   0.508548 0.490855 0.688584 0.526175
C36   C     C_R   0.491339 0.508461 0.311828 0.554676
C37   C     C_R   0.482515 0.508432 0.236838 0.010995
C38   C     C_R   0.500969 0.566339 0.199400 0.258455
C39   C     C_R   0.485937 0.570457 0.127767 0.093141
C40   C     C_3   0.603839 0.605939 0.242606 -0.083285
C41   C     C_3   0.586919 0.766646 0.650748 -0.044683
C42   C     C_3   0.431705 0.905703 0.661168 -0.052256
C43   C     C_3   0.707636 0.635432 0.418299 -0.084756
C44   C     C_3   0.268006 0.572981 0.643634 -0.077189
C45   C     C_R   0.560522 0.497245 0.881081 0.251393
C46   C     C_3   0.558196 0.363193 0.990766 -0.056720
C47   C     C_3   0.618256 0.581717 0.936020 -0.054207
C48   C     C_3   0.342774 0.583485 0.009548 -0.063233
C49   C     C_R   0.566618 0.499154 0.809319 0.087458
C50   C     C_R   0.444607 0.472064 0.790770 -0.138082
C51   C     C_R   0.439598 0.465624 0.861349 0.060295
C52   C     C_R   0.497484 0.478766 0.907336 0.033946
H1    H     H_    0.426578 0.232800 0.563161 0.186132
H2    H     H_    0.427977 0.851501 0.680661 0.159693
H3    H     H_    0.384246 0.922938 0.626138 0.139490
H4    H     H_    0.431948 0.940247 0.706542 0.175038
H5    H     H_    0.674772 0.592143 0.402920 0.087710
H6    H     H_    0.746362 0.642586 0.379364 0.135089
H7    H     H_    0.671967 0.684148 0.418082 0.161569
H8    H     H_    0.220148 0.606985 0.654358 0.141175
H9    H     H_    0.297543 0.598782 0.604656 0.097875
H10   H     H_    0.302653 0.567042 0.692330 0.154751
H11   H     H_    0.508839 0.340823 0.970556 0.141258
H12   H     H_    0.079478 0.530150 0.395749 0.188905
H13   H     H_    0.585548 0.325309 0.029644 0.175066
H14   H     H_    0.593803 0.368582 0.948791 0.162940
H15   H     H_    0.637730 0.607821 0.890680 0.147866
H16   H     H_    0.654723 0.590601 0.981783 0.173382
H17   H     H_    0.565390 0.606686 0.945752 0.147299
H18   H     H_    0.317068 0.536111 0.024524 0.157502
H19   H     H_    0.305300 0.614431 0.972063 0.174068
H20   H     H_    0.352685 0.616695 0.055128 0.154700
H21   H     H_    0.399027 0.462788 0.756336 0.185298
H22   H     H_    0.627296 0.598250 0.192241 0.149781
H23   H     H_    0.618216 0.559220 0.276980 0.103110
H24   H     H_    0.627376 0.651037 0.267778 0.152905
H25   H     H_    0.599402 0.820166 0.666006 0.168400
H26   H     H_    0.621468 0.746982 0.610322 0.150262
H27   H     H_    0.599117 0.731734 0.696942 0.157087
I1    I     I_    0.343762 0.430867 0.891562 -0.253931
I2    I     I_    0.778265 0.337705 0.526835 -0.171406
I3    I     I_    0.093575 0.502745 0.666340 -0.155779
I4    I     I_    0.956228 0.354342 0.482995 -0.143260
I5    I     I_    0.385922 0.374240 0.080091 -0.214557
I6    I     I_    0.420553 0.367525 0.263334 -0.179282
I7    I     I_    0.509641 0.662792 0.074841 -0.274111
I8    I     I_    0.479511 0.753226 0.343660 -0.163366
I9    I     I_    0.452361 0.939678 0.347885 -0.140615
I10   I     I_    0.645753 0.045808 0.433255 -0.153716
I11   I     I_    0.636642 0.229646 0.398593 -0.129987
I12   I     I_    0.399032 0.090656 0.615985 -0.257763
I13   I     I_    0.668065 0.509900 0.773103 -0.228925
I14   I     I_    0.893966 0.671236 0.457335 -0.205164
I15   I     I_    0.221338 0.525177 0.335608 -0.225996
N1    N     N_2   0.525878 0.012599 0.528631 -0.142078
N2    N     N_2   0.472353 0.987624 0.501770 -0.160165
N3    N     N_2   0.013937 0.516014 0.515668 -0.158389
N4    N     N_2   0.975784 0.517437 0.460525 -0.202047
O1    O     O_3   0.500000 0.500000 0.500000 -0.479631
O2    O     O_R   0.546320 0.532340 0.658770 -0.509085
O3    O     O_R   0.450550 0.549430 0.344370 -0.489063
O4    O     O_R   0.467400 0.453980 0.652500 -0.539370
O5    O     O_R   0.535730 0.464240 0.344360 -0.534841
O6    O     O_3   0.530147 0.621234 0.233411 -0.510097
O7    O     O_3   0.514906 0.764959 0.628869 -0.558678
O8    O     O_3   0.494525 0.911621 0.628604 -0.523920
O9    O     O_3   0.741167 0.624014 0.485413 -0.519667
O10   O     O_3   0.250760 0.505984 0.622539 -0.517150
O11   O     O_3   0.544489 0.427775 0.023257 -0.555696
O12   O     O_R   0.656240 0.454400 0.463600 -0.534410
O13   O     O_3   0.617757 0.508977 0.926278 -0.522940
O14   O     O_3   0.405492 0.565813 0.977460 -0.573215
O15   O     O_R   0.340160 0.549180 0.454800 -0.522417
O16   O     O_R   0.536860 0.652450 0.548350 -0.507878
O17   O     O_R   0.466740 0.343960 0.533260 -0.544605
O18   O     O_R   0.451210 0.659450 0.463610 -0.522222
O19   O     O_R   0.545190 0.344140 0.454780 -0.490798
O20   O     O_R   0.656710 0.532590 0.548340 -0.488911
O21   O     O_R   0.346890 0.463830 0.533270 -0.491851
Zn1   Zn    Zn3+2 0.558280 0.441710 0.441700 0.998297
Zn2   Zn    Zn3+2 0.558950 0.553420 0.562770 0.994149
Zn3   Zn    Zn3+2 0.446190 0.441460 0.553820 0.990773
Zn4   Zn    Zn3+2 0.436580 0.563410 0.441710 1.005748

loop_
_geom_bond_atom_site_label_1
_geom_bond_atom_site_label_2
_ccdc_geom_bond_type
C26   I15   S    
O18   Zn4   S    
C27   C29   A    
C34   C37   A    
C4    O17   A    
O5    Zn1   S    
C35   O4    A    
C2    C12   S    
N3    N4    D    
C16   O12   A    
C7    C8    A    
C16   C31   S    
C15   C19   A    
C32   I2    S    
C12   C23   A    
C2    O14   S    
O3    Zn4   S    
C41   O7    S    
C36   O5    A    
C22   I3    S    
C36   C37   S    
C44   H8    S    
C14   I8    S    
C46   H14   S    
C41   H25   S    
C38   C39   A    
C18   C19   A    
C51   I1    S    
C47   H17   S    
C38   O6    S    
C43   H6    S    
C42   H4    S    
O1    Zn1   S    
O16   Zn2   S    
N1    N2    D    
C10   I10   S    
C8    C9    A    
C1    O18   A    
C9    C10   A    
C9    N1    S    
C43   H7    S    
O1    Zn2   S    
O17   Zn3   S    
C21   C22   A    
C27   C30   A    
C14   C17   A    
C5    C49   A    
C48   H20   S    
C47   H15   S    
C50   C51   A    
C44   O10   S    
C23   I5    S    
C51   C52   A    
C24   C25   A    
C46   H13   S    
C4    C6    S    
C10   C11   A    
O19   Zn1   S    
O12   Zn1   S    
C6    C11   A    
C20   C28   S    
C45   C52   A    
C44   H10   S    
C25   C26   A    
C40   H24   S    
C36   O3    A    
C25   H12   S    
C37   C38   A    
C16   O20   A    
C42   H3    S    
C40   O6    S    
C42   O8    S    
C31   C32   A    
O15   Zn4   S    
C45   C49   A    
C23   C34   A    
C17   C18   A    
C8    I12   S    
C43   O9    S    
C33   I4    S    
O1    Zn3   S    
C48   O14   S    
C13   C15   A    
C15   N2    S    
C22   C24   A    
C5    C50   A    
C50   H21   S    
C1    O16   A    
C7    H1    S    
C48   H19   S    
C35   O2    A    
C47   H16   S    
C41   H26   S    
O1    Zn4   S    
O21   Zn3   S    
O2    Zn2   S    
C30   C33   A    
C48   H18   S    
C28   O21   A    
C41   H27   S    
C3    C52   S    
C45   O13   S    
C6    C7    A    
C44   H9    S    
C30   N4    S    
C1    C17   S    
C40   H23   S    
C46   H11   S    
C32   C33   A    
C12   C39   A    
C2    C3    D    
C18   O7    S    
C29   C31   A    
O4    Zn3   S    
C42   H2    S    
C11   I11   S    
C20   C26   A    
C3    O11   S    
C47   O13   S    
C5    C35   S    
C13   I9    S    
C40   H22   S    
C24   N3    S    
C4    O19   A    
C21   O10   S    
C27   I14   S    
C28   O15   A    
C43   H5    S    
C19   O8    S    
O20   Zn2   S    
C20   C21   A    
C46   O11   S    
C29   O9    S    
C49   I13   S    
C39   I7    S    
C13   C14   A    
C34   I6    S    
