data_mof_unit_67942.cif
_audit_creation_date              2013-03-05T16:22:15-0500
_audit_creation_method            fapswitch 2.2
_symmetry_space_group_name_H-M    P1
_symmetry_Int_Tables_number       1
_space_group_crystal_system       triclinic
_cell_length_a                    10.88849
_cell_length_b                    10.816716
_cell_length_c                    9.876217
_cell_angle_alpha                 86.719731
_cell_angle_beta                  91.212277
_cell_angle_gamma                 87.683558
_cell_volume                      1160.02220676

loop_
_atom_site_label
_atom_site_type_symbol
_atom_site_description
_atom_site_fract_x
_atom_site_fract_y
_atom_site_fract_z
_atom_type_partial_charge
O1    O     O_R   0.500010 0.313960 0.616610 -0.592978
O2    O     O_R   0.499990 0.686040 0.383390 -0.597641
O3    O     O_R   0.500060 0.313950 0.383350 -0.631781
O4    O     O_R   0.499940 0.686050 0.616650 -0.638708
C1    C     C_R   0.518200 0.258009 0.503429 0.916662
C2    C     C_R   0.487843 0.742756 0.495879 0.913355
O5    O     O_R   0.313930 0.499970 0.616610 -0.588322
O6    O     O_R   0.686070 0.500030 0.383390 -0.589541
O7    O     O_R   0.313980 0.499960 0.383350 -0.644319
O8    O     O_R   0.686020 0.500040 0.616650 -0.645995
C3    C     C_R   0.257027 0.498338 0.499022 0.961925
C4    C     C_R   0.742392 0.502374 0.501811 0.956766
Zn1   Zn    Zn3+2 0.499970 0.500010 0.655740 0.954458
Zn2   Zn    Zn3+2 0.500030 0.499990 0.344260 0.954307
C5    C     C_3   0.046355 0.435712 0.614421 0.289607
C6    C     C_3   0.951863 0.562373 0.392898 0.314169
C7    C     C_3   0.960469 0.381617 0.507800 0.037035
C8    C     C_3   0.036843 0.615153 0.500404 0.025965
C9    C     C_3   0.878320 0.501140 0.507222 -0.205067
C10   C     C_3   0.120358 0.497201 0.498357 -0.201408
C11   C     C_3   0.962610 0.553580 0.615385 0.038553
C12   C     C_3   0.034734 0.443547 0.391114 0.026565
C13   C     C_3   0.556819 0.018725 0.619954 0.043494
C14   C     C_3   0.457270 0.980969 0.373903 0.063611
C15   C     C_3   0.612421 0.935950 0.511292 0.198684
C16   C     C_3   0.401775 0.063028 0.481849 0.215443
C17   C     C_3   0.486644 0.879702 0.488002 -0.179304
C18   C     C_3   0.526431 0.120466 0.507047 -0.185787
C19   C     C_3   0.431062 0.961917 0.595943 0.044216
C20   C     C_3   0.582282 0.038476 0.398595 0.048329
C21   C     C_3   0.422032 0.424487 0.051603 -0.079483
C22   C     C_3   0.577835 0.575749 0.948411 -0.078350
C23   C     C_3   0.528910 0.391215 0.958845 -0.076343
C24   C     C_3   0.471027 0.608930 0.041185 -0.077566
H1    H     H_    0.550892 0.299219 0.919428 0.131067
H2    H     H_    0.448654 0.701057 0.080260 0.130363
H3    H     H_    0.351456 0.367434 0.100437 0.127985
H4    H     H_    0.647615 0.633816 0.899648 0.124387
N1    N     N_3   0.499910 0.500030 0.863290 -0.083846
N2    N     N_3   0.500090 0.499970 0.136710 -0.084116
C25   C     C_3   0.393015 0.532880 0.947141 -0.057391
C26   C     C_3   0.606972 0.467347 0.052842 -0.055554
H5    H     H_    0.301248 0.552178 0.898339 0.149834
H6    H     H_    0.698757 0.448917 0.101811 0.146754
C27   C     C_3   0.892917 0.261281 0.534445 -0.425834
C28   C     C_3   0.978773 0.147877 0.563245 -0.256228
C29   C     C_3   0.921924 0.051270 0.655377 -0.948928
H7    H     H_    0.910764 0.085419 0.758635 0.273967
H8    H     H_    0.831640 0.032834 0.611493 0.304091
H9    H     H_    0.981428 0.965495 0.663411 0.267129
H10   H     H_    0.002342 0.107858 0.465937 0.245679
H11   H     H_    0.061529 0.172489 0.618406 0.315195
H12   H     H_    0.834397 0.274138 0.624038 0.209874
H13   H     H_    0.830399 0.246732 0.447757 0.162521
C30   C     C_3   0.084863 0.745482 0.492728 -0.369289
C31   C     C_3   0.144625 0.775754 0.356121 -0.296031
C32   C     C_3   0.088485 0.894484 0.285001 -0.861235
H14   H     H_    0.986790 0.891738 0.277371 0.312188
H15   H     H_    0.113373 0.974661 0.342775 0.271298
H16   H     H_    0.123874 0.906323 0.180738 0.244960
H17   H     H_    0.243820 0.785283 0.376772 0.184442
H18   H     H_    0.137495 0.699663 0.285765 0.238561
H19   H     H_    0.009137 0.812501 0.511652 0.269549
H20   H     H_    0.153994 0.751884 0.575253 0.145451
Br1   Br    Br    0.127010 0.352043 0.773003 -0.634155
Br2   Br    Br    0.873524 0.652789 0.237563 -0.602849
C33   C     C_3   0.912617 0.605934 0.744737 -0.341786
C34   C     C_3   0.014106 0.644671 0.840744 -0.364973
C35   C     C_3   0.965938 0.745504 0.929232 -0.879418
H21   H     H_    0.960054 0.836132 0.870853 0.257965
H22   H     H_    0.873494 0.722786 0.964418 0.309420
H23   H     H_    0.027593 0.752592 0.018924 0.287050
H24   H     H_    0.047173 0.563799 0.907830 0.261971
H25   H     H_    0.092741 0.679086 0.782751 0.242438
H26   H     H_    0.849033 0.685486 0.716472 0.246567
H27   H     H_    0.858548 0.534425 0.799052 0.208138
C36   C     C_3   0.084385 0.395434 0.259738 -0.341579
C37   C     C_3   0.985235 0.340708 0.172852 -0.349415
C38   C     C_3   0.041695 0.246011 0.081211 -0.864055
H28   H     H_    0.133671 0.273988 0.048550 0.304727
H29   H     H_    0.050554 0.153871 0.136528 0.253931
H30   H     H_    0.982791 0.238072 0.989483 0.284732
H31   H     H_    0.917333 0.294405 0.238058 0.245047
H32   H     H_    0.936649 0.416305 0.109372 0.248122
H33   H     H_    0.125567 0.472944 0.200080 0.196697
H34   H     H_    0.159179 0.325989 0.284166 0.256138
Br3   Br    Br    0.758073 0.828230 0.503514 -0.647490
Br4   Br    Br    0.255141 0.166292 0.471828 -0.682660
C39   C     C_3   0.616560 0.032912 0.758768 -0.398922
C40   C     C_3   0.674731 0.908143 0.817640 -0.330056
C41   C     C_3   0.684859 0.899674 0.971628 -0.933591
H35   H     H_    0.774567 0.933458 0.005233 0.287711
H36   H     H_    0.609436 0.954360 0.013923 0.269542
H37   H     H_    0.678756 0.803199 0.013296 0.271282
H38   H     H_    0.622474 0.829773 0.783974 0.247181
H39   H     H_    0.767693 0.893887 0.777894 0.253332
H40   H     H_    0.686613 0.104189 0.751050 0.187398
H41   H     H_    0.544683 0.069492 0.824134 0.204531
C42   C     C_3   0.403284 0.968829 0.231203 -0.388505
C43   C     C_3   0.338707 0.090537 0.173086 -0.326911
C44   C     C_3   0.332371 0.102812 0.018638 -0.941335
H42   H     H_    0.407559 0.047707 0.975711 0.271010
H43   H     H_    0.242334 0.072648 0.981315 0.288848
H44   H     H_    0.340164 0.199875 0.980053 0.272386
H45   H     H_    0.243872 0.095257 0.209696 0.253196
H46   H     H_    0.383509 0.171748 0.211217 0.253402
H47   H     H_    0.479038 0.938983 0.167623 0.201979
H48   H     H_    0.338618 0.893825 0.230699 0.191732
C45   C     C_3   0.326929 0.942092 0.697310 -0.386264
C46   C     C_3   0.339911 0.824209 0.790678 -0.323487
C47   C     C_3   0.255468 0.830552 0.911470 -0.989824
H49   H     H_    0.304404 0.867093 0.998024 0.280101
H50   H     H_    0.170799 0.888220 0.885474 0.291135
H51   H     H_    0.229943 0.737145 0.947808 0.254272
H52   H     H_    0.314744 0.743815 0.732901 0.234443
H53   H     H_    0.434688 0.808847 0.830590 0.250482
H54   H     H_    0.320640 0.025011 0.757935 0.252557
H55   H     H_    0.238408 0.939386 0.639836 0.218425
C48   C     C_3   0.684469 0.061323 0.295806 -0.388477
C49   C     C_3   0.667444 0.179834 0.204238 -0.331712
C50   C     C_3   0.748428 0.175019 0.080291 -0.975050
H56   H     H_    0.832574 0.115554 0.102419 0.289381
H57   H     H_    0.696890 0.140327 0.994334 0.276684
H58   H     H_    0.775222 0.268469 0.045477 0.254543
H59   H     H_    0.571625 0.194104 0.167759 0.253830
H60   H     H_    0.692332 0.260171 0.262391 0.229493
H61   H     H_    0.773768 0.064898 0.351405 0.218543
H62   H     H_    0.691385 0.979281 0.233808 0.254760

loop_
_geom_bond_atom_site_label_1
_geom_bond_atom_site_label_2
_geom_bond_distance
_ccdc_geom_bond_type
C30   C31   1.534508 S    
C44   H42   1.099732 S    
C17   C19   1.544620 S    
C8    C11   1.543450 S    
C47   H49   1.098769 S    
C14   C17   1.545037 S    
C40   C41   1.519734 S    
C45   H54   1.107187 S    
C40   H38   1.102794 S    
N1    C25   1.485869 S    
C27   C28   1.521722 S    
C21   N2    1.483215 S    
O5    C3    1.306007 A    
C42   H48   1.095673 S    
C43   H45   1.101492 S    
C23   N1    1.485238 S    
C24   N2    1.486345 S    
C23   C26   1.540496 S    
C13   C19   1.542649 S    
C19   C45   1.541741 S    
C9    C11   1.541159 S    
C14   C16   1.543292 S    
C49   H60   1.108151 S    
C32   H15   1.104634 S    
C20   C48   1.539800 S    
C34   H25   1.105371 S    
C5    Br1   1.938714 S    
C28   H11   1.093077 S    
C15   Br3   1.935137 S    
C31   C32   1.526932 S    
C22   N1    1.484004 S    
O4    Zn1   2.027214 S    
C35   H22   1.104247 S    
C46   C47   1.524454 S    
C50   H58   1.101547 S    
C23   H1    1.108178 S    
C37   H31   1.106963 S    
C29   H7    1.111713 S    
C34   C35   1.520077 S    
C30   H19   1.101827 S    
C6    C12   1.541443 S    
C13   C39   1.523363 S    
C22   H4    1.105967 S    
C8    C10   1.537881 S    
C48   H62   1.107621 S    
N2    C26   1.485274 S    
C27   H12   1.113142 S    
C44   H43   1.108050 S    
C11   C33   1.528504 S    
C25   H5    1.107041 S    
O2    C2    1.306040 A    
C24   C25   1.539953 S    
C26   H6    1.106722 S    
C45   H55   1.110458 S    
C29   H9    1.108024 S    
C5    C10   1.549439 S    
C3    C10   1.488543 S    
Zn1   N1    2.049834 S    
C33   C34   1.527852 S    
C14   C42   1.530157 S    
C29   H8    1.096228 S    
C41   H35   1.107613 S    
C38   H29   1.108505 S    
C49   H59   1.098580 S    
C32   H16   1.109449 S    
C34   H24   1.109928 S    
C36   C37   1.524105 S    
C28   H10   1.107201 S    
C21   H3    1.106332 S    
C39   H40   1.106940 S    
C22   C24   1.539434 S    
C35   H23   1.108154 S    
O7    Zn2   2.070279 S    
C41   H36   1.096517 S    
C1    C18   1.485177 S    
C2    C17   1.478409 S    
C5    C11   1.537806 S    
O6    C4    1.311060 A    
C30   H20   1.104722 S    
C21   C23   1.540141 S    
C47   H50   1.109100 S    
C13   C18   1.542252 S    
O7    C3    1.310924 A    
C50   H56   1.108505 S    
O3    Zn2   2.027214 S    
O8    C4    1.300458 A    
C8    C30   1.521676 S    
O4    C2    1.311241 A    
C10   C12   1.549236 S    
C27   H13   1.104791 S    
C44   H44   1.103403 S    
C31   H18   1.111125 S    
C33   H26   1.101761 S    
C46   H53   1.099736 S    
O1    C1    1.316081 A    
C49   C50   1.525782 S    
C15   C20   1.546041 S    
C5    C7    1.548808 S    
C28   C29   1.506776 S    
O6    Zn2   2.054204 S    
C21   C25   1.535149 S    
C37   C38   1.524805 S    
C16   C18   1.536817 S    
C12   C36   1.526704 S    
C7    C27   1.533271 S    
O3    C1    1.307627 A    
O8    Zn1   2.070278 S    
C36   H34   1.098725 S    
C38   H30   1.108237 S    
C48   C49   1.528561 S    
C40   H39   1.101625 S    
C15   C17   1.539063 S    
C42   H47   1.096574 S    
C43   H46   1.102799 S    
C7    C12   1.557428 S    
C42   C43   1.542274 S    
C39   H41   1.100630 S    
C18   C20   1.547987 S    
C45   C46   1.530210 S    
C41   H37   1.104703 S    
C32   H14   1.109991 S    
C36   H33   1.111831 S    
C6    C9    1.533078 S    
C4    C9    1.479375 S    
C43   C44   1.523396 S    
C7    C9    1.541768 S    
C47   H51   1.101042 S    
C24   H2    1.108910 S    
C13   C15   1.553547 S    
C35   H21   1.107340 S    
O2    Zn2   2.070809 S    
C14   C20   1.539800 S    
C50   H57   1.099876 S    
Zn2   N2    2.049834 S    
C38   H28   1.107069 S    
C16   Br4   1.908700 S    
C37   H32   1.110818 S    
O5    Zn1   2.054205 S    
O1    Zn1   2.070809 S    
C16   C19   1.543733 S    
C6    C8    1.542701 S    
C22   C26   1.535242 S    
C31   H17   1.104936 S    
C6    Br2   1.934715 S    
C33   H27   1.111457 S    
C39   C40   1.544730 S    
C46   H52   1.107395 S    
C48   H61   1.109644 S    
