data_mof_unit_18969.cif
_audit_creation_date              2012-10-26T19:27:21-0400
_audit_creation_method            fapswitch 2.2
_symmetry_space_group_name_H-M    P1
_symmetry_Int_Tables_number       1
_space_group_crystal_system       triclinic
_cell_length_a                    13.8515
_cell_length_b                    15.021932
_cell_length_c                    17.333477
_cell_angle_alpha                 87.505837
_cell_angle_beta                  87.29663
_cell_angle_gamma                 88.07831
_cell_volume                      3597.46743617

loop_
_atom_site_label
_atom_site_type_symbol
_atom_type_description
_atom_site_fract_x
_atom_site_fract_y
_atom_site_fract_z
_atom_type_partial_charge
C1    C     C_R   0.498853 0.670806 0.496850 0.539716
C2    C     C_R   0.454343 0.902328 0.559710 0.023686
C3    C     C_R   0.499998 0.046886 0.501241 0.022792
C4    C     C_R   0.497631 0.953149 0.497416 0.023137
C5    C     C_R   0.459318 0.089669 0.567439 0.016945
C6    C     C_R   0.538538 0.910327 0.431311 0.016083
C7    C     C_R   0.583125 0.055287 0.373061 -0.000868
C8    C     C_R   0.413683 0.944806 0.625279 -0.001625
C9    C     C_R   0.579884 0.962858 0.370027 -0.114074
C10   C     C_R   0.416982 0.037218 0.628344 -0.114202
C11   C     C_R   0.205663 0.561688 0.453041 0.159182
C12   C     C_R   0.501124 0.329168 0.502940 0.540393
C13   C     C_R   0.794200 0.440788 0.549166 0.159730
C14   C     C_R   0.206941 0.438192 0.544101 0.029492
C15   C     C_R   0.793382 0.556599 0.450803 0.026464
C16   C     C_R   0.488133 0.500275 0.649453 0.536203
C17   C     C_R   0.511766 0.502246 0.350273 0.537335
C18   C     C_R   0.104472 0.435025 0.544485 -0.001865
C19   C     C_R   0.896028 0.557800 0.448357 -0.002132
C20   C     C_R   0.051954 0.496909 0.496913 0.014862
C21   C     C_R   0.948537 0.496737 0.496661 0.014887
C22   C     C_R   0.102639 0.559388 0.449772 -0.008117
C23   C     C_R   0.461161 0.183919 0.570741 0.002251
C24   C     C_R   0.897705 0.435983 0.545462 -0.007422
C25   C     C_R   0.052978 0.370967 0.590412 0.008120
C26   C     C_R   0.947749 0.618279 0.398868 0.007601
C27   C     C_R   0.951704 0.372134 0.589908 -0.130277
C28   C     C_R   0.048926 0.618072 0.400240 -0.131498
C29   C     C_R   0.482061 0.504795 0.732991 0.020692
C30   C     C_R   0.517070 0.511238 0.266041 0.014739
C31   C     C_R   0.547594 0.555725 0.769553 -0.139241
C32   C     C_R   0.434376 0.537501 0.226305 -0.138791
C33   C     C_R   0.539869 0.563134 0.849145 -0.111343
C34   C     C_R   0.537983 0.815971 0.428531 0.001143
C35   C     C_R   0.439751 0.548657 0.146338 -0.111147
C36   C     C_R   0.467383 0.518034 0.893171 0.042458
C37   C     C_R   0.527656 0.531824 0.104918 0.041995
C38   C     C_R   0.400725 0.468524 0.856065 -0.118358
C39   C     C_R   0.610868 0.508204 0.144792 -0.121624
C40   C     C_R   0.407828 0.462087 0.776232 -0.134435
C41   C     C_R   0.605714 0.497884 0.224936 -0.136058
C42   C     C_2   0.459036 0.521181 0.977734 -0.135996
C43   C     C_2   0.534674 0.536779 0.020147 -0.137203
C44   C     C_3   0.256927 0.634900 0.404765 -0.228312
C45   C     C_R   0.503180 0.232595 0.506939 0.002879
C46   C     C_3   0.242380 0.726084 0.440972 -0.430915
C47   C     C_3   0.742246 0.382670 0.611468 -0.228568
C48   C     C_3   0.753164 0.417279 0.692391 -0.443014
C49   C     C_3   0.102864 0.300215 0.641196 -0.284175
C50   C     C_3   0.131678 0.338195 0.716839 -0.448396
C51   C     C_3   0.898086 0.684933 0.344065 -0.284242
C52   C     C_3   0.866548 0.640324 0.272209 -0.444697
C53   C     C_3   0.422434 0.232358 0.642285 -0.283861
C54   C     C_3   0.494769 0.225030 0.706269 -0.448310
C55   C     C_3   0.578076 0.767289 0.357522 -0.280821
C56   C     C_R   0.496456 0.767338 0.492551 0.000944
C57   C     C_3   0.505779 0.771777 0.293509 -0.447407
C58   C     C_3   0.629383 0.106900 0.304960 -0.411436
C59   C     C_3   0.366619 0.893243 0.693056 -0.411241
C60   C     C_R   0.544727 0.190159 0.443384 -0.143089
C61   C     C_R   0.453852 0.809837 0.555659 -0.152451
C62   C     C_R   0.543310 0.097715 0.438958 0.023900
Cu1   Cu    Cu3+1 0.402580 0.500010 0.500000 0.909512
Cu2   Cu    Cu3+1 0.597420 0.499990 0.500000 0.905486
H1    H     H_    0.603025 0.591762 0.736330 0.116176
H2    H     H_    0.390439 0.502927 0.005897 0.113722
H3    H     H_    0.343837 0.434031 0.888972 0.097968
H4    H     H_    0.679476 0.496020 0.113787 0.098797
H5    H     H_    0.375181 0.570927 0.117454 0.100419
H6    H     H_    0.589718 0.605276 0.875425 0.100516
H7    H     H_    0.576062 0.231182 0.396369 0.119867
H8    H     H_    0.422499 0.768824 0.602675 0.117793
H9    H     H_    0.610479 0.933012 0.318558 0.113255
H10   H     H_    0.385757 0.067106 0.679584 0.112952
H11   H     H_    0.261813 0.722026 0.502443 0.180203
H12   H     H_    0.365791 0.550571 0.256967 0.113387
H13   H     H_    0.289043 0.775343 0.409087 0.135173
H14   H     H_    0.166401 0.751172 0.438767 0.132631
H15   H     H_    0.333607 0.622318 0.394371 0.207425
H16   H     H_    0.233235 0.637985 0.344507 0.077607
H17   H     H_    0.732845 0.489284 0.693214 0.171594
H18   H     H_    0.705025 0.380492 0.734826 0.132653
H19   H     H_    0.828302 0.408353 0.711259 0.136667
H20   H     H_    0.665826 0.376873 0.604407 0.214771
H21   H     H_    0.767424 0.312019 0.608664 0.091523
H22   H     H_    0.169792 0.285497 0.751797 0.129585
H23   H     H_    0.248914 0.391807 0.579182 0.127035
H24   H     H_    0.180497 0.394880 0.705988 0.146086
H25   H     H_    0.066137 0.361544 0.750500 0.153645
H26   H     H_    0.054179 0.243981 0.655870 0.138039
H27   H     H_    0.166797 0.270023 0.609942 0.131346
H28   H     H_    0.829581 0.690529 0.233968 0.133661
H29   H     H_    0.815867 0.586080 0.287690 0.145914
H30   H     H_    0.930733 0.612030 0.239852 0.153066
H31   H     H_    0.835495 0.719028 0.373911 0.129578
H32   H     H_    0.947604 0.739013 0.324555 0.136315
H33   H     H_    0.511489 0.154380 0.723381 0.153805
H34   H     H_    0.751403 0.601280 0.414204 0.127987
H35   H     H_    0.562917 0.257464 0.686244 0.146546
H36   H     H_    0.464147 0.259358 0.757789 0.136869
H37   H     H_    0.407532 0.304233 0.630204 0.160691
H38   H     H_    0.351081 0.207289 0.663275 0.123268
H39   H     H_    0.438660 0.737849 0.313826 0.143121
H40   H     H_    0.487064 0.841823 0.275699 0.151616
H41   H     H_    0.537490 0.737312 0.242406 0.146156
H42   H     H_    0.648663 0.793768 0.336202 0.123648
H43   H     H_    0.595081 0.695941 0.370422 0.165132
H44   H     H_    0.691575 0.143771 0.324038 0.132395
H45   H     H_    0.916512 0.321595 0.625945 0.108795
H46   H     H_    0.656987 0.062681 0.258591 0.120435
H47   H     H_    0.575469 0.154557 0.279477 0.132990
H48   H     H_    0.420295 0.845843 0.719185 0.132692
H49   H     H_    0.338099 0.937532 0.739076 0.120590
H50   H     H_    0.304950 0.856084 0.673415 0.130876
H51   H     H_    0.084099 0.665310 0.360809 0.108720
H52   H     H_    0.670808 0.478662 0.254553 0.122715
H53   H     H_    0.356193 0.423078 0.748350 0.106109
H54   H     H_    0.605934 0.545438 0.992642 0.111343
N1    N     N_R   0.256180 0.500070 0.500030 -0.238340
N2    N     N_R   0.743820 0.499930 0.499970 -0.239452
O1    O     O_R   0.417720 0.629750 0.499980 -0.518211
O2    O     O_R   0.582280 0.370250 0.500020 -0.520990
O3    O     O_R   0.582260 0.629730 0.499990 -0.505766
O4    O     O_R   0.417740 0.370270 0.500010 -0.504682
O5    O     O_R   0.408190 0.500030 0.613590 -0.508517
O6    O     O_R   0.591810 0.499970 0.386410 -0.514321
O7    O     O_R   0.572730 0.500000 0.613600 -0.519993
O8    O     O_R   0.427270 0.500000 0.386400 -0.521010

loop_
_geom_bond_atom_site_label_1
_geom_bond_atom_site_label_2
_ccdc_geom_bond_type
C57   H41   S    
C45   C60   A    
C34   C56   A    
C23   C45   A    
C39   H4    S    
C14   C18   A    
C36   C42   S    
C24   C27   A    
C49   H26   S    
C11   N1    A    
C6    C9    A    
Cu1   O4    S    
C39   C41   A    
C53   C54   S    
C48   H17   S    
C15   C19   A    
C47   H21   S    
C35   C37   A    
C1    C56   S    
C14   H23   S    
C8    C59   S    
C17   O6    A    
C33   C36   A    
C15   N2    A    
C60   C62   A    
C19   C26   A    
C53   H37   S    
C5    C23   A    
C31   C33   A    
C30   C41   A    
C52   H30   S    
C30   C32   A    
C16   O5    A    
C7    C58   S    
C58   H44   S    
Cu1   O8    S    
C2    C61   A    
C50   H24   S    
C51   H32   S    
C40   H53   S    
C34   C55   S    
C22   C28   A    
C17   C30   S    
C54   H36   S    
C18   C25   A    
C9    H9    S    
C49   H27   S    
C46   H11   S    
Cu1   O1    S    
C44   C46   S    
C23   C53   S    
C25   C49   S    
C57   H39   S    
C55   H42   S    
C58   H47   S    
C32   C35   A    
C44   H16   S    
C4    C6    A    
C13   C47   S    
C31   H1    S    
C60   H7    S    
C16   C29   S    
C51   C52   S    
C13   C24   A    
C55   H43   S    
C37   C43   S    
C2    C4    A    
C1    O3    A    
C7    C62   A    
C28   H51   S    
Cu1   N1    S    
C50   H25   S    
C47   C48   S    
C12   O4    A    
C53   H38   S    
C59   H49   S    
Cu2   O7    S    
C59   H48   S    
C52   H29   S    
C54   H33   S    
C47   H20   S    
C38   H3    S    
C35   H5    S    
Cu1   O5    S    
C33   H6    S    
C61   H8    S    
C8    C10   A    
C20   C22   A    
C14   N1    A    
Cu2   O6    S    
C55   C57   S    
C54   H35   S    
C52   H28   S    
C42   C43   D    
C41   H52   S    
C3    C4    A    
C11   C44   S    
C13   N2    A    
C46   H14   S    
C3    C62   A    
C7    C9    A    
C57   H40   S    
C19   C21   A    
C58   H46   S    
C44   H15   S    
C2    C8    A    
C12   C45   S    
C3    C5    A    
C32   H12   S    
C46   H13   S    
C17   O8    A    
C25   C27   A    
Cu2   O3    S    
C11   C22   A    
C26   C28   A    
Cu2   N2    S    
C48   H19   S    
C36   C38   A    
C5    C10   A    
C29   C31   A    
C26   C51   S    
C38   C40   A    
C10   H10   S    
C59   H50   S    
Cu2   O2    S    
C29   C40   A    
C48   H18   S    
C18   C20   A    
C16   O7    A    
C1    O1    A    
C50   H22   S    
C43   H54   S    
Cu1   Cu2   S    
C6    C34   A    
C12   O2    A    
C20   C21   A    
C27   H45   S    
C37   C39   A    
C49   C50   S    
C21   C24   A    
C42   H2    S    
C56   C61   A    
C15   H34   S    
C51   H31   S    
