data_mof_unit_37558.cif
_audit_creation_date              2012-12-11T15:42:54-0500
_audit_creation_method            fapswitch 2.2
_symmetry_space_group_name_H-M    P1
_symmetry_Int_Tables_number       1
_space_group_crystal_system       triclinic
_cell_length_a                    19.165914
_cell_length_b                    10.990316
_cell_length_c                    18.813797
_cell_angle_alpha                 89.930898
_cell_angle_beta                  89.84465
_cell_angle_gamma                 89.702167
_cell_volume                      3962.85695402

loop_
_atom_site_label
_atom_site_type_symbol
_atom_type_description
_atom_site_fract_x
_atom_site_fract_y
_atom_site_fract_z
_atom_type_partial_charge
C1    C     C_R   0.728787 0.374420 0.144984 0.536784
C2    C     C_R   0.269684 0.377077 0.853466 0.538547
C3    C     C_R   0.228787 0.874420 0.144984 0.536784
C4    C     C_R   0.769684 0.877077 0.853466 0.538547
C5    C     C_R   0.520858 0.389357 0.920358 0.280130
C6    C     C_R   0.486673 0.389644 0.067117 0.275873
C7    C     C_R   0.020858 0.889357 0.920358 0.280130
C8    C     C_R   0.986673 0.889644 0.067117 0.275873
C9    C     C_R   0.007731 0.997826 0.956762 -0.153068
C10   C     C_R   0.989896 0.997885 0.028405 -0.155669
C11   C     C_R   0.507731 0.497826 0.956762 -0.153068
C12   C     C_R   0.489896 0.497885 0.028405 -0.155669
C13   C     C_R   0.750484 0.914547 0.924238 0.014708
C14   C     C_R   0.241301 0.902047 0.071152 0.022696
C15   C     C_R   0.250484 0.414547 0.924238 0.014708
C16   C     C_R   0.741301 0.402047 0.071152 0.022696
C17   C     C_R   0.716622 0.830037 0.967936 0.045452
C18   C     C_R   0.293940 0.841976 0.033378 0.020496
C19   C     C_R   0.216622 0.330037 0.967936 0.045452
C20   C     C_R   0.793940 0.341976 0.033378 0.020496
C21   C     C_R   0.716398 0.842931 0.041136 -0.003240
C22   C     C_R   0.297541 0.852145 0.959917 0.002795
C23   C     C_R   0.216398 0.342931 0.041136 -0.003241
C24   C     C_R   0.797541 0.352145 0.959917 0.002795
C25   C     C_R   0.788271 0.021561 0.028514 -0.150942
C26   C     C_R   0.189011 0.962637 0.960464 -0.168044
C27   C     C_R   0.288271 0.521561 0.028514 -0.150942
C28   C     C_R   0.689011 0.462637 0.960464 -0.168044
C29   C     C_R   0.788117 0.008924 0.955541 -0.153369
C30   C     C_R   0.186677 0.956958 0.033154 -0.150402
C31   C     C_R   0.288117 0.508924 0.955541 -0.153369
C32   C     C_R   0.686677 0.456959 0.033154 -0.150402
C33   C     C_3   0.641375 0.795718 0.967915 -0.271564
C34   C     C_3   0.370745 0.856188 0.041280 -0.288601
C35   C     C_3   0.141375 0.295718 0.967915 -0.271564
C36   C     C_3   0.870745 0.356188 0.041280 -0.288601
C37   C     C_3   0.642904 0.802763 0.048259 -0.276075
C38   C     C_3   0.374470 0.867465 0.961143 -0.267170
C39   C     C_3   0.142904 0.302763 0.048259 -0.276075
C40   C     C_3   0.874470 0.367465 0.961143 -0.267170
C41   C     C_R   0.749104 0.942542 0.071857 0.000763
C42   C     C_R   0.247247 0.919672 0.923043 -0.000097
C43   C     C_R   0.249104 0.442542 0.071857 0.000763
C44   C     C_R   0.747247 0.419672 0.923043 -0.000097
C45   C     C_R   0.534717 0.155472 0.144752 0.555325
C46   C     C_R   0.467467 0.154905 0.853474 0.546518
C47   C     C_R   0.034717 0.655472 0.144752 0.555325
C48   C     C_R   0.967467 0.654905 0.853474 0.546518
C49   C     C_R   0.484847 0.164144 0.570694 0.017614
C50   C     C_R   0.497096 0.163820 0.421800 0.015862
C51   C     C_R   0.984847 0.664144 0.570694 0.017614
C52   C     C_R   0.997096 0.663820 0.421800 0.015862
C53   C     C_R   0.480386 0.056978 0.531887 0.032791
C54   C     C_R   0.485020 0.055920 0.459393 0.027925
C55   C     C_R   0.980386 0.556978 0.531887 0.032791
C56   C     C_R   0.985020 0.555921 0.459393 0.027925
C57   C     C_R   0.490611 0.274842 0.458496 -0.173215
C58   C     C_R   0.485512 0.274993 0.533056 -0.164788
C59   C     C_R   0.990611 0.774842 0.458496 -0.173215
C60   C     C_R   0.985513 0.774993 0.533056 -0.164788
C61   C     C_3   0.519146 0.940240 0.540913 -0.281360
C62   C     C_3   0.523806 0.936864 0.460749 -0.266491
C63   C     C_3   0.019146 0.440240 0.540913 -0.281360
C64   C     C_3   0.023806 0.436864 0.460749 -0.266491
C65   C     C_R   0.748501 0.923459 0.578861 0.013203
C66   C     C_R   0.251647 0.940712 0.417325 0.014798
C67   C     C_R   0.248501 0.423459 0.578861 0.013203
C68   C     C_R   0.751647 0.440711 0.417325 0.014798
C69   C     C_R   0.783699 0.018759 0.545512 0.017504
C70   C     C_R   0.203100 0.014296 0.453283 0.023180
C71   C     C_R   0.283699 0.518759 0.545512 0.017504
C72   C     C_R   0.703100 0.514296 0.453283 0.023180
C73   C     C_R   0.783041 0.028423 0.472781 0.047964
C74   C     C_R   0.210913 0.041238 0.524221 0.020251
C75   C     C_R   0.283041 0.528423 0.472781 0.047964
C76   C     C_R   0.710913 0.541238 0.524221 0.020251
C77   C     C_R   0.703437 0.861121 0.463495 -0.176924
C78   C     C_R   0.322210 0.938936 0.524441 -0.156246
C79   C     C_R   0.203437 0.361121 0.463495 -0.176924
C80   C     C_R   0.822210 0.438936 0.524441 -0.156246
C81   C     C_R   0.703143 0.851870 0.537642 -0.168663
C82   C     C_R   0.314542 0.912306 0.451779 -0.160051
C83   C     C_R   0.203143 0.351870 0.537642 -0.168663
C84   C     C_R   0.814542 0.412306 0.451779 -0.160051
C85   C     C_3   0.857658 0.061710 0.549597 -0.271322
C86   C     C_3   0.126098 0.997468 0.461525 -0.266450
C87   C     C_3   0.357658 0.561710 0.549597 -0.271322
C88   C     C_3   0.626098 0.497468 0.461525 -0.266450
C89   C     C_R   0.739777 0.976777 0.145358 0.527852
C90   C     C_R   0.259227 0.971213 0.853096 0.533327
C91   C     C_R   0.239777 0.476777 0.145358 0.527852
C92   C     C_R   0.759227 0.471213 0.853096 0.533327
C93   C     C_3   0.857169 0.068618 0.469246 -0.267196
C94   C     C_3   0.134713 0.025703 0.539331 -0.273319
C95   C     C_3   0.357169 0.568618 0.469246 -0.267196
C96   C     C_3   0.634713 0.525703 0.539331 -0.273319
C97   C     C_R   0.747133 0.945618 0.430222 0.019310
C98   C     C_R   0.267958 0.997140 0.562260 0.014664
C99   C     C_R   0.247133 0.445618 0.430222 0.019310
C100  C     C_R   0.767958 0.497140 0.562260 0.014664
C101  C     C_R   0.729910 0.380739 0.351677 0.541425
C102  C     C_R   0.270198 0.378723 0.647945 0.538312
C103  C     C_R   0.229910 0.880739 0.351677 0.541425
C104  C     C_R   0.770198 0.878723 0.647945 0.538312
C105  C     C_R   0.531733 0.156948 0.353085 0.530783
C106  C     C_R   0.465919 0.157022 0.645320 0.525151
C107  C     C_R   0.031733 0.656948 0.353085 0.530783
C108  C     C_R   0.965919 0.657022 0.645320 0.525151
C109  C     C_R   0.740863 0.974437 0.355431 0.534243
C110  C     C_R   0.271810 0.020409 0.638517 0.562223
C111  C     C_R   0.240863 0.474437 0.355431 0.534243
C112  C     C_R   0.771810 0.520409 0.638517 0.562223
C113  C     C_R   0.503055 0.163913 0.922083 -0.012917
C114  C     C_R   0.511712 0.164647 0.070251 -0.004649
C115  C     C_R   0.003055 0.663913 0.922083 -0.012917
C116  C     C_R   0.011712 0.664647 0.070251 -0.004649
C117  C     C_R   0.510977 0.276714 0.957350 -0.014873
C118  C     C_R   0.504117 0.277370 0.032999 -0.015982
C119  C     C_R   0.010977 0.776713 0.957350 -0.014873
C120  C     C_R   0.004117 0.777370 0.032999 -0.015982
C121  C     C_R   0.512313 0.055950 0.032206 -0.173528
C122  C     C_R   0.510460 0.055652 0.959633 -0.180767
C123  C     C_R   0.012313 0.555950 0.032206 -0.173528
C124  C     C_R   0.010460 0.555652 0.959633 -0.180767
Cr1   Cr    Cr6+3 0.772010 0.169670 0.250090 1.001528
Cr2   Cr    Cr6+3 0.227990 0.169670 0.749910 0.989192
Cr3   Cr    Cr6+3 0.272010 0.669670 0.250090 1.001528
Cr4   Cr    Cr6+3 0.727990 0.669670 0.749910 0.989192
Cr5   Cr    Cr6+3 0.615000 0.323260 0.249260 1.038369
Cr6   Cr    Cr6+3 0.385000 0.323260 0.750740 1.038722
Cr7   Cr    Cr6+3 0.115000 0.823260 0.249260 1.038369
Cr8   Cr    Cr6+3 0.885000 0.823260 0.750740 1.038722
Cr9   Cr    Cr6+3 0.616710 0.010760 0.250840 0.998911
Cr10  Cr    Cr6+3 0.383290 0.010760 0.749160 0.995573
Cr11  Cr    Cr6+3 0.116710 0.510760 0.250840 0.998911
Cr12  Cr    Cr6+3 0.883290 0.510760 0.749160 0.995573
H1    H     H_    0.512315 0.968962 0.058756 0.134948
H2    H     H_    0.507835 0.968472 0.933261 0.134119
H3    H     H_    0.012315 0.468962 0.058756 0.134948
H4    H     H_    0.007835 0.468472 0.933261 0.134119
H5    H     H_    0.495325 0.360467 0.430511 0.115130
H6    H     H_    0.484660 0.360642 0.561137 0.116597
H7    H     H_    0.995325 0.860467 0.430511 0.115130
H8    H     H_    0.984660 0.860642 0.561137 0.116597
H9    H     H_    0.986580 0.366286 0.563446 0.132117
H10   H     H_    0.077959 0.445264 0.441151 0.176678
H11   H     H_    0.486580 0.866286 0.563446 0.132117
H12   H     H_    0.577959 0.945264 0.441151 0.176678
H13   H     H_    0.570313 0.953180 0.567410 0.143103
H14   H     H_    0.493249 0.861728 0.436750 0.123627
H15   H     H_    0.070313 0.453180 0.567410 0.143103
H16   H     H_    0.993249 0.361728 0.436750 0.123627
H17   H     H_    0.670891 0.801057 0.432437 0.124649
H18   H     H_    0.368120 0.907093 0.551895 0.136880
H19   H     H_    0.170891 0.301057 0.432437 0.124649
H20   H     H_    0.868120 0.407093 0.551895 0.136880
H21   H     H_    0.672145 0.781757 0.562098 0.139107
H22   H     H_    0.355086 0.862223 0.424340 0.117430
H23   H     H_    0.172145 0.281757 0.562098 0.139107
H24   H     H_    0.855086 0.362223 0.424340 0.117430
H25   H     H_    0.894751 0.992480 0.569709 0.160443
H26   H     H_    0.110744 0.901778 0.452115 0.162832
H27   H     H_    0.394751 0.492480 0.569709 0.160443
H28   H     H_    0.610744 0.401778 0.452115 0.162832
H29   H     H_    0.861632 0.152443 0.575320 0.133683
H30   H     H_    0.095477 0.067477 0.432229 0.131142
H31   H     H_    0.361632 0.652443 0.575320 0.133683
H32   H     H_    0.595477 0.567477 0.432229 0.131142
H33   H     H_    0.862533 0.162287 0.448552 0.140497
H34   H     H_    0.107909 0.111105 0.555333 0.125965
H35   H     H_    0.362532 0.662287 0.448552 0.140497
H36   H     H_    0.607909 0.611105 0.555333 0.125965
H37   H     H_    0.891713 0.000062 0.443442 0.131609
H38   H     H_    0.123477 0.946238 0.574082 0.143440
H39   H     H_    0.391713 0.500062 0.443442 0.131609
H40   H     H_    0.623477 0.446238 0.574082 0.143440
H41   H     H_    0.011052 0.083802 0.928788 0.123819
H42   H     H_    0.978674 0.083609 0.054452 0.124912
H43   H     H_    0.511052 0.583802 0.928788 0.123819
H44   H     H_    0.478674 0.583609 0.054452 0.124912
H45   H     H_    0.816970 0.096815 0.050673 0.153637
H46   H     H_    0.147079 0.009376 0.933933 0.148950
H47   H     H_    0.316970 0.596815 0.050673 0.153637
H48   H     H_    0.647079 0.509377 0.933933 0.148950
H49   H     H_    0.818994 0.071064 0.923773 0.139550
H50   H     H_    0.141249 0.995590 0.059105 0.150228
H51   H     H_    0.318994 0.571064 0.923773 0.139550
H52   H     H_    0.641249 0.495590 0.059105 0.150228
H53   H     H_    0.132390 0.203319 0.947383 0.140444
H54   H     H_    0.896304 0.272396 0.061900 0.130686
H55   H     H_    0.632390 0.703319 0.947383 0.140444
H56   H     H_    0.396304 0.772396 0.061900 0.130686
H57   H     H_    0.608701 0.866618 0.942544 0.129718
H58   H     H_    0.384476 0.941195 0.069857 0.136425
H59   H     H_    0.108701 0.366618 0.942544 0.129718
H60   H     H_    0.884476 0.441195 0.069857 0.136425
H61   H     H_    0.609263 0.874141 0.071198 0.166445
H62   H     H_    0.388463 0.959874 0.942988 0.178421
H63   H     H_    0.109263 0.374141 0.071198 0.166445
H64   H     H_    0.888463 0.459874 0.942988 0.178421
H65   H     H_    0.638955 0.712780 0.074775 0.132582
H66   H     H_    0.402554 0.790845 0.934987 0.128127
H67   H     H_    0.138955 0.212780 0.074775 0.132582
H68   H     H_    0.902554 0.290845 0.934987 0.128127
O1    O     O_R   0.787520 0.042810 0.170440 -0.537126
O2    O     O_R   0.212480 0.042810 0.829560 -0.529767
O3    O     O_R   0.287520 0.542810 0.170440 -0.537126
O4    O     O_R   0.712480 0.542810 0.829560 -0.529767
O5    O     O_R   0.556610 0.252880 0.323980 -0.518878
O6    O     O_R   0.443390 0.252880 0.676020 -0.517765
O7    O     O_R   0.056610 0.752880 0.323980 -0.518878
O8    O     O_R   0.943390 0.752880 0.676020 -0.517765
O9    O     O_R   0.545950 0.051210 0.330860 -0.522666
O10   O     O_R   0.454050 0.051210 0.669140 -0.524523
O11   O     O_R   0.045950 0.551210 0.330860 -0.522666
O12   O     O_R   0.954050 0.551210 0.669140 -0.524523
O13   O     O_R   0.681390 0.959480 0.325510 -0.509055
O14   O     O_R   0.318610 0.959480 0.674490 -0.513635
O15   O     O_R   0.181390 0.459480 0.325510 -0.509055
O16   O     O_R   0.818610 0.459480 0.674490 -0.513635
O17   O     O_3   0.667900 0.167900 0.250060 -0.251301
O18   O     O_3   0.332100 0.167900 0.749940 -0.266880
O19   O     O_3   0.167900 0.667900 0.250060 -0.251301
O20   O     O_3   0.832100 0.667900 0.749940 -0.266880
O21   O     O_R   0.765640 0.292100 0.175020 -0.501570
O22   O     O_R   0.234360 0.292100 0.824980 -0.499287
O23   O     O_R   0.265640 0.792100 0.175020 -0.501570
O24   O     O_R   0.734360 0.792100 0.824980 -0.499287
O25   O     O_R   0.670190 0.408840 0.168540 -0.519734
O26   O     O_R   0.329810 0.408840 0.831460 -0.509260
O27   O     O_R   0.170190 0.908840 0.168540 -0.519734
O28   O     O_R   0.829810 0.908840 0.831460 -0.509260
O29   O     O_R   0.556620 0.251410 0.175160 -0.442539
O30   O     O_R   0.443380 0.251410 0.824840 -0.436918
O31   O     O_R   0.056620 0.751410 0.175160 -0.442539
O32   O     O_R   0.943380 0.751410 0.824840 -0.436918
O33   O     O_R   0.545960 0.049620 0.170320 -0.542357
O34   O     O_R   0.454040 0.049620 0.829680 -0.544078
O35   O     O_R   0.045960 0.549620 0.170320 -0.542357
O36   O     O_R   0.954040 0.549620 0.829680 -0.544078
O37   O     O_R   0.681390 0.958010 0.176690 -0.504174
O38   O     O_R   0.318610 0.958010 0.823310 -0.501508
O39   O     O_R   0.181390 0.458010 0.176690 -0.504174
O40   O     O_R   0.818610 0.458010 0.823310 -0.501508
O41   O     O_R   0.787510 0.044390 0.330970 -0.529560
O42   O     O_R   0.212490 0.044390 0.669030 -0.544511
O43   O     O_R   0.287510 0.544390 0.330970 -0.529560
O44   O     O_R   0.712490 0.544390 0.669030 -0.544511
O45   O     O_R   0.765630 0.293570 0.323840 -0.504653
O46   O     O_R   0.234370 0.293570 0.676160 -0.524177
O47   O     O_R   0.265630 0.793570 0.323840 -0.504653
O48   O     O_R   0.734370 0.793570 0.676160 -0.524177
O49   O     O_R   0.670190 0.410420 0.329080 -0.521956
O50   O     O_R   0.329810 0.410420 0.670920 -0.522790
O51   O     O_R   0.170190 0.910420 0.329080 -0.521956
O52   O     O_R   0.829810 0.910420 0.670920 -0.522790
O53   O     O_3   0.535918 0.400753 0.847927 -0.554098
C125  C     C_3   0.593218 0.328614 0.824654 0.021304
H69   H     H_    0.585053 0.230088 0.828926 0.119640
H70   H     H_    0.639972 0.347341 0.855415 0.132229
C126  C     C_3   0.606997 0.355435 0.746327 -0.244187
H71   H     H_    0.559229 0.337188 0.715222 0.176081
H72   H     H_    0.619204 0.453176 0.740083 0.212075
C127  C     C_3   0.666433 0.276900 0.716902 -0.450650
H73   H     H_    0.715583 0.295112 0.745988 0.177031
H74   H     H_    0.674621 0.297692 0.659764 0.157670
H75   H     H_    0.653443 0.178860 0.721910 0.133320
O54   O     O_3   0.468035 0.399376 0.138233 -0.552092
C128  C     C_3   0.406027 0.334693 0.152780 0.019225
H76   H     H_    0.406978 0.239175 0.134442 0.106904
H77   H     H_    0.362864 0.378562 0.124986 0.153417
C129  C     C_3   0.392779 0.334732 0.232998 -0.242837
H78   H     H_    0.440469 0.303067 0.260701 0.188029
H79   H     H_    0.381380 0.428780 0.251142 0.196596
C130  C     C_3   0.332802 0.250746 0.253718 -0.464536
H80   H     H_    0.283795 0.279265 0.227146 0.165146
H81   H     H_    0.324760 0.254154 0.312161 0.145757
H82   H     H_    0.345223 0.155375 0.238566 0.142918
O55   O     O_3   0.035918 0.900753 0.847927 -0.554098
C131  C     C_3   0.093218 0.828614 0.824654 0.021304
H83   H     H_    0.085053 0.730088 0.828926 0.119640
H84   H     H_    0.139972 0.847341 0.855415 0.132229
C132  C     C_3   0.106997 0.855435 0.746327 -0.244187
H85   H     H_    0.059229 0.837188 0.715222 0.176081
H86   H     H_    0.119204 0.953176 0.740083 0.212075
C133  C     C_3   0.166433 0.776901 0.716902 -0.450650
H87   H     H_    0.215583 0.795112 0.745988 0.177031
H88   H     H_    0.174621 0.797692 0.659764 0.157670
H89   H     H_    0.153443 0.678860 0.721910 0.133320
O56   O     O_3   0.968035 0.899376 0.138233 -0.552092
C134  C     C_3   0.906027 0.834693 0.152780 0.019225
H90   H     H_    0.906978 0.739175 0.134442 0.106904
H91   H     H_    0.862864 0.878562 0.124986 0.153417
C135  C     C_3   0.892779 0.834732 0.232998 -0.242837
H92   H     H_    0.940469 0.803067 0.260701 0.188029
H93   H     H_    0.881380 0.928780 0.251142 0.196596
C136  C     C_3   0.832802 0.750746 0.253718 -0.464536
H94   H     H_    0.783795 0.779265 0.227146 0.165146
H95   H     H_    0.824760 0.754154 0.312161 0.145757
H96   H     H_    0.845223 0.655375 0.238566 0.142918

loop_
_geom_bond_atom_site_label_1
_geom_bond_atom_site_label_2
_ccdc_geom_bond_type
Cr2   O42   S    
C134  H90   S    
C73   C93   S    
Cr4   O20   S    
C75   C95   S    
Cr9   O33   S    
C64   H16   S    
C4    O28   A    
C79   C99   A    
C16   C20   A    
Cr7   O51   S    
C22   C38   S    
C23   C43   A    
Cr11  O39   S    
C95   H39   S    
C89   O1    A    
C113  C122  A    
C129  H78   S    
C88   H32   S    
C70   C74   A    
C44   C92   S    
C34   H58   S    
C71   C87   S    
C59   C60   A    
Cr10  O34   S    
Cr2   O22   S    
C7    O55   S    
C47   O31   A    
C25   C29   A    
C47   C116  S    
C27   C31   A    
C7    C119  A    
C28   C32   A    
C68   C101  S    
C25   C41   A    
Cr12  O40   S    
Cr7   O31   S    
C28   C44   A    
C17   C21   A    
C10   H42   S    
C101  O49   A    
C66   C82   A    
C78   C82   A    
C68   C72   A    
Cr8   O32   S    
C26   H46   S    
C128  H77   S    
C6    O54   S    
C11   H43   S    
Cr5   O5    S    
C9    H41   S    
C2    O22   A    
C62   H14   S    
C133  H89   S    
C64   H10   S    
C50   C57   A    
C66   C103  S    
C49   C106  S    
C76   C100  A    
Cr11  O19   S    
C33   H55   S    
C103  O47   A    
C34   H56   S    
C85   H29   S    
C19   C35   S    
C94   H34   S    
C133  H88   S    
C66   C70   A    
Cr1   O45   S    
C129  C130  S    
C49   C53   A    
C93   H37   S    
C51   C55   A    
C43   C91   S    
Cr8   O52   S    
C79   H19   S    
C107  O11   A    
C8    C10   A    
C38   H66   S    
C5    C117  A    
Cr4   O4    S    
C61   H13   S    
C76   C96   S    
C106  O6    A    
C41   C89   S    
C67   C83   A    
C104  O48   A    
C116  C123  A    
C27   H47   S    
C123  C124  A    
C74   C98   A    
C53   C54   A    
C36   H54   S    
C46   O30   A    
C134  H91   S    
C126  H71   S    
C82   H22   S    
C123  H3    S    
O53   C125  S    
C121  H1    S    
Cr3   O3    S    
C77   H17   S    
C53   C61   S    
C45   C114  S    
C40   H68   S    
C127  H73   S    
Cr10  O18   S    
C55   C63   S    
C50   C105  S    
C56   C64   S    
C77   C97   A    
C9    C10   A    
C59   H7    S    
C62   H12   S    
C132  C133  S    
C136  H95   S    
C111  O15   A    
C5    O53   S    
C108  O8    A    
C45   O33   A    
C106  O10   A    
C87   H31   S    
C71   C75   A    
C130  H82   S    
C131  H83   S    
C3    O27   A    
C88   H28   S    
C116  C120  A    
C87   C95   S    
C42   C90   S    
C36   H60   S    
C97   C109  S    
Cr12  O20   S    
Cr4   O24   S    
C99   C111  S    
C75   C99   A    
C112  O16   A    
C114  C118  A    
C113  C117  A    
C12   H44   S    
Cr5   O49   S    
C26   C30   A    
C115  C119  A    
C90   O38   A    
Cr7   O7    S    
C47   O35   A    
C31   H51   S    
C69   C85   S    
C26   C42   A    
Cr7   O27   S    
C39   H63   S    
C46   C113  S    
C18   C22   A    
C101  O45   A    
C126  C127  S    
C91   O3    A    
C15   C31   A    
Cr1   O17   S    
C16   C32   A    
C13   C17   A    
C125  H69   S    
C28   H48   S    
C117  C118  A    
C57   C58   A    
C127  H75   S    
C29   H49   S    
C61   C62   S    
C109  O13   A    
C2    O26   A    
C63   C64   S    
C129  H79   S    
C132  H85   S    
Cr7   O19   S    
C51   C60   A    
C63   H9    S    
C55   C56   A    
C88   C96   S    
C98   C110  S    
C39   H67   S    
C85   H25   S    
C74   C94   S    
Cr1   O41   S    
C130  H80   S    
C86   H30   S    
C131  C132  S    
C80   C84   A    
C84   H24   S    
C15   C19   A    
C93   H33   S    
C50   C54   A    
C13   C29   A    
C45   O29   A    
C5    C11   A    
C6    C12   A    
C135  H92   S    
C107  O7    A    
Cr6   O26   S    
C105  O5    A    
C7    C9    A    
O56   C134  S    
Cr10  O38   S    
C90   O2    A    
C114  C121  A    
C52   C107  S    
Cr9   O17   S    
O55   C131  S    
C69   C73   A    
C35   H59   S    
C33   H57   S    
C35   H53   S    
C102  O46   A    
C128  H76   S    
Cr3   O23   S    
C17   C33   S    
Cr1   O21   S    
C48   O36   A    
C81   H21   S    
C68   C84   A    
Cr6   O18   S    
C122  H2    S    
C135  C136  S    
C78   H18   S    
C40   H64   S    
Cr10  O14   S    
Cr6   O30   S    
C33   C37   S    
C102  O50   A    
C35   C39   S    
C58   H6    S    
C65   C81   A    
C77   C81   A    
C1    C16   S    
C2    C15   S    
C63   H15   S    
C121  C122  A    
C108  O12   A    
C3    C14   S    
C21   C41   A    
C100  C112  S    
C24   C44   A    
Cr3   O43   S    
C3    O23   A    
C1    O21   A    
C103  O51   A    
C115  C124  A    
C96   H40   S    
Cr8   O20   S    
C124  H4    S    
Cr1   O1    S    
C119  C120  A    
Cr12  O16   S    
C54   C62   S    
Cr10  O10   S    
C57   H5    S    
Cr2   O46   S    
C61   H11   S    
C60   H8    S    
C79   C83   A    
Cr2   O2    S    
C65   C69   A    
C67   C71   A    
C4    O24   A    
C20   C36   S    
C27   C43   A    
C21   C37   S    
O54   C128  S    
C127  H74   S    
C128  C129  S    
C37   H65   S    
C95   H35   S    
C87   H27   S    
C132  H86   S    
C136  H94   S    
C14   C18   A    
C19   C23   A    
Cr8   O8    S    
C72   C76   A    
C8    O56   S    
C73   C97   A    
Cr4   O48   S    
C30   H50   S    
C130  H81   S    
C131  H84   S    
C133  H87   S    
Cr5   O25   S    
C4    C13   S    
C86   C94   S    
Cr9   O37   S    
Cr11  O11   S    
C20   C24   A    
C51   C108  S    
C78   C98   A    
C86   H26   S    
C37   H61   S    
Cr3   O19   S    
C110  O42   A    
C80   C100  A    
C85   C93   S    
C14   C30   A    
Cr8   O28   S    
C72   C88   S    
C25   H45   S    
C80   H20   S    
C105  O9    A    
C32   H52   S    
Cr4   O44   S    
C36   C40   S    
C134  C135  S    
Cr5   O17   S    
C126  H72   S    
Cr9   O13   S    
C49   C58   A    
Cr5   O29   S    
C125  H70   S    
C92   O4    A    
C52   C59   A    
Cr11  O15   S    
C38   H62   S    
C18   C34   S    
C48   O32   A    
C94   H38   S    
C48   C115  S    
C111  O43   A    
C91   O39   A    
C136  H96   S    
C89   O37   A    
Cr6   O6    S    
C125  C126  S    
C70   C86   S    
Cr6   O50   S    
C8    C120  A    
C112  O44   A    
C34   C38   S    
C11   C12   A    
Cr2   O18   S    
C104  O52   A    
Cr9   O9    S    
Cr12  O36   S    
C135  H93   S    
C92   O40   A    
C22   C42   A    
C23   C39   S    
C24   C40   S    
Cr11  O35   S    
Cr3   O47   S    
C46   O34   A    
C110  O14   A    
C109  O41   A    
C1    O25   A    
C83   H23   S    
C96   H36   S    
C65   C104  S    
C6    C118  A    
C52   C56   A    
C67   C102  S    
Cr12  O12   S    
