data_mof_unit_33013.cif
_audit_creation_date              2013-03-05T16:03:29-0500
_audit_creation_method            fapswitch 2.2
_symmetry_space_group_name_H-M    P1
_symmetry_Int_Tables_number       1
_space_group_crystal_system       triclinic
_cell_length_a                    8.162105
_cell_length_b                    14.365721
_cell_length_c                    22.824508
_cell_angle_alpha                 93.294533
_cell_angle_beta                  89.310231
_cell_angle_gamma                 92.390462
_cell_volume                      2669.40394374

loop_
_atom_site_label
_atom_site_type_symbol
_atom_site_description
_atom_site_fract_x
_atom_site_fract_y
_atom_site_fract_z
_atom_type_partial_charge
P1    P     P_3+3 0.074990 0.420800 0.372080 0.500465
O1    O     O_2   0.901900 0.448470 0.362340 -0.346171
O2    O     O_3   0.142240 0.449440 0.433360 -0.352029
O3    O     O_3   0.645560 0.619080 0.391970 -0.338377
O4    O     O_2   0.796011 0.559803 0.294754 -0.409584
O5    O     O_3   0.045524 0.299241 0.370422 -0.542758
O6    O     O_3   0.704970 0.731406 0.296895 -0.501940
C1    C     C_3   0.645907 0.796586 0.205086 -0.804858
H1    H     H_    0.758687 0.842162 0.207882 0.271764
H2    H     H_    0.674340 0.730997 0.179536 0.218430
P2    P     P_3+3 0.618830 0.715330 0.538180 0.458934
P3    P     P_3+3 0.071938 0.786975 0.411335 0.466937
O7    O     O_2   0.793170 0.729090 0.520590 -0.383779
O8    O     O_3   0.052800 0.667320 0.419180 -0.383537
O9    O     O_2   0.928050 0.832129 0.445427 -0.380223
O10   O     O_3   0.619171 0.744272 0.613659 -0.573777
O11   O     O_3   0.036788 0.805994 0.337655 -0.489899
C2    C     C_3   0.112535 0.735271 0.303453 0.357889
H3    H     H_    0.061217 0.665349 0.313873 0.116726
H4    H     H_    0.245844 0.737855 0.311557 -0.062064
C3    C     C_3   0.080999 0.744635 0.238447 -0.129758
H5    H     H_    0.145575 0.689004 0.213598 0.117447
H6    H     H_    0.949383 0.732249 0.229084 0.152019
C4    C     C_3   0.171033 0.742629 0.588429 0.455829
H7    H     H_    0.296347 0.723155 0.576132 0.087008
H8    H     H_    0.085762 0.721530 0.552145 0.127605
C5    C     C_3   0.167849 0.847913 0.599429 -1.044811
H9    H     H_    0.258600 0.871793 0.633511 0.275643
H10   H     H_    0.198044 0.883310 0.558578 0.231565
H11   H     H_    0.043494 0.867467 0.614586 0.260651
Ba1   Ba    Ba6+2 0.846250 0.544220 0.470860 1.574361
C6    C     C_3   0.051811 0.264483 0.311530 0.177789
H12   H     H_    0.180483 0.268388 0.295334 0.084156
H13   H     H_    0.974839 0.305152 0.283267 0.070544
C7    C     C_3   0.983427 0.163090 0.304723 0.133585
H14   H     H_    0.849006 0.163695 0.313642 0.140671
C8    C     C_3   0.688688 0.674046 0.643653 0.431373
H15   H     H_    0.803801 0.651787 0.622181 0.103264
H16   H     H_    0.600088 0.613613 0.645598 0.100881
C9    C     C_3   0.727350 0.713127 0.705591 -0.972110
H17   H     H_    0.811080 0.775727 0.703595 0.271889
H18   H     H_    0.788444 0.661260 0.730814 0.230306
H19   H     H_    0.612531 0.732820 0.728872 0.261116
P4    P     P_3+3 0.114710 0.579280 0.627920 0.472613
O12   O     O_2   0.287790 0.551560 0.637690 -0.368768
O13   O     O_3   0.047460 0.550640 0.566640 -0.414006
O14   O     O_3   0.544140 0.380990 0.608030 -0.314488
O15   O     O_3   0.124972 0.700786 0.640181 -0.557895
P5    P     P_3+3 0.124869 0.212716 0.590208 0.507800
O16   O     O_3   0.640350 0.387150 0.474440 -0.373420
O17   O     O_3   0.136890 0.332750 0.580830 -0.331438
O18   O     O_2   0.276314 0.171889 0.558339 -0.357926
O19   O     O_3   0.163716 0.201594 0.664925 -0.499670
Ba2   Ba    Ba6+2 0.343570 0.455860 0.529140 1.598795
P6    P     P_3+3 0.647953 0.617159 0.315280 0.454383
C10   C     C_3   0.581592 0.773703 0.266112 0.619845
H20   H     H_    0.470746 0.728196 0.258360 0.029423
H21   H     H_    0.552515 0.832520 0.180886 0.271921
O20   O     O_3   0.549340 0.612930 0.525560 -0.393231
C11   C     C_3   0.520511 0.318222 0.354475 0.389953
H22   H     H_    0.390372 0.327979 0.366836 0.084307
H23   H     H_    0.593974 0.383742 0.365078 0.136261
C12   C     C_3   0.532426 0.296428 0.288575 -0.956260
H24   H     H_    0.467806 0.228555 0.276610 0.284705
H25   H     H_    0.475783 0.351849 0.264782 0.230379
H26   H     H_    0.663018 0.292560 0.274852 0.260738
P7    P     P_3+3 0.580480 0.270639 0.458994 0.463595
O21   O     O_2   0.396530 0.270940 0.479440 -0.349713
O22   O     O_3   0.580225 0.243228 0.383289 -0.580992
C13   C     C_3   0.024387 0.165392 0.694484 0.567180
H27   H     H_    0.908155 0.171615 0.670354 0.078163
C14   C     C_3   0.005174 0.223294 0.752281 -0.806782
H28   H     H_    0.989152 0.297370 0.742948 0.245255
H29   H     H_    0.895850 0.198365 0.777062 0.239302
H30   H     H_    0.115416 0.219546 0.779964 0.234071
P8    P     P_3+3 0.546821 0.390821 0.684399 0.497783
C15   C     C_3   0.517568 0.267829 0.762972 0.421723
H31   H     H_    0.398208 0.299832 0.773339 0.106330
O23   O     O_2   0.371705 0.419047 0.702900 -0.407140
O24   O     O_3   0.564284 0.275369 0.703857 -0.490127
H32   H     H_    0.613898 0.300446 0.792158 0.099419
H33   H     H_    0.616566 0.131185 0.768589 0.257150
C16   C     C_3   0.498013 0.165185 0.775387 -0.970795
H34   H     H_    0.406449 0.129820 0.745261 0.276096
H35   H     H_    0.456262 0.157746 0.821433 0.225054
H36   H     H_    0.989559 0.280158 0.057591 0.188593
H37   H     H_    0.904842 0.278746 0.956283 0.172041
C17   C     C_R   0.346674 0.523396 0.330024 -0.447929
C18   C     C_R   0.109791 0.579586 0.934355 -0.106681
C19   C     C_R   0.054001 0.575857 0.874962 0.510006
O25   O     O_2   0.071631 0.644037 0.845768 -0.604711
N1    N     N_R   0.976231 0.496013 0.849685 -0.160858
C20   C     C_R   0.947546 0.418692 0.882465 0.512494
O26   O     O_2   0.879877 0.348325 0.859960 -0.626226
C21   C     C_R   0.996785 0.419729 0.941622 -0.031462
C22   C     C_R   0.078221 0.500022 0.967735 -0.046907
C23   C     C_R   0.195650 0.659072 0.962164 0.196432
C24   C     C_R   0.243209 0.656821 0.021073 -0.155263
C25   C     C_R   0.210377 0.578703 0.054149 -0.067897
C26   C     C_R   0.128043 0.500124 0.027594 -0.019387
C27   C     C_R   0.966804 0.341363 0.975178 -0.131870
C28   C     C_R   0.015731 0.342077 0.033619 -0.099482
C29   C     C_R   0.096492 0.421194 0.060746 -0.056058
C30   C     C_R   0.146663 0.422700 0.120206 0.531970
N2    N     N_R   0.223514 0.501946 0.147042 -0.167250
C31   C     C_R   0.258840 0.578557 0.113525 0.512558
C32   C     C_2   0.766638 0.472369 0.772937 -0.256194
C33   C     C_3   0.714161 0.476783 0.709445 0.114273
C34   C     C_1   0.998082 0.517495 0.684619 0.302710
C35   C     C_2   0.045287 0.519045 0.740360 -0.191910
C36   C     C_2   0.924906 0.493972 0.788256 0.161463
C37   C     C_R   0.421398 0.544270 0.228496 -0.251875
C38   C     C_R   0.456439 0.557680 0.288390 0.165974
C39   C     C_R   0.200918 0.476255 0.313293 0.187853
C40   C     C_R   0.157609 0.470938 0.253153 -0.263106
C41   C     C_R   0.267834 0.504890 0.209539 0.151269
O27   O     O_2   0.124249 0.352598 0.147603 -0.569936
O28   O     O_2   0.332315 0.647592 0.135244 -0.599530
C42   C     C_2   0.860668 0.472669 0.668249 -0.425561
H38   H     H_    0.306364 0.717901 0.041579 0.192289
H39   H     H_    0.512875 0.566578 0.197025 0.169435
H40   H     H_    0.171205 0.538635 0.751714 0.170823
H41   H     H_    0.674350 0.460551 0.806601 0.131573
H42   H     H_    0.038394 0.441668 0.240460 0.173462
H43   H     H_    0.377375 0.530699 0.376054 0.170659
H44   H     H_    0.854921 0.431782 0.626753 0.168484
C43   C     C_R   0.697416 0.935454 0.530205 -0.136675
C44   C     C_R   0.513383 0.800748 0.496076 0.285287
C45   C     C_R   0.373067 0.768732 0.465292 -0.493692
C46   C     C_R   0.271647 0.830877 0.440079 0.226274
C47   C     C_R   0.319199 0.925028 0.439989 -0.330552
C48   C     C_R   0.461828 0.959035 0.469155 0.083231
C49   C     C_R   0.558988 0.897659 0.498930 0.006557
H45   H     H_    0.336581 0.695401 0.464468 0.167392
C50   C     C_R   0.643335 0.091725 0.500573 -0.001865
C51   C     C_R   0.742257 0.031039 0.530094 0.107110
C52   C     C_R   0.688643 0.187897 0.501466 0.236603
C53   C     C_R   0.829217 0.221900 0.531047 -0.365617
C54   C     C_R   0.931519 0.161932 0.557797 0.172401
C55   C     C_R   0.887728 0.066457 0.557629 -0.341796
C56   C     C_R   0.504638 0.054401 0.470014 -0.171824
H46   H     H_    0.244813 0.971591 0.417498 0.156461
H47   H     H_    0.967937 0.019851 0.577708 0.147778
H48   H     H_    0.863556 0.295419 0.530587 0.164911
H49   H     H_    0.772924 0.891642 0.554511 0.167630
H50   H     H_    0.427668 0.098784 0.446572 0.167769
C57   C     C_3   0.527376 0.861668 0.301800 -0.388056
C58   C     C_3   0.667194 0.932335 0.318286 -0.679930
H51   H     H_    0.760923 0.899912 0.344381 0.302161
H52   H     H_    0.725227 0.961012 0.278654 0.277536
H53   H     H_    0.617425 0.991436 0.345461 0.217486
H54   H     H_    0.433068 0.896829 0.277350 0.221688
H55   H     H_    0.469776 0.839001 0.343012 0.173560
C59   C     C_3   0.061652 0.097534 0.346856 -0.310401
C60   C     C_3   0.982147 0.103145 0.407798 -0.869361
H56   H     H_    0.028264 0.166291 0.433576 0.288934
H57   H     H_    0.846958 0.103486 0.404097 0.251405
H58   H     H_    0.010393 0.041534 0.432243 0.251746
H59   H     H_    0.043314 0.024315 0.329110 0.249818
H60   H     H_    0.196001 0.112871 0.350303 0.196748
N3    N     N_R   0.007885 0.127652 0.243962 0.250742
O29   O     O_R   0.882037 0.104770 0.210954 -0.358124
O30   O     O_R   0.155182 0.119152 0.222334 -0.333853
N4    N     N_R   0.136126 0.835814 0.219048 0.270358
O31   O     O_R   0.062867 0.910268 0.238365 -0.343566
O32   O     O_R   0.239889 0.841424 0.175619 -0.361792
C61   C     C_3   0.051178 0.062264 0.705581 -0.355983
C62   C     C_3   0.892486 0.007991 0.720078 -0.968826
H61   H     H_    0.799577 0.014453 0.685533 0.269473
H62   H     H_    0.918452 0.933168 0.722608 0.277279
H63   H     H_    0.843102 0.033348 0.763278 0.271804
H64   H     H_    0.106700 0.028018 0.665777 0.200688
H65   H     H_    0.139385 0.056857 0.741795 0.207198
C63   C     C_3   0.241605 0.748348 0.932104 -0.316587
C64   C     C_3   0.098483 0.813725 0.933116 -0.743488
H66   H     H_    0.133663 0.876501 0.908909 0.238675
H67   H     H_    0.987821 0.779147 0.912494 0.275486
H68   H     H_    0.067588 0.836330 0.979151 0.247750
H69   H     H_    0.345746 0.786651 0.955020 0.167561
H70   H     H_    0.289352 0.733853 0.886987 0.227458

loop_
_geom_bond_atom_site_label_1
_geom_bond_atom_site_label_2
_geom_bond_distance
_ccdc_geom_bond_type
O5    C6    1.407872 S    
C12   H25   1.108585 S    
C20   O26   1.221216 D    
C60   H57   1.107906 S    
C2    C3    1.523431 S    
N2    C41   1.473648 S    
C21   C22   1.412117 A    
C58   H53   1.110304 S    
C32   H41   1.084896 S    
O8    Ba1   2.702605 S    
C51   C55   1.412266 A    
C44   C45   1.398269 A    
C1    C10   1.531142 S    
C39   C40   1.418590 A    
C50   C51   1.416088 A    
C64   H67   1.109082 S    
C15   H31   1.111656 S    
C7    N3    1.463903 S    
P3    C46   1.837841 S    
C11   C12   1.521443 S    
N4    O31   1.299515 A    
C58   H52   1.108428 S    
O14   P8    1.741015 S    
P1    O1    1.505967 D    
C8    C9    1.522520 S    
C57   H54   1.110976 S    
O2    Ba2   2.745669 S    
C37   C41   1.415644 A    
C5    H10   1.107784 S    
C15   C16   1.519007 S    
C40   C41   1.426849 A    
P1    Ba1   3.380513 S    
C10   H20   1.103831 S    
C11   H23   1.110981 S    
C2    H3    1.109499 S    
Ba1   O20   2.896727 S    
C17   C38   1.394539 A    
O7    Ba1   2.875232 S    
C63   C64   1.528274 S    
C30   N2    1.390751 Am   
C1    H21   1.108329 S    
H37   C27   1.083356 S    
C62   H63   1.108491 S    
C57   H55   1.106182 S    
C57   C58   1.531124 S    
C1    H1    1.107450 S    
P5    O17   1.748352 S    
Ba1   O13   2.745075 S    
P3    O11   1.748164 S    
C32   C33   1.521629 S    
C4    C5    1.520119 S    
C13   H27   1.112065 S    
C43   C51   1.406396 A    
O6    P6    1.759849 S    
C9    H18   1.105668 S    
O16   P7    1.741448 S    
O10   C8    1.394588 S    
C61   H65   1.110838 S    
P4    C34   1.844076 S    
C62   H62   1.109086 S    
C12   H26   1.110065 S    
P2    Ba1   3.424430 S    
P8    C33   1.874654 S    
C3    N4    1.458397 S    
C3    H5    1.101824 S    
C31   O28   1.220639 D    
C60   H58   1.106679 S    
C33   C42   1.513275 S    
C44   C49   1.424064 A    
O6    C10   1.412128 S    
C14   H30   1.110598 S    
P2    O20   1.566615 S    
O19   C13   1.411181 S    
C37   C38   1.400807 A    
N3    O30   1.301931 A    
P4    O13   1.536358 S    
C23   C24   1.406499 A    
C64   H68   1.110999 S    
Ba2   O20   2.760555 S    
C9    H19   1.110640 S    
C50   C56   1.407456 A    
P7    O21   1.567005 D    
C4    O15   1.396422 S    
C27   C28   1.396334 A    
P8    O24   1.753352 S    
P4    O15   1.750549 S    
C4    H7    1.100527 S    
C14   H29   1.108538 S    
C61   C62   1.526483 S    
C5    H11   1.110400 S    
C48   C49   1.417165 A    
P6    C38   1.844366 S    
C12   H24   1.110605 S    
C26   C29   1.412131 A    
C35   C36   1.510015 S    
C18   C23   1.434749 A    
C11   H22   1.108239 S    
P1    O2    1.536360 S    
C7    H14   1.113771 S    
C6    H13   1.111701 S    
C6    C7    1.538043 S    
C59   H60   1.112268 S    
C8    H15   1.105071 S    
P2    O10   1.748858 S    
C19   N1    1.386884 Am   
C16   H34   1.109064 S    
P3    O9    1.545666 D    
C15   H32   1.107941 S    
P5    O18   1.546233 D    
O13   Ba2   2.918661 S    
O11   C2    1.404810 S    
O16   Ba2   2.895829 S    
C58   H51   1.108841 S    
C55   H47   1.079798 S    
O2    Ba1   2.917834 S    
C59   C60   1.527129 S    
C47   H46   1.077245 S    
C40   H42   1.079905 S    
C56   H50   1.080831 S    
C43   H49   1.079106 S    
O14   Ba2   2.742181 S    
C1    H2    1.110667 S    
C62   H61   1.110887 S    
C16   H35   1.110546 S    
P3    O8    1.738811 S    
O12   Ba2   2.805249 S    
H33   C16   1.107292 S    
C3    H6    1.102987 S    
O3    P6    1.748918 S    
P1    C39   1.874262 S    
Ba1   O16   2.761164 S    
C47   C48   1.403883 A    
H36   C28   1.083297 S    
C63   H70   1.108226 S    
C29   C30   1.421008 A    
P4    O12   1.506234 D    
C34   C42   1.316967 D    
C45   C46   1.394847 A    
N2    C31   1.394494 Am   
C15   O24   1.406629 S    
C48   C56   1.398759 A    
C50   C52   1.414309 A    
C25   C31   1.416494 A    
C9    H17   1.109296 S    
C23   C63   1.520220 S    
P1    O5    1.751105 S    
C32   C36   1.360985 D    
O4    P6    1.543979 D    
C43   C49   1.415848 A    
C4    H8    1.108860 S    
C14   H28   1.110516 S    
C13   C14   1.528564 S    
C54   C55   1.402674 A    
N1    C36   1.466491 S    
C24   H38   1.084245 S    
C61   H64   1.109084 S    
C52   C53   1.394602 A    
C30   O27   1.221862 D    
C25   C26   1.400405 A    
C7    C59   1.545443 S    
C6    H12   1.109474 S    
O17   Ba2   2.703434 S    
C10   C57   1.541395 S    
P5    C54   1.854740 S    
C46   C47   1.391598 A    
C59   H59   1.110051 S    
C8    H16   1.109019 S    
C64   H66   1.110346 S    
N3    O29   1.301064 A    
C13   C61   1.542180 S    
C35   H40   1.084684 S    
P2    O7    1.482243 D    
C19   O25   1.218615 D    
C11   O22   1.401320 S    
C18   C22   1.422698 A    
P5    O19   1.755842 S    
C22   C26   1.430092 A    
N4    O32   1.299845 A    
N1    C20   1.384921 Am   
P2    C44   1.847589 S    
C2    H4    1.104627 S    
Ba1   Ba2   4.539993 S    
C17   C39   1.390601 A    
C28   C29   1.405743 A    
P7    C52   1.836475 S    
O3    Ba1   2.742724 S    
C53   C54   1.394604 A    
C45   H45   1.081893 S    
C42   H44   1.085867 S    
P4    Ba2   3.381066 S    
C37   H39   1.081543 S    
P8    O23   1.549136 D    
Ba2   O21   2.875469 S    
C17   H43   1.081235 S    
C20   C21   1.412477 A    
C24   C25   1.403044 A    
C60   H56   1.107368 S    
O1    Ba1   2.804802 S    
C53   H48   1.081958 S    
P7    O22   1.750031 S    
C18   C19   1.432613 A    
C34   C35   1.332458 D    
C63   H69   1.112410 S    
C21   C27   1.409076 A    
C5    H9    1.110637 S    
