data_mof_unit_34359.cif
_audit_creation_date              2012-12-11T16:51:18-0500
_audit_creation_method            fapswitch 2.2
_symmetry_space_group_name_H-M    P1
_symmetry_Int_Tables_number       1
_space_group_crystal_system       monoclinic
_cell_length_a                    24.748901
_cell_length_b                    17.234939
_cell_length_c                    15.62445
_cell_angle_alpha                 90.0
_cell_angle_beta                  130.036976
_cell_angle_gamma                 90.0
_cell_volume                      5102.57084038

loop_
_atom_site_label
_atom_site_type_symbol
_atom_type_description
_atom_site_fract_x
_atom_site_fract_y
_atom_site_fract_z
_atom_type_partial_charge
C1    C     C_R   0.832625 0.888610 0.200727 -0.039133
C2    C     C_R   0.167375 0.888610 0.799273 -0.039127
C3    C     C_R   0.332625 0.388610 0.200728 -0.039132
C4    C     C_R   0.667375 0.388610 0.799272 -0.039138
C5    C     C_R   0.885900 0.100662 0.592613 -0.099475
C6    C     C_R   0.114100 0.100663 0.407386 -0.099466
C7    C     C_R   0.385901 0.600665 0.592614 -0.099457
C8    C     C_R   0.614100 0.600664 0.407387 -0.099468
C9    C     C_R   0.817111 0.112103 0.499911 0.049796
C10   C     C_R   0.182888 0.112106 0.500088 0.049767
C11   C     C_R   0.317113 0.612110 0.499912 0.049798
C12   C     C_R   0.682888 0.612107 0.500088 0.049827
C13   C     C_R   0.877811 0.178249 0.197822 -0.044022
C14   C     C_R   0.122189 0.178249 0.802177 -0.044023
C15   C     C_R   0.377812 0.678250 0.197825 -0.044026
C16   C     C_R   0.622188 0.678250 0.802176 -0.044025
C17   C     C_R   0.795868 0.774837 0.563776 0.143593
C18   C     C_R   0.204128 0.774836 0.436222 0.143580
C19   C     C_R   0.295868 0.274836 0.563779 0.143588
C20   C     C_R   0.704134 0.274836 0.436222 0.143600
C21   C     C_R   0.815780 0.759730 0.500030 0.006801
C22   C     C_R   0.184217 0.759728 0.499968 0.006803
C23   C     C_R   0.315777 0.259732 0.500029 0.006797
C24   C     C_R   0.684225 0.259734 0.499972 0.006794
C25   C     C_R   0.798084 0.688062 0.442918 -0.088393
C26   C     C_R   0.201915 0.688061 0.557083 -0.088375
C27   C     C_R   0.298079 0.188067 0.442910 -0.088393
C28   C     C_R   0.701920 0.188068 0.557088 -0.088413
C29   C     C_R   0.254526 0.136585 0.444175 -0.159786
C30   C     C_R   0.745472 0.136584 0.555822 -0.159778
C31   C     C_R   0.754531 0.636582 0.444183 -0.159752
C32   C     C_R   0.245471 0.636582 0.555820 -0.159761
C33   C     C_R   0.231641 0.156920 0.502971 0.118792
C34   C     C_R   0.768359 0.156918 0.497027 0.118783
C35   C     C_R   0.731641 0.656920 0.502972 0.118787
C36   C     C_R   0.268360 0.656922 0.497030 0.118797
C37   C     C_R   0.254856 0.224360 0.565141 0.080877
C38   C     C_R   0.745145 0.224359 0.434859 0.080863
C39   C     C_R   0.754854 0.724363 0.565137 0.080856
C40   C     C_R   0.245145 0.724364 0.434864 0.080871
C41   C     C_3   0.718524 0.785618 0.580584 -0.465452
C42   C     C_3   0.281476 0.785622 0.419423 -0.465427
C43   C     C_3   0.218527 0.285613 0.580594 -0.465468
C44   C     C_3   0.781472 0.285608 0.419400 -0.465493
C45   C     C_R   0.091701 0.859983 0.407887 0.514310
C46   C     C_R   0.908297 0.859984 0.592112 0.514312
C47   C     C_R   0.591707 0.359987 0.407888 0.514311
C48   C     C_R   0.408295 0.359986 0.592112 0.514310
C49   C     C_3   0.765167 0.844264 0.579382 0.309982
C50   C     C_3   0.234831 0.844265 0.420624 0.309976
C51   C     C_3   0.265170 0.344261 0.579393 0.309989
C52   C     C_3   0.734831 0.344259 0.420599 0.309997
C53   C     C_2   0.197188 0.835563 0.976638 -0.180067
C54   C     C_2   0.802812 0.835563 0.023361 -0.180065
C55   C     C_2   0.697187 0.335561 0.976637 -0.180060
C56   C     C_2   0.302813 0.335561 0.023363 -0.180063
C57   C     C_2   0.266177 0.857615 0.048737 0.686270
C58   C     C_2   0.733823 0.857615 0.951263 0.686268
C59   C     C_2   0.766176 0.357614 0.048736 0.686266
C60   C     C_2   0.233824 0.357614 0.951264 0.686267
C61   C     C_2   0.844191 0.245109 0.120766 0.402586
C62   C     C_2   0.155809 0.245109 0.879232 0.402585
C63   C     C_2   0.344192 0.745111 0.120770 0.402588
C64   C     C_2   0.655808 0.745110 0.879231 0.402589
C65   C     C_2   0.820302 0.306243 0.142696 -0.262847
C66   C     C_2   0.179698 0.306243 0.857303 -0.262848
C67   C     C_2   0.320302 0.806244 0.142699 -0.262850
C68   C     C_2   0.679697 0.806244 0.857302 -0.262849
C69   C     C_R   0.165734 0.858858 0.593782 -0.181772
C70   C     C_R   0.834265 0.858859 0.406217 -0.181728
C71   C     C_R   0.665737 0.358861 0.593783 -0.181652
C72   C     C_R   0.334263 0.358860 0.406217 -0.181701
C73   C     C_R   0.079402 0.891225 0.804172 -0.105591
C74   C     C_R   0.920598 0.891225 0.195827 -0.105583
C75   C     C_R   0.579402 0.391224 0.804172 -0.105592
C76   C     C_R   0.420599 0.391224 0.195829 -0.105600
C77   C     C_R   0.850993 0.868400 0.137153 0.049588
C78   C     C_R   0.149007 0.868399 0.862846 0.049589
C79   C     C_R   0.350994 0.368398 0.137155 0.049593
C80   C     C_R   0.649007 0.368398 0.862846 0.049593
C81   C     C_R   0.144081 0.818094 0.500621 -0.058148
C82   C     C_R   0.855916 0.818096 0.499379 -0.058129
C83   C     C_R   0.644089 0.318100 0.500622 -0.058093
C84   C     C_R   0.355914 0.318098 0.499378 -0.058112
C85   C     C_R   0.810397 0.096436 0.407444 -0.134405
C86   C     C_R   0.189602 0.096438 0.592556 -0.134405
C87   C     C_R   0.310398 0.596441 0.407444 -0.134410
C88   C     C_R   0.689602 0.596439 0.592556 -0.134411
C89   C     C_R   0.937505 0.137114 0.232984 -0.091822
C90   C     C_R   0.062495 0.137114 0.767016 -0.091820
C91   C     C_R   0.437505 0.637115 0.232986 -0.091819
C92   C     C_R   0.562495 0.637114 0.767015 -0.091821
C93   C     C_R   0.151598 0.139124 0.763448 -0.139019
C94   C     C_R   0.848402 0.139124 0.236552 -0.139020
C95   C     C_R   0.651597 0.639124 0.763447 -0.139020
C96   C     C_R   0.348403 0.639124 0.236553 -0.139017
H1    H     H_    0.780051 0.888305 0.173870 0.154612
H2    H     H_    0.219949 0.888305 0.826130 0.154612
H3    H     H_    0.280051 0.388305 0.173870 0.154610
H4    H     H_    0.719949 0.388305 0.826130 0.154610
H5    H     H_    0.237000 0.082592 0.397863 0.171626
H6    H     H_    0.762996 0.082590 0.602132 0.171623
H7    H     H_    0.737007 0.582586 0.397877 0.171607
H8    H     H_    0.262996 0.582587 0.602127 0.171611
H9    H     H_    0.732121 0.779682 0.663314 0.206275
H10   H     H_    0.267880 0.779689 0.336693 0.206267
H11   H     H_    0.232126 0.279674 0.663324 0.206282
H12   H     H_    0.767873 0.279666 0.336669 0.206289
H13   H     H_    0.209968 0.845734 0.679852 0.158573
H14   H     H_    0.790031 0.845735 0.320147 0.158562
H15   H     H_    0.709971 0.345738 0.679853 0.158540
H16   H     H_    0.290029 0.345737 0.320147 0.158552
H17   H     H_    0.055214 0.895998 0.841622 0.134832
H18   H     H_    0.944785 0.895999 0.158377 0.134830
H19   H     H_    0.555214 0.395997 0.841622 0.134834
H20   H     H_    0.444786 0.395996 0.158379 0.134835
H21   H     H_    0.971728 0.150234 0.214456 0.129629
H22   H     H_    0.028272 0.150234 0.785543 0.129628
H23   H     H_    0.471729 0.650235 0.214458 0.129632
H24   H     H_    0.528272 0.650235 0.785543 0.129634
H25   H     H_    0.199300 0.154443 0.778628 0.135097
H26   H     H_    0.800700 0.154443 0.221371 0.135095
H27   H     H_    0.699300 0.654443 0.778628 0.135091
H28   H     H_    0.300700 0.654443 0.221372 0.135093
H29   H     H_    0.908122 0.102572 0.678980 0.126542
H30   H     H_    0.091877 0.102573 0.321020 0.126545
H31   H     H_    0.408123 0.602574 0.678980 0.126548
H32   H     H_    0.591877 0.602573 0.321020 0.126545
N1    N     N_R   0.888400 0.921830 0.294620 -0.062232
N2    N     N_R   0.111600 0.921830 0.705380 -0.062230
N3    N     N_R   0.388400 0.421830 0.294620 -0.062233
N4    N     N_R   0.611600 0.421830 0.705380 -0.062236
N5    N     N_R   0.079940 0.922160 0.443410 -0.107793
N6    N     N_R   0.920060 0.922160 0.556590 -0.107792
N7    N     N_R   0.579940 0.422160 0.443410 -0.107793
N8    N     N_R   0.420060 0.422160 0.556590 -0.107794
N9    N     N_R   0.125650 0.922400 0.556620 -0.073902
N10   N     N_R   0.874350 0.922400 0.443380 -0.073901
N11   N     N_R   0.625650 0.422400 0.556620 -0.073898
N12   N     N_R   0.374350 0.422400 0.443380 -0.073899
N13   N     N_R   0.054230 0.922730 0.705400 -0.055874
N14   N     N_R   0.945770 0.922730 0.294600 -0.055874
N15   N     N_R   0.554230 0.422730 0.705400 -0.055876
N16   N     N_R   0.445770 0.422730 0.294600 -0.055877
N17   N     N_R   0.873790 0.077030 0.443380 -0.078629
N18   N     N_R   0.126210 0.077030 0.556620 -0.078627
N19   N     N_R   0.373790 0.577030 0.443380 -0.078628
N20   N     N_R   0.626210 0.577030 0.556620 -0.078631
N21   N     N_R   0.945200 0.076700 0.294600 -0.040886
N22   N     N_R   0.054800 0.076700 0.705400 -0.040885
N23   N     N_R   0.445200 0.576700 0.294600 -0.040886
N24   N     N_R   0.554800 0.576700 0.705400 -0.040886
N25   N     N_R   0.111030 0.077600 0.705380 -0.043033
N26   N     N_R   0.888970 0.077600 0.294620 -0.043034
N27   N     N_R   0.611030 0.577600 0.705380 -0.043034
N28   N     N_R   0.388970 0.577600 0.294620 -0.043033
N29   N     N_R   0.919490 0.077280 0.556590 -0.056635
N30   N     N_R   0.080510 0.077280 0.443410 -0.056635
N31   N     N_R   0.419490 0.577280 0.556590 -0.056638
N32   N     N_R   0.580510 0.577280 0.443410 -0.056637
Ni1   Ni    Ni4+2 0.882160 0.999430 0.370180 0.217491
Ni2   Ni    Ni4+2 0.117840 0.999430 0.629820 0.217486
Ni3   Ni    Ni4+2 0.382160 0.499430 0.370180 0.217493
Ni4   Ni    Ni4+2 0.617840 0.499430 0.629820 0.217499
Ni5   Ni    Ni4+2 0.012460 0.999430 0.370180 0.207646
Ni6   Ni    Ni4+2 0.987540 0.999430 0.629820 0.207648
Ni7   Ni    Ni4+2 0.512460 0.499430 0.370180 0.207650
Ni8   Ni    Ni4+2 0.487540 0.499430 0.629820 0.207647
C97   C     C_2   0.639639 0.791528 0.485834 0.553751
H33   H     H_    0.605460 0.805072 0.504576 0.032903
O1    O     O_2   0.613716 0.782728 0.388483 -0.551631
C98   C     C_2   0.360361 0.791535 0.514174 0.553800
H34   H     H_    0.394539 0.805091 0.495434 0.032895
O2    O     O_2   0.386284 0.782723 0.611523 -0.551611
C99   C     C_2   0.139642 0.291524 0.485845 0.553732
H35   H     H_    0.105462 0.305059 0.504589 0.032907
O3    O     O_2   0.113719 0.282732 0.388492 -0.551646
C100  C     C_2   0.860358 0.291519 0.514147 0.553681
H36   H     H_    0.894538 0.305044 0.495403 0.032919
O4    O     O_2   0.886280 0.282737 0.611501 -0.551668
C101  C     C_2   0.726010 0.903371 0.485686 0.617403
H37   H     H_    0.709351 0.957389 0.497991 0.032244
O5    O     O_2   0.710697 0.890875 0.395472 -0.572822
C102  C     C_2   0.273984 0.903369 0.514325 0.617337
H38   H     H_    0.290618 0.957403 0.502013 0.032247
O6    O     O_2   0.289323 0.890850 0.604553 -0.572785
C103  C     C_2   0.226010 0.403373 0.485703 0.617441
H39   H     H_    0.209337 0.457379 0.498005 0.032244
O7    O     O_2   0.210712 0.390892 0.395497 -0.572852
C104  C     C_2   0.773993 0.403376 0.514282 0.617505
H40   H     H_    0.790690 0.457365 0.501987 0.032242
O8    O     O_2   0.789265 0.390919 0.604473 -0.572893
O9    O     O_3   0.814488 0.881263 0.683369 -0.733283
H41   H     H_    0.840642 0.841109 0.742839 0.372717
O10   O     O_3   0.185512 0.881268 0.316638 -0.733293
H42   H     H_    0.159359 0.841116 0.257166 0.372716
O11   O     O_3   0.314493 0.381256 0.683383 -0.733271
H43   H     H_    0.340647 0.341100 0.742849 0.372717
O12   O     O_3   0.685506 0.381250 0.316606 -0.733259
H44   H     H_    0.659351 0.341091 0.257144 0.372718
C105  C     C_2   0.845986 0.323794 0.256583 0.521469
H45   H     H_    0.887081 0.288990 0.327790 -0.017596
O13   O     O_2   0.822045 0.378758 0.272048 -0.533479
C106  C     C_2   0.154015 0.323793 0.743417 0.521470
H46   H     H_    0.112922 0.288989 0.672210 -0.017594
O14   O     O_2   0.177956 0.378758 0.727952 -0.533478
C107  C     C_2   0.345983 0.823793 0.256584 0.521474
H47   H     H_    0.387075 0.788987 0.327791 -0.017594
O15   O     O_2   0.322043 0.878759 0.272048 -0.533482
C108  C     C_2   0.654016 0.823793 0.743416 0.521471
H48   H     H_    0.612923 0.788988 0.672209 -0.017595
O16   O     O_2   0.677956 0.878759 0.727951 -0.533481
O17   O     O_3   0.287137 0.924334 0.027995 -0.745450
H49   H     H_    0.339000 0.929568 0.087246 0.336093
O18   O     O_3   0.712862 0.924335 0.972005 -0.745450
H50   H     H_    0.661000 0.929568 0.912755 0.336093
O19   O     O_3   0.787136 0.424335 0.027994 -0.745451
H51   H     H_    0.838999 0.429568 0.087244 0.336091
O20   O     O_3   0.212864 0.424335 0.972005 -0.745451
H52   H     H_    0.161002 0.429568 0.912755 0.336091
O21   O     O_3   0.828092 0.241065 0.018062 -0.732054
H53   H     H_    0.845816 0.190979 0.013471 0.340850
O22   O     O_3   0.171906 0.241067 0.981936 -0.732052
H54   H     H_    0.154182 0.190980 0.986527 0.340850
O23   O     O_3   0.328096 0.741069 0.018068 -0.732047
H55   H     H_    0.345820 0.690983 0.013476 0.340850
O24   O     O_3   0.671905 0.741068 0.981934 -0.732049
H56   H     H_    0.654181 0.690982 0.986526 0.340850
C109  C     C_2   0.167560 0.773616 0.002326 0.492172
H57   H     H_    0.117851 0.746452 0.934507 0.068023
O25   O     O_2   0.196127 0.754502 0.098180 -0.598584
C110  C     C_2   0.832440 0.773616 0.997673 0.492174
H58   H     H_    0.882149 0.746452 0.065493 0.068024
O26   O     O_2   0.803873 0.754502 0.901819 -0.598588
C111  C     C_2   0.667560 0.273614 0.002325 0.492179
H59   H     H_    0.617851 0.246450 0.934506 0.068021
O27   O     O_2   0.696127 0.254500 0.098179 -0.598591
C112  C     C_2   0.332440 0.273614 0.997676 0.492177
H60   H     H_    0.382149 0.246449 0.065495 0.068020
O28   O     O_2   0.303873 0.254499 0.901822 -0.598588
O29   O     O_3   0.068275 0.849516 0.301827 -0.755705
H61   H     H_    0.058126 0.902111 0.268977 0.317469
O30   O     O_3   0.931722 0.849519 0.698173 -0.755704
H62   H     H_    0.941873 0.902114 0.731023 0.317469
O31   O     O_3   0.568281 0.349523 0.301827 -0.755702
H63   H     H_    0.558127 0.402118 0.268976 0.317470
O32   O     O_3   0.431721 0.349520 0.698173 -0.755703
H64   H     H_    0.441873 0.402116 0.731024 0.317470
C113  C     C_2   0.744289 0.076862 0.294940 0.596722
H65   H     H_    0.746487 0.049467 0.234750 0.014068
O33   O     O_2   0.686845 0.089276 0.268982 -0.539173
C114  C     C_2   0.255711 0.076864 0.705060 0.596688
H66   H     H_    0.253514 0.049468 0.765250 0.014078
O34   O     O_2   0.313155 0.089279 0.731017 -0.539176
C115  C     C_2   0.244289 0.576868 0.294940 0.596750
H67   H     H_    0.246485 0.549470 0.234750 0.014060
O35   O     O_2   0.186845 0.589287 0.268982 -0.539175
C116  C     C_2   0.755711 0.576866 0.705061 0.596788
H68   H     H_    0.753514 0.549469 0.765250 0.014049
O36   O     O_2   0.813155 0.589284 0.731019 -0.539171
C117  C     C_2   0.823199 0.667369 0.381439 0.586908
H69   H     H_    0.858947 0.705327 0.383465 -0.002783
O37   O     O_2   0.804550 0.607122 0.328054 -0.536320
C118  C     C_2   0.176801 0.667367 0.618563 0.586908
H70   H     H_    0.141053 0.705324 0.616537 -0.002779
O38   O     O_2   0.195453 0.607121 0.671950 -0.536317
C119  C     C_2   0.323191 0.167376 0.381427 0.586916
H71   H     H_    0.358941 0.205333 0.383455 -0.002792
O39   O     O_2   0.304538 0.107132 0.328035 -0.536312
C120  C     C_2   0.676807 0.167377 0.618570 0.586916
H72   H     H_    0.641058 0.205336 0.616542 -0.002796
O40   O     O_2   0.695458 0.107133 0.671960 -0.536315

loop_
_geom_bond_atom_site_label_1
_geom_bond_atom_site_label_2
_ccdc_geom_bond_type
C20   C38   A    
C25   C31   A    
C115  O35   D    
C26   C32   A    
C104  H40   S    
C75   N15   A    
C55   C59   D    
C27   C29   A    
C15   C91   A    
C1    C77   A    
C105  H45   S    
N26   Ni1   S    
C116  O36   D    
O22   H54   S    
C42   C50   S    
C76   C79   A    
C90   N22   A    
C68   C108  S    
C45   C81   A    
C72   H16   S    
C100  H36   S    
C39   C41   S    
C73   N13   A    
C101  H37   S    
N31   Ni8   S    
N12   Ni3   S    
N5    N9    A    
N18   Ni2   S    
N13   Ni6   S    
O21   H53   S    
C56   C79   S    
C41   H9    S    
C52   C104  S    
C3    N3    A    
C64   C68   D    
C56   C112  S    
C11   C36   S    
C24   C83   S    
C85   N17   A    
N2    Ni2   S    
C4    C80   A    
C48   O32   S    
C1    N1    A    
N20   N32   A    
N9    Ni2   S    
C26   C118  S    
O30   H62   S    
C74   H18   S    
C3    H3    S    
C29   C33   A    
C96   N28   A    
C73   H17   S    
C102  H38   S    
N23   N28   A    
O29   H61   S    
C97   H33   S    
N32   Ni7   S    
C41   C49   S    
N2    N13   A    
C18   C40   A    
C14   C90   A    
C70   H14   S    
C19   C37   A    
C9    C85   A    
C46   C82   A    
C43   C99   S    
C8    H32   S    
C27   C119  S    
O24   H56   S    
N28   Ni3   S    
C11   C87   A    
C118  H70   S    
N22   N25   A    
C71   H15   S    
C111  O27   D    
C111  H59   S    
C32   H8    S    
C47   C83   A    
C8    C12   A    
N10   Ni1   S    
C51   O11   S    
C75   C80   A    
C14   C93   A    
C71   C83   A    
O9    H41   S    
N8    N12   A    
C54   C77   S    
C47   N7    A    
C58   O18   S    
C44   C52   S    
N4    N15   A    
C87   C115  S    
C74   N14   A    
C3    C79   A    
O12   H44   S    
C34   C38   A    
O31   H63   S    
C86   C114  S    
C105  O13   D    
C42   C98   S    
C17   C49   S    
C69   H13   S    
C46   O30   S    
C57   C67   S    
N7    Ni7   S    
C86   N18   A    
C54   C110  S    
C6    N30   A    
C98   O2    D    
C7    C11   A    
C112  O28   D    
C44   H12   S    
C69   N9    A    
C53   C78   S    
C5    N29   A    
C63   C67   D    
C89   N21   A    
C113  O33   D    
N22   Ni6   S    
C28   C120  S    
C23   C84   S    
C30   C34   A    
N16   Ni7   S    
N1    Ni1   S    
C107  H47   S    
N20   Ni4   S    
C22   C81   S    
C20   C24   A    
C36   C40   A    
N21   Ni5   S    
C6    H30   S    
C99   O3    D    
C59   O19   S    
C101  O5    D    
C44   C100  S    
O20   H52   S    
C117  O37   D    
C62   C66   D    
C71   N11   A    
N1    N14   A    
C63   O23   S    
O19   H51   S    
O17   H49   S    
C45   O29   S    
C41   C97   S    
C74   C77   A    
C17   C21   A    
C48   C84   A    
C49   O9    S    
C31   H7    S    
C37   C43   S    
C19   C23   A    
N21   N26   A    
N4    Ni4   S    
C38   C44   S    
C109  H57   S    
C2    C78   A    
N5    Ni5   S    
C4    N4    A    
C46   N6    A    
C25   C117  S    
C50   O10   S    
C61   O21   S    
C99   H35   S    
C61   C65   D    
N24   N27   A    
N3    Ni3   S    
C73   C78   A    
C12   C88   A    
C76   H20   S    
C30   H6    S    
C93   H25   S    
N6    Ni6   S    
O23   H55   S    
C113  H65   S    
C13   C61   S    
C52   O12   S    
C43   H11   S    
C62   O22   S    
C21   C82   S    
C12   C35   S    
C42   H10   S    
C72   C84   A    
C87   N19   A    
C29   H5    S    
C69   C81   A    
C49   C101  S    
C94   H26   S    
C96   H28   S    
C58   C68   S    
C17   C39   A    
C57   O17   S    
C89   H21   S    
C23   C27   A    
C4    H4    S    
C9    C34   S    
C15   C96   A    
C120  O40   D    
C60   O20   S    
C16   C92   A    
C75   H19   S    
N24   Ni8   S    
C72   N12   A    
C1    H1    S    
C115  H67   S    
C8    N32   A    
C90   H22   S    
C47   O31   S    
C67   C107  S    
C98   H34   S    
C18   C50   S    
C114  O34   D    
N19   N31   A    
C54   C58   D    
C95   H27   S    
C21   C25   A    
C112  H60   S    
N11   Ni4   S    
C16   C95   A    
C104  O8    D    
C65   C105  S    
C13   C89   A    
C110  O26   D    
C18   C22   A    
C45   N5    A    
C48   N8    A    
C50   C102  S    
C24   C28   A    
C106  O14   D    
C76   N16   A    
C53   C57   D    
N29   Ni6   S    
N6    N10   A    
C100  O4    D    
O32   H64   S    
C32   C36   A    
C70   N10   A    
N18   N30   A    
C91   H23   S    
C88   C116  S    
N27   Ni4   S    
N8    Ni8   S    
N17   N29   A    
N25   Ni2   S    
C85   C113  S    
C13   C94   A    
C20   C52   S    
C119  H71   S    
C108  O16   D    
C93   N25   A    
C116  H68   S    
C92   H24   S    
C66   C106  S    
C28   C30   A    
C109  O25   D    
N19   Ni3   S    
C59   C65   S    
N14   Ni5   S    
C91   N23   A    
C55   C80   S    
C88   N20   A    
C10   C86   A    
C117  H69   S    
C94   N26   A    
N17   Ni1   S    
C43   C51   S    
C19   C51   S    
N23   Ni7   S    
C35   C39   A    
C31   C35   A    
C40   C42   S    
C110  H58   S    
C2    N2    A    
C102  O6    D    
N7    N11   A    
C10   C33   S    
C95   N27   A    
C55   C111  S    
O18   H50   S    
O11   H43   S    
C70   C82   A    
C33   C37   A    
N15   Ni8   S    
C103  O7    D    
C51   C103  S    
C6    C10   A    
C60   C66   S    
O10   H42   S    
C56   C60   D    
C92   N24   A    
C103  H39   S    
C7    N31   A    
C106  H46   S    
C2    H2    S    
C118  O38   D    
C108  H48   S    
C22   C26   A    
C5    H29   S    
C107  O15   D    
C15   C63   S    
C120  H72   S    
C5    C9    A    
C16   C64   S    
C7    H31   S    
C64   O24   S    
N3    N16   A    
C119  O39   D    
N30   Ni5   S    
C53   C109  S    
C114  H66   S    
C97   O1    D    
C14   C62   S    
