data_mof_unit_16855.cif
_audit_creation_date              2012-12-11T14:08:22-0500
_audit_creation_method            fapswitch 2.2
_symmetry_space_group_name_H-M    P1
_symmetry_Int_Tables_number       1
_space_group_crystal_system       triclinic
_cell_length_a                    11.063221
_cell_length_b                    11.211154
_cell_length_c                    18.716159
_cell_angle_alpha                 89.477723
_cell_angle_beta                  88.553392
_cell_angle_gamma                 60.037808
_cell_volume                      2010.49327238

loop_
_atom_site_label
_atom_site_type_symbol
_atom_type_description
_atom_site_fract_x
_atom_site_fract_y
_atom_site_fract_z
_atom_type_partial_charge
C1    C     C_R   0.237322 0.644217 0.609275 0.528494
C2    C     C_3   0.696882 0.529453 0.814848 0.252789
C3    C     C_3   0.692416 0.670596 0.814112 0.005077
C4    C     C_3   0.646280 0.618259 0.684563 -0.045071
C5    C     C_3   0.767046 0.650892 0.683500 -0.155101
C6    C     C_3   0.676411 0.494205 0.736561 0.387336
C7    C     C_2   0.653942 0.176950 0.675345 0.227980
C8    C     C_2   0.691582 0.182385 0.833536 0.026644
C9    C     C_2   0.797440 0.143004 0.784095 0.296364
C10   C     C_2   0.779532 0.134608 0.705015 0.281568
C11   C     C_2   0.180551 0.657887 0.682993 -0.150718
C12   C     C_R   0.627595 0.589196 0.609537 0.502613
C13   C     C_2   0.203975 0.648893 0.842419 0.308695
C14   C     C_2   0.206756 0.544723 0.803840 0.141871
C15   C     C_2   0.222140 0.543882 0.724000 -0.146785
C16   C     C_2   0.653710 0.645097 0.317670 -0.111214
C17   C     C_2   0.627423 0.664893 0.157836 0.233395
C18   C     C_2   0.704717 0.549949 0.195866 -0.146723
C19   C     C_2   0.684867 0.540486 0.272404 -0.142160
C20   C     C_2   0.678255 0.146441 0.332924 0.285868
C21   C     C_2   0.639726 0.159836 0.174793 0.257666
C22   C     C_2   0.621046 0.077962 0.221484 -0.106455
C23   C     C_R   0.625663 0.228977 0.601793 0.494612
C24   C     C_2   0.600715 0.106432 0.297291 -0.131100
C25   C     C_2   0.129499 0.679593 0.343903 -0.039281
C26   C     C_2   0.123056 0.683547 0.187601 -0.105117
C27   C     C_2   0.045380 0.789100 0.232089 -0.164403
C28   C     C_2   0.087927 0.792028 0.304390 0.207577
C29   C     C_R   0.703882 0.105496 0.899411 0.532139
C30   C     C_R   0.730641 0.693739 0.885890 0.550846
C31   C     C_R   0.119544 0.704719 0.908109 0.617552
C32   C     C_R   0.672562 0.109551 0.102531 0.510823
C33   C     C_R   0.691834 0.689396 0.094690 0.610043
C34   C     C_R   0.219361 0.650299 0.403915 0.578239
C35   C     C_R   0.089965 0.710857 0.113363 0.556708
C36   C     C_R   0.642428 0.620359 0.392968 0.547894
C37   C     C_R   0.621092 0.225932 0.397112 0.603116
C38   C     C_3   0.541697 0.787307 0.788456 0.349584
C39   C     C_3   0.515852 0.747451 0.713323 -0.221668
C40   C     C_3   0.809857 0.655345 0.758926 -0.015354
Cr1   Cr    Cr6+3 0.393010 0.398050 0.501480 1.038711
Cr2   Cr    Cr6+3 0.398820 0.707980 0.501630 1.076473
Cr3   Cr    Cr6+3 0.708140 0.393940 0.496850 1.072708
Cr4   Cr    Cr6+3 0.937950 0.938450 0.008940 1.129131
Cr5   Cr    Cr6+3 0.626180 0.937030 0.994750 1.170035
Cr6   Cr    Cr6+3 0.937790 0.625760 0.001410 1.123293
H1    H     H_    0.860678 0.574525 0.652321 0.227476
H2    H     H_    0.585486 0.247022 0.819778 0.247186
H3    H     H_    0.276076 0.444491 0.698181 0.185113
H4    H     H_    0.123793 0.759925 0.706549 0.191231
H5    H     H_    0.798593 0.463995 0.172703 0.151712
H6    H     H_    0.710737 0.439444 0.292662 0.215967
H7    H     H_    0.627872 0.747039 0.299150 0.128204
H8    H     H_    0.619312 0.986793 0.203475 0.122705
H9    H     H_    0.510719 0.107236 0.322458 0.132060
H10   H     H_    0.960387 0.883237 0.211276 0.124564
H11   H     H_    0.423922 0.734423 0.711744 0.145147
H12   H     H_    0.210496 0.586577 0.204783 0.110297
H13   H     H_    0.113842 0.596649 0.325261 0.068773
H14   H     H_    0.490382 0.830096 0.674137 0.195274
H15   H     H_    0.834965 0.738592 0.760516 0.144463
H16   H     H_    0.733145 0.751823 0.656958 0.129299
H17   H     H_    0.804903 0.449728 0.828512 0.248970
O1    O     O_R   0.507110 0.256280 0.580300 -0.519026
O2    O     O_R   0.524640 0.695370 0.425100 -0.481727
O3    O     O_R   0.735890 0.504390 0.415980 -0.496386
O4    O     O_R   0.690560 0.277820 0.422350 -0.452341
O5    O     O_3   0.499990 0.499990 0.499980 -0.304243
O6    O     O_R   0.089190 0.825870 0.932320 -0.402423
O7    O     O_R   0.819070 0.053960 0.931440 -0.459387
O8    O     O_R   0.607070 0.076440 0.916460 -0.428019
O9    O     O_R   0.647110 0.806550 0.917690 -0.439396
O10   O     O_R   0.837080 0.593860 0.915300 -0.471630
O11   O     O_R   0.064770 0.636080 0.932550 -0.515353
O12   O     O_R   0.280830 0.527190 0.577940 -0.506149
O13   O     O_R   0.068250 0.829200 0.092940 -0.494385
O14   O     O_R   0.799650 0.057040 0.080330 -0.518646
O15   O     O_R   0.586130 0.079760 0.077080 -0.506462
O16   O     O_R   0.627700 0.809630 0.066580 -0.447432
O17   O     O_R   0.816140 0.597180 0.075920 -0.528094
O18   O     O_R   0.045360 0.639170 0.081440 -0.491065
O19   O     O_3   0.833980 0.833750 0.001700 -0.346213
O20   O     O_R   0.261360 0.738990 0.584270 -0.495596
O21   O     O_R   0.532590 0.694780 0.574370 -0.507335
O22   O     O_R   0.744470 0.503750 0.577000 -0.516566
O23   O     O_R   0.698520 0.277230 0.571620 -0.536602
O24   O     O_R   0.498530 0.256920 0.419280 -0.542121
O25   O     O_R   0.272880 0.527780 0.428680 -0.514101
O26   O     O_R   0.252780 0.739630 0.423250 -0.431348
S1    S     S_3+6 0.515332 0.959597 0.783554 0.051583
O27   O     O_2   0.424857 0.035334 0.721666 -0.267207
O28   O     O_2   0.438241 0.035995 0.850183 -0.128913
O29   O     O_3   0.666209 0.958437 0.773817 -0.551427
H18   H     H_    0.715492 0.920121 0.818675 0.307454
O30   O     O_3   0.802888 0.378662 0.715108 -0.611127
H19   H     H_    0.790616 0.347375 0.668438 0.376500
O31   O     O_3   0.935159 0.534047 0.770150 -0.695975
H20   H     H_    0.976298 0.556952 0.809685 0.357598
S2    S     S_3+6 0.967562 0.100806 0.809529 0.112641
O32   O     O_2   0.970614 0.155259 0.882081 -0.188194
O33   O     O_2   0.050068 0.947985 0.809026 -0.287016
O34   O     O_3   0.042527 0.158504 0.749896 -0.410994
H21   H     H_    0.144263 0.096212 0.754598 0.384225
O35   O     O_3   0.899141 0.084780 0.662033 -0.644745
H22   H     H_    0.885625 0.047240 0.617050 0.318247
O36   O     O_3   0.542543 0.193759 0.717563 -0.626972
H23   H     H_    0.454692 0.234449 0.691561 0.389987
S3    S     S_3+6 0.236771 0.386926 0.845339 0.083449
O37   O     O_2   0.365566 0.329031 0.888894 -0.195565
O38   O     O_2   0.120900 0.399844 0.894121 -0.222315
O39   O     O_3   0.258966 0.274651 0.780993 -0.434396
H24   H     H_    0.167830 0.313690 0.757627 0.384159
O40   O     O_3   0.265632 0.718868 0.815320 -0.645124
H25   H     H_    0.345555 0.653223 0.785550 0.371318
O41   O     O_3   0.440352 0.794322 0.837152 -0.570911
H26   H     H_    0.348833 0.874253 0.824303 0.396126
O42   O     O_3   0.497483 0.769220 0.180914 -0.685220
H27   H     H_    0.456471 0.730625 0.215307 0.342207
O43   O     O_3   0.632316 0.281496 0.195226 -0.692926
H28   H     H_    0.649732 0.323106 0.152010 0.318889
O44   O     O_3   0.801563 0.135435 0.306559 -0.654867
H29   H     H_    0.836760 0.071971 0.265621 0.327156
O45   O     O_3   0.097553 0.903286 0.328370 -0.627099
H30   H     H_    0.080232 0.966692 0.287685 0.348457
S4    S     S_3+6 0.604239 0.503342 0.890929 0.059153
O46   O     O_2   0.537462 0.624212 0.941291 -0.212691
O47   O     O_2   0.494093 0.473249 0.868118 -0.255196
O48   O     O_3   0.721786 0.368799 0.938167 -0.507628
H31   H     H_    0.668471 0.361509 0.979664 0.355091
O49   O     O_3   0.568031 0.462951 0.736190 -0.703949
H32   H     H_    0.544019 0.457817 0.686212 0.295123

loop_
_geom_bond_atom_site_label_1
_geom_bond_atom_site_label_2
_ccdc_geom_bond_type
C7    C10   D    
O29   H18   S    
C38   O41   S    
Cr5   O8    S    
O30   H19   S    
C1    C11   S    
C6    O49   S    
O48   H31   S    
O31   H20   S    
C35   O18   A    
C28   O45   S    
O45   H30   S    
C22   H8    S    
C24   H9    S    
C5    H1    S    
C26   C27   D    
C12   O22   A    
C8    C29   S    
Cr4   O14   S    
O40   H25   S    
Cr4   O19   S    
Cr3   O3    S    
C38   C39   S    
C36   O3    A    
Cr5   O19   S    
O36   H23   S    
O41   H26   S    
C39   H11   S    
S3    O37   D    
C12   O21   A    
C18   C19   S    
Cr4   O13   S    
C16   H7    S    
C32   O14   A    
Cr6   O19   S    
C11   C15   D    
C19   H6    S    
C20   C24   D    
C3    C38   S    
C8    C9    D    
C23   O23   A    
Cr2   O2    S    
Cr4   O7    S    
Cr5   O15   S    
C4    C12   S    
C9    C10   S    
C17   O42   S    
C25   C34   S    
C14   S3    S    
C9    S2    S    
C13   C14   D    
Cr5   O9    S    
Cr2   O5    S    
C2    C6    S    
C17   C33   S    
O35   H22   S    
C13   C31   S    
C18   H5    S    
Cr1   O5    S    
Cr1   O24   S    
C21   C32   S    
C35   O13   A    
Cr3   O22   S    
Cr2   O21   S    
C4    C6    S    
C40   O31   S    
C30   O10   A    
C36   O2    A    
Cr3   O5    S    
C31   O11   A    
C40   H15   S    
C25   C28   D    
C1    O12   A    
C3    C30   S    
C8    H2    S    
Cr1   O12   S    
Cr6   O18   S    
S1    O28   D    
S2    O32   D    
C4    C39   S    
C17   C18   D    
O44   H29   S    
C7    O36   S    
Cr4   O6    S    
Cr5   O16   S    
C34   O25   A    
C26   H12   S    
C20   O44   S    
C23   O1    A    
S2    O33   D    
C3    C40   S    
S4    O46   D    
C22   C24   S    
C5    C40   S    
Cr6   O11   S    
C2    H17   S    
S1    O29   S    
C29   O7    A    
Cr1   O25   S    
O39   H24   S    
C27   H10   S    
Cr3   O23   S    
C37   O24   A    
C33   O16   A    
Cr2   O20   S    
C4    C5    S    
C30   O9    A    
O43   H28   S    
C33   O17   A    
C1    O20   A    
C38   S1    S    
S3    O39   S    
Cr2   O26   S    
C10   O35   S    
C2    C3    S    
C34   O26   A    
C21   O43   S    
C11   H4    S    
O42   H27   S    
C16   C36   S    
Cr6   O17   S    
C20   C37   S    
S1    O27   D    
C16   C19   D    
C7    C23   S    
C39   H14   S    
C37   O4    A    
S3    O38   D    
C5    H16   S    
O49   H32   S    
C15   H3    S    
O34   H21   S    
C32   O15   A    
C2    S4    S    
C26   C35   S    
C31   O6    A    
S2    O34   S    
Cr3   O4    S    
C6    O30   S    
S4    O48   S    
C27   C28   S    
S4    O47   D    
C14   C15   S    
C25   H13   S    
Cr1   O1    S    
C21   C22   D    
Cr6   O10   S    
C13   O40   S    
C29   O8    A    
