data_mof_unit_23725.cif
_audit_creation_date              2012-12-10T17:40:54-0500
_audit_creation_method            fapswitch 2.2
_symmetry_space_group_name_H-M    P1
_symmetry_Int_Tables_number       1
_space_group_crystal_system       triclinic
_cell_length_a                    14.642532
_cell_length_b                    15.469157
_cell_length_c                    9.927855
_cell_angle_alpha                 90.98959
_cell_angle_beta                  92.023609
_cell_angle_gamma                 90.584873
_cell_volume                      2246.86560281

loop_
_atom_site_label
_atom_site_type_symbol
_atom_type_description
_atom_site_fract_x
_atom_site_fract_y
_atom_site_fract_z
_atom_type_partial_charge
C1    C     C_R   0.395484 0.869775 0.498491 0.937175
C2    C     C_R   0.386229 0.125192 0.498770 0.926539
C3    C     C_R   0.895487 0.369774 0.498493 0.937207
C4    C     C_R   0.886211 0.625179 0.498769 0.926643
C5    C     C_R   0.276054 0.217921 0.379251 0.263585
C6    C     C_R   0.314543 0.749514 0.377803 0.268134
C7    C     C_R   0.775946 0.717834 0.379298 0.263549
C8    C     C_R   0.814557 0.249502 0.377814 0.268158
C9    C     C_R   0.707870 0.776255 0.388396 -0.224397
C10   C     C_R   0.738627 0.197308 0.384442 -0.222756
C11   C     C_R   0.207973 0.276342 0.388340 -0.224423
C12   C     C_R   0.238617 0.697317 0.384437 -0.222773
C13   C     C_R   0.701469 0.828665 0.502139 -0.170928
C14   C     C_R   0.703512 0.175500 0.509573 -0.176992
C15   C     C_R   0.201504 0.328693 0.502136 -0.170970
C16   C     C_R   0.203519 0.675493 0.509572 -0.176978
C17   C     C_R   0.337854 0.969118 0.135364 -0.261080
C18   C     C_R   0.837862 0.469064 0.135351 -0.261007
C19   C     C_R   0.260603 0.932171 0.067748 0.477696
C20   C     C_R   0.760622 0.432104 0.067725 0.477597
C21   C     C_R   0.261138 0.926688 0.928282 0.142067
C22   C     C_R   0.761149 0.426654 0.928255 0.142166
C23   C     C_R   0.330414 0.968850 0.859311 0.423618
C24   C     C_R   0.830423 0.468831 0.859302 0.423631
C25   C     C_R   0.417888 0.985266 0.924836 0.007592
C26   C     C_R   0.917892 0.485252 0.924834 0.007484
C27   C     C_R   0.419394 0.984830 0.069044 0.095223
C28   C     C_R   0.919398 0.484808 0.069041 0.095200
C29   C     C_R   0.577725 0.012091 0.075761 -0.050763
C30   C     C_R   0.077723 0.512104 0.075763 -0.050787
C31   C     C_R   0.623350 0.118857 0.503310 0.866138
C32   C     C_R   0.625016 0.885312 0.501381 0.859237
C33   C     C_R   0.123354 0.618854 0.503310 0.866140
C34   C     C_R   0.125024 0.385317 0.501381 0.859258
C35   C     C_R   0.577814 0.011130 0.932961 -0.120986
C36   C     C_R   0.077813 0.511138 0.932963 -0.120935
C37   C     C_R   0.408162 0.265662 0.703758 -0.156838
C38   C     C_R   0.401072 0.749899 0.729127 -0.153245
C39   C     C_R   0.908196 0.765700 0.703653 -0.157086
C40   C     C_R   0.901048 0.249911 0.729153 -0.153289
C41   C     C_R   0.409585 0.326946 0.808338 -0.065509
C42   C     C_R   0.380557 0.716603 0.853465 -0.111207
C43   C     C_R   0.909650 0.827015 0.808194 -0.065565
C44   C     C_R   0.880516 0.216628 0.853493 -0.111325
C45   C     C_R   0.844596 0.891613 0.809817 -0.133442
C46   C     C_R   0.794795 0.180513 0.871788 -0.107188
C47   C     C_R   0.344529 0.391543 0.809958 -0.133402
C48   C     C_R   0.294846 0.680471 0.871768 -0.107151
C49   C     C_R   0.776814 0.894284 0.708136 -0.165839
C50   C     C_R   0.732151 0.171882 0.763130 -0.150274
C51   C     C_R   0.276782 0.394246 0.708233 -0.165826
C52   C     C_R   0.232194 0.671841 0.763119 -0.150284
C53   C     C_R   0.770379 0.829375 0.605680 0.108074
C54   C     C_R   0.755508 0.196227 0.631192 0.125846
C55   C     C_R   0.270379 0.329369 0.605729 0.108053
C56   C     C_R   0.255531 0.696206 0.631182 0.125871
C57   C     C_R   0.337333 0.264529 0.602497 0.030307
C58   C     C_R   0.337067 0.743897 0.619454 0.095297
C59   C     C_R   0.837330 0.764533 0.602446 0.030274
C60   C     C_R   0.837052 0.243908 0.619470 0.095299
C61   C     C_R   0.333542 0.203471 0.493651 -0.214845
C62   C     C_R   0.352985 0.784550 0.496966 -0.220556
C63   C     C_R   0.833495 0.703437 0.493652 -0.214710
C64   C     C_R   0.852986 0.284548 0.496976 -0.220564
H1    H     H_    0.641796 0.018357 0.883496 0.112727
H2    H     H_    0.141796 0.518366 0.883504 0.112680
H3    H     H_    0.465221 0.222138 0.701440 0.177203
H4    H     H_    0.468080 0.778632 0.718067 0.155345
H5    H     H_    0.965250 0.722168 0.701330 0.177229
H6    H     H_    0.968061 0.278634 0.718100 0.155353
H7    H     H_    0.463087 0.325916 0.886253 0.195160
H8    H     H_    0.430514 0.721031 0.936154 0.187428
H9    H     H_    0.963170 0.826003 0.886083 0.195217
H10   H     H_    0.930470 0.221053 0.936189 0.187459
H11   H     H_    0.848021 0.941197 0.888226 0.148045
H12   H     H_    0.776455 0.158939 0.970487 0.170322
H13   H     H_    0.347933 0.441106 0.888397 0.148036
H14   H     H_    0.276519 0.658886 0.970466 0.170301
H15   H     H_    0.732506 0.949499 0.709007 0.154736
H16   H     H_    0.665845 0.149570 0.789035 0.178617
H17   H     H_    0.232485 0.449472 0.709099 0.154733
H18   H     H_    0.165896 0.649518 0.789030 0.178617
H19   H     H_    0.659113 0.780517 0.303973 0.216643
H20   H     H_    0.707777 0.173648 0.289917 0.203178
H21   H     H_    0.159261 0.280639 0.303871 0.216647
H22   H     H_    0.207756 0.673670 0.289913 0.203185
H23   H     H_    0.641461 0.021759 0.132741 0.132370
H24   H     H_    0.141457 0.521780 0.132743 0.132364
H25   H     H_    0.333620 0.986848 0.238436 0.241867
H26   H     H_    0.833612 0.486801 0.238419 0.241882
N1    N     N_R   0.498810 0.000000 0.142780 -0.078546
N2    N     N_R   0.998810 0.500000 0.142780 -0.078554
N3    N     N_R   0.498740 1.000000 0.857170 -0.095861
N4    N     N_R   0.998740 0.500000 0.857170 -0.095868
O1    O     O_R   0.408390 0.908380 0.614690 -0.565437
O2    O     O_R   0.408390 0.091620 0.614690 -0.572582
O3    O     O_R   0.908390 0.408380 0.614690 -0.565489
O4    O     O_R   0.908390 0.591620 0.614690 -0.572665
O5    O     O_R   0.408370 0.908380 0.385360 -0.608110
O6    O     O_R   0.408370 0.091620 0.385360 -0.587299
O7    O     O_R   0.908370 0.408380 0.385360 -0.608104
O8    O     O_R   0.908370 0.591620 0.385360 -0.587283
O9    O     O_R   0.591620 0.091610 0.614640 -0.659713
O10   O     O_R   0.591620 0.908390 0.614640 -0.650701
O11   O     O_R   0.091620 0.591610 0.614640 -0.659696
O12   O     O_R   0.091620 0.408390 0.614640 -0.650696
O13   O     O_R   0.591610 0.091610 0.385310 -0.617027
O14   O     O_R   0.591610 0.908390 0.385310 -0.610338
O15   O     O_R   0.091610 0.591610 0.385310 -0.617042
O16   O     O_R   0.091610 0.408390 0.385310 -0.610345
Zn1   Zn    Zn3+2 0.500010 0.000000 0.653130 0.964202
Zn2   Zn    Zn3+2 0.000010 0.500000 0.653130 0.964173
Zn3   Zn    Zn3+2 0.499980 0.000000 0.346870 0.989207
Zn4   Zn    Zn3+2 0.999980 0.500000 0.346870 0.989205
Br1   Br    Br    0.283789 0.166644 0.202131 -0.591743
Br2   Br    Br    0.370305 0.760197 0.207383 -0.573502
Br3   Br    Br    0.783600 0.666494 0.202212 -0.591855
Br4   Br    Br    0.870348 0.260164 0.207416 -0.573524
Br5   Br    Br    0.155800 0.880802 0.829219 -0.500501
Br6   Br    Br    0.655762 0.380877 0.829185 -0.500286
O17   O     O_3   0.304174 0.005935 0.739585 -0.531898
C65   C     C_3   0.251484 0.080271 0.767551 -0.208814
H27   H     H_    0.293449 0.130331 0.823683 0.174929
H28   H     H_    0.189354 0.065315 0.824357 0.176428
H29   H     H_    0.226922 0.107983 0.670839 0.171992
O18   O     O_3   0.804159 0.505954 0.739621 -0.531944
C66   C     C_3   0.751587 0.580349 0.767684 -0.208626
H30   H     H_    0.793757 0.630465 0.823291 0.175040
H31   H     H_    0.689684 0.565551 0.825062 0.176192
H32   H     H_    0.726705 0.607905 0.671034 0.172044
O19   O     O_3   0.184144 0.899119 0.130570 -0.552359
C67   C     C_3   0.169392 0.937041 0.258038 -0.211393
H33   H     H_    0.170475 0.008813 0.254368 0.179304
H34   H     H_    0.219149 0.912876 0.335065 0.170985
H35   H     H_    0.100440 0.917301 0.289600 0.195485
O20   O     O_3   0.684182 0.399015 0.130541 -0.552383
C68   C     C_3   0.669374 0.436963 0.257968 -0.211338
H36   H     H_    0.670402 0.508729 0.254239 0.179410
H37   H     H_    0.719132 0.412859 0.335039 0.170963
H38   H     H_    0.600431 0.417185 0.289513 0.195486

loop_
_geom_bond_atom_site_label_1
_geom_bond_atom_site_label_2
_ccdc_geom_bond_type
C43   H9    S    
C58   C62   A    
O18   C66   S    
C40   C60   A    
C4    O4    A    
C7    Br3   S    
C13   C32   S    
C14   C31   S    
C1    C62   S    
C1    O5    A    
C46   H12   S    
C53   C59   A    
C8    Br4   S    
C23   O17   S    
C54   C60   A    
C3    C64   S    
C25   N3    A    
C68   H37   S    
C4    C63   S    
C50   C54   A    
C40   H6    S    
C19   C21   A    
C24   C26   A    
C5    C11   A    
C6    C12   A    
C36   H2    S    
C35   H1    S    
C8    C64   A    
O9    Zn1   S    
C48   H14   S    
C9    C13   A    
O13   Zn3   S    
C38   C58   A    
C11   C15   A    
C12   C16   A    
C67   H33   S    
C4    O8    A    
C40   C44   A    
C32   O10   A    
C27   N1    A    
C45   H11   S    
N4    Zn2   S    
O16   Zn4   S    
C17   C27   A    
C18   C20   A    
C2    C61   S    
C41   H7    S    
C3    O7    A    
C2    O6    A    
C5    Br1   S    
C24   O18   S    
O7    Zn4   S    
C16   C56   A    
C26   C28   A    
C68   H38   S    
C44   C46   A    
C13   C53   A    
C35   N3    A    
C19   O19   S    
O12   Zn2   S    
O2    Zn1   S    
O4    Zn2   S    
C5    C61   A    
C18   H26   S    
C41   C47   A    
C44   H10   S    
C17   H25   S    
C30   N2    A    
C10   C14   A    
O3    Zn2   S    
C39   C43   A    
C6    Br2   S    
C2    O2    A    
N1    Zn3   S    
C31   O9    A    
O14   Zn3   S    
C22   Br6   S    
C66   H31   S    
O8    Zn4   S    
C16   C33   S    
C3    O3    A    
C45   C49   A    
C1    O1    A    
C39   C59   A    
C42   H8    S    
C39   H5    S    
C18   C28   A    
C28   N2    A    
C42   C48   A    
C20   O20   S    
C52   H18   S    
C43   C45   A    
C7    C63   A    
O17   C65   S    
O15   Zn4   S    
C9    H19   S    
C67   H34   S    
C14   C54   A    
O11   Zn2   S    
C20   C22   A    
C26   N4    A    
C55   C57   A    
C34   O16   A    
C22   C24   A    
C33   O15   A    
C47   H13   S    
C30   H24   S    
O19   C67   S    
C29   N1    A    
C65   H28   S    
C49   H15   S    
C7    C9    A    
C46   C50   A    
C15   C34   S    
C31   O13   A    
O6    Zn3   S    
C38   H4    S    
O20   C68   S    
C50   H16   S    
O5    Zn3   S    
O10   Zn1   S    
C47   C51   A    
C57   C61   A    
C30   C36   A    
C25   C27   A    
C68   H36   S    
C29   C35   A    
C59   C63   A    
C51   H17   S    
C33   O11   A    
C12   H22   S    
C60   C64   A    
C6    C62   A    
C65   H29   S    
C21   C23   A    
C66   H32   S    
C21   Br5   S    
O1    Zn1   S    
C52   C56   A    
C11   H21   S    
C67   H35   S    
C49   C53   A    
C37   H3    S    
C10   H20   S    
C17   C19   A    
C56   C58   A    
C34   O12   A    
C51   C55   A    
C23   C25   A    
C37   C41   A    
C29   H23   S    
C38   C42   A    
C36   N4    A    
C48   C52   A    
C8    C10   A    
C32   O14   A    
C65   H27   S    
N2    Zn4   S    
N3    Zn1   S    
C37   C57   A    
C66   H30   S    
C15   C55   A    
