data_mof_unit_36551.cif
_audit_creation_date              2012-12-10T17:52:34-0500
_audit_creation_method            fapswitch 2.2
_symmetry_space_group_name_H-M    P1
_symmetry_Int_Tables_number       1
_space_group_crystal_system       triclinic
_cell_length_a                    14.672447
_cell_length_b                    14.743673
_cell_length_c                    23.545663
_cell_angle_alpha                 76.348339
_cell_angle_beta                  103.252169
_cell_angle_gamma                 115.467145
_cell_volume                      4421.05835562

loop_
_atom_site_label
_atom_site_type_symbol
_atom_type_description
_atom_site_fract_x
_atom_site_fract_y
_atom_site_fract_z
_atom_type_partial_charge
C1    C     C_R   0.879711 0.312102 0.510167 0.809364
C2    C     C_R   0.120648 0.688215 0.492878 0.820754
C3    C     C_R   0.946133 0.555546 0.743061 -0.168712
C4    C     C_R   0.903695 0.472341 0.231588 -0.170421
C5    C     C_R   0.948218 0.552342 0.684901 -0.285924
C6    C     C_R   0.907279 0.472722 0.290969 -0.291125
C7    C     C_R   0.998156 0.498744 0.671856 -0.102689
C8    C     C_R   0.000951 0.503116 0.328299 -0.093031
C9    C     C_R   0.046565 0.447121 0.718709 0.162491
C10   C     C_R   0.092796 0.535204 0.305226 0.167227
C11   C     C_R   0.048466 0.454730 0.777816 0.250252
C12   C     C_R   0.088597 0.531340 0.245126 0.245702
C13   C     C_R   0.995707 0.507147 0.789628 0.288707
C14   C     C_R   0.993463 0.501065 0.208427 0.286262
C15   C     C_R   0.811287 0.206090 0.527225 -0.171137
C16   C     C_R   0.189026 0.797370 0.492806 -0.188521
C17   C     C_R   0.774954 0.059428 0.605201 0.502973
C18   C     C_R   0.213666 0.974008 0.455582 0.497927
C19   C     C_R   0.844645 0.148361 0.576844 -0.344701
C20   C     C_R   0.150998 0.870493 0.461816 -0.318523
C21   C     C_R   0.707619 0.170103 0.502316 0.198964
C22   C     C_R   0.291514 0.829793 0.522071 0.186827
C23   C     C_R   0.999089 0.498630 0.609177 0.827973
C24   C     C_R   0.000815 0.501391 0.391003 0.838920
C25   C     C_R   0.634836 0.091678 0.536288 -0.018519
C26   C     C_R   0.355074 0.935475 0.517829 -0.016004
C27   C     C_R   0.669666 0.033679 0.586745 0.005890
C28   C     C_R   0.317329 0.006183 0.480140 -0.003642
C29   C     C_R   0.528264 0.067556 0.520929 0.086494
C30   C     C_R   0.458682 0.972658 0.545510 0.091580
C31   C     C_R   0.494732 0.920349 0.597617 -0.193620
C32   C     C_R   0.488847 0.137094 0.484668 -0.185321
C33   C     C_R   0.598470 0.950809 0.618082 -0.182369
C34   C     C_R   0.384467 0.107749 0.466520 -0.194400
C35   C     C_R   0.711098 0.661114 0.396569 0.382227
C36   C     C_R   0.285145 0.333178 0.600850 0.383732
C37   C     C_R   0.796010 0.636185 0.415619 -0.024072
C38   C     C_R   0.204989 0.365671 0.585343 -0.020722
C39   C     C_R   0.714075 0.508221 0.491304 -0.018691
C40   C     C_R   0.281237 0.483781 0.504986 -0.023002
C41   C     C_R   0.625924 0.530712 0.475496 -0.086442
C42   C     C_R   0.367887 0.458811 0.519717 -0.093825
C43   C     C_R   0.626291 0.609503 0.427248 0.051559
C44   C     C_R   0.368209 0.381436 0.568688 0.047213
C45   C     C_R   0.023837 0.593241 0.110397 0.607143
C46   C     C_R   0.941601 0.417254 0.884077 0.612624
C47   C     C_R   0.538687 0.478943 0.505996 0.111511
C48   C     C_R   0.453692 0.508071 0.488054 0.117396
C49   C     C_R   0.457902 0.586405 0.439555 -0.266928
C50   C     C_R   0.533766 0.399483 0.553969 -0.254692
C51   C     C_R   0.542015 0.635647 0.409950 -0.165060
C52   C     C_R   0.450647 0.352285 0.584555 -0.154560
C53   C     C_R   0.946465 0.411979 0.125400 0.568227
C54   C     C_R   0.030469 0.597409 0.871028 0.564979
C55   C     C_R   0.947288 0.410022 0.065795 -0.089807
C56   C     C_R   0.022018 0.599583 0.929262 -0.088171
C57   C     C_R   0.983293 0.504094 0.027511 -0.132387
C58   C     C_R   0.983432 0.505683 0.967216 -0.136029
C59   C     C_R   0.018572 0.596687 0.049446 -0.141139
C60   C     C_R   0.946171 0.413291 0.944914 -0.139713
C61   C     C_R   0.914014 0.317605 0.043523 0.167251
C62   C     C_R   0.052210 0.691965 0.950794 0.174045
C63   C     C_R   0.915924 0.319725 0.983784 0.437789
C64   C     C_R   0.047324 0.689976 0.010083 0.433852
Cu1   Cu    Cu3+1 0.081740 0.475680 0.515360 0.946709
Cu2   Cu    Cu3+1 0.918260 0.524320 0.484640 0.926353
H1    H     H_    0.443138 0.857413 0.624285 0.178421
H2    H     H_    0.537637 0.215821 0.471992 0.181051
H3    H     H_    0.540655 0.695321 0.373097 0.187529
H4    H     H_    0.451530 0.292226 0.621240 0.193047
H5    H     H_    0.271943 0.537784 0.467099 0.163887
H6    H     H_    0.720844 0.449925 0.527206 0.145603
H7    H     H_    0.141788 0.331083 0.610184 0.160347
H8    H     H_    0.862688 0.676714 0.393454 0.147919
H9    H     H_    0.397280 0.612338 0.423175 0.135209
H10   H     H_    0.593316 0.371557 0.569406 0.139214
H11   H     H_    0.905292 0.595533 0.752080 0.160351
H12   H     H_    0.830723 0.449617 0.203270 0.162479
H13   H     H_    0.910274 0.592041 0.649920 0.180489
H14   H     H_    0.836336 0.448622 0.307908 0.172239
H15   H     H_    0.622641 0.907487 0.657928 0.193988
H16   H     H_    0.357363 0.163841 0.439016 0.191365
H17   H     H_    0.072844 0.847354 0.439820 0.190073
H18   H     H_    0.924601 0.174852 0.595449 0.168069
N1    N     N_R   0.987830 0.502149 0.146522 -0.457246
N2    N     N_R   0.988614 0.507473 0.849540 -0.458049
N3    N     N_R   0.795430 0.560810 0.461550 -0.206419
N4    N     N_R   0.204570 0.439190 0.538450 -0.204706
O1    O     O_R   0.977900 0.338110 0.520250 -0.581678
O2    O     O_R   0.022100 0.661890 0.479750 -0.583999
O3    O     O_R   0.839850 0.379180 0.494310 -0.589275
O4    O     O_R   0.160150 0.620820 0.505690 -0.572093
O5    O     O_R   0.069020 0.479430 0.595090 -0.552337
O6    O     O_R   0.930980 0.520570 0.404910 -0.595939
O7    O     O_R   0.930970 0.520500 0.569150 -0.589073
O8    O     O_R   0.069030 0.479500 0.430850 -0.548839
O9    O     O_2   0.065126 0.679952 0.133871 -0.492208
O10   O     O_2   0.890426 0.331960 0.859220 -0.489058
O11   O     O_2   0.905589 0.324995 0.162506 -0.517686
O12   O     O_2   0.081881 0.683556 0.836342 -0.520925
N5    N     N_2   0.878604 0.221407 0.080729 -0.364630
H19   H     H_    0.817486 0.164223 0.061486 0.279330
C65   C     C_3   0.956651 0.188449 0.116660 -0.577722
H20   H     H_    0.962030 0.129500 0.097268 0.193896
H21   H     H_    0.935539 0.154306 0.161546 0.255227
H22   H     H_    0.032644 0.252866 0.120854 0.207768
N6    N     N_2   0.086400 0.787819 0.913098 -0.364333
H23   H     H_    0.142764 0.847611 0.932690 0.282355
C66   C     C_3   0.007930 0.814611 0.872471 -0.598260
H24   H     H_    0.996726 0.874463 0.887617 0.196263
H25   H     H_    0.933836 0.747801 0.868267 0.208711
H26   H     H_    0.032489 0.845379 0.828189 0.251709
O13   O     O_3   0.808518 0.005123 0.655736 -0.580682
C67   C     C_3   0.864746 0.959249 0.640696 -0.331567
H27   H     H_    0.939786 0.016742 0.628833 0.153261
H28   H     H_    0.821119 0.914006 0.604263 0.161190
H29   H     H_    0.880087 0.906054 0.679836 0.193946
O14   O     O_3   0.175047 0.042539 0.420367 -0.572596
C68   C     C_3   0.130744 0.072503 0.455871 -0.332597
H30   H     H_    0.188482 0.111106 0.491741 0.146775
H31   H     H_    0.066010 0.006637 0.474768 0.163494
H32   H     H_    0.100006 0.127892 0.427910 0.203163
O15   O     O_3   0.713683 0.740132 0.350648 -0.582457
C69   C     C_3   0.697679 0.705238 0.296903 -0.332754
H33   H     H_    0.623937 0.638129 0.291567 0.158017
H34   H     H_    0.761896 0.686889 0.293119 0.161580
H35   H     H_    0.693922 0.766782 0.259995 0.203080
O16   O     O_3   0.285722 0.259696 0.649767 -0.577702
C70   C     C_3   0.216430 0.163815 0.634902 -0.351051
H36   H     H_    0.236795 0.146791 0.597030 0.155197
H37   H     H_    0.136498 0.158290 0.625078 0.142661
H38   H     H_    0.220489 0.104625 0.673305 0.207337
O17   O     O_3   0.888714 0.228653 0.964283 -0.540091
C71   C     C_3   0.978343 0.214413 0.965057 -0.246025
H39   H     H_    0.956154 0.136560 0.956061 0.183012
H40   H     H_    0.028002 0.221627 0.008603 0.129705
H41   H     H_    0.023032 0.268927 0.930153 0.189424
O18   O     O_3   0.072752 0.781018 0.029083 -0.540720
C72   C     C_3   0.982283 0.795353 0.025556 -0.244600
H42   H     H_    0.938807 0.794020 0.980201 0.134293
H43   H     H_    0.003087 0.871013 0.037396 0.186611
H44   H     H_    0.932237 0.737200 0.057171 0.168592
N7    N     N_2   0.088812 0.384321 0.706421 -0.428091
H45   H     H_    0.157175 0.388449 0.732114 0.261259
C73   C     C_3   0.015929 0.280978 0.702353 -0.648122
H46   H     H_    0.986794 0.242894 0.745072 0.233642
H47   H     H_    0.052969 0.236992 0.691297 0.219978
H48   H     H_    0.950685 0.280733 0.667341 0.231331
N8    N     N_2   0.188423 0.575114 0.341745 -0.435657
H49   H     H_    0.244713 0.556863 0.334446 0.251114
C74   C     C_3   0.222765 0.681862 0.345113 -0.689255
H50   H     H_    0.231070 0.728109 0.300441 0.235322
H51   H     H_    0.297968 0.708141 0.373332 0.206816
H52   H     H_    0.167843 0.694351 0.364696 0.232859
N9    N     N_2   0.100048 0.407408 0.825967 -0.437644
H53   H     H_    0.097802 0.339030 0.820761 0.260390
C75   C     C_3   0.200490 0.475161 0.849118 -0.709086
H54   H     H_    0.232235 0.433456 0.888461 0.227520
H55   H     H_    0.196599 0.540331 0.862838 0.256804
H56   H     H_    0.252238 0.504013 0.815204 0.227804
N10   N     N_2   0.179123 0.561040 0.220374 -0.411190
H57   H     H_    0.240955 0.621660 0.235970 0.265292
C76   C     C_3   0.204522 0.477580 0.218084 -0.696609
H58   H     H_    0.272474 0.506868 0.195342 0.230290
H59   H     H_    0.140400 0.420947 0.193027 0.247153
H60   H     H_    0.222136 0.439889 0.263488 0.220393
N11   N     N_2   0.334006 0.757309 0.551174 -0.437202
H61   H     H_    0.291100 0.695544 0.578708 0.270734
C77   C     C_3   0.392446 0.738357 0.516891 -0.620102
H62   H     H_    0.422661 0.681744 0.543652 0.223834
H63   H     H_    0.458002 0.809333 0.503910 0.229141
H64   H     H_    0.343815 0.709268 0.476321 0.219222
N12   N     N_2   0.678566 0.204159 0.441463 -0.441974
H65   H     H_    0.727627 0.273937 0.423155 0.264886
C78   C     C_3   0.647804 0.129185 0.403097 -0.668982
H66   H     H_    0.622214 0.160218 0.357519 0.230462
H67   H     H_    0.583393 0.058661 0.418022 0.242267
H68   H     H_    0.713177 0.110450 0.402284 0.227815

loop_
_geom_bond_atom_site_label_1
_geom_bond_atom_site_label_2
_ccdc_geom_bond_type
Cu1   O4    S    
C37   H8    S    
C75   H54   S    
C40   H5    S    
N9    C75   S    
C54   N2    A    
C41   C43   A    
C77   H62   S    
C45   N1    A    
C76   H58   S    
C39   N3    A    
C16   C22   A    
O16   C70   S    
C71   H41   S    
N10   H57   S    
C9    N7    S    
C17   O13   S    
O15   C69   S    
C78   H67   S    
C64   O18   S    
N12   H65   S    
C53   O11   S    
Cu1   O1    S    
C59   C64   A    
N5    H19   S    
C60   C63   A    
C63   O17   S    
C35   C37   A    
O13   C67   S    
C29   C32   A    
C24   O6    A    
N8    C74   S    
C10   N8    S    
C73   H46   S    
C30   C31   A    
C72   H44   S    
C57   C59   A    
C58   C60   A    
N7    H45   S    
C61   C63   A    
C74   H52   S    
C2    O2    A    
O14   C68   S    
C62   C64   A    
C66   H25   S    
C73   H47   S    
C12   N10   S    
C15   C19   A    
Cu1   O8    S    
C47   C48   A    
C56   C58   A    
C49   C51   A    
C13   N2    S    
C50   C52   A    
C39   H6    S    
C49   H9    S    
C1    C15   S    
C47   C50   A    
C2    C16   S    
C18   O14   S    
C3    C13   A    
C11   N9    S    
C32   H2    S    
C70   H38   S    
C46   C60   A    
C44   C52   A    
C68   H31   S    
C46   O10   S    
C74   H50   S    
C28   C34   A    
C75   H55   S    
C77   H63   S    
C54   O12   S    
C36   O16   S    
C42   C44   A    
N10   C76   S    
C67   H27   S    
C78   H68   S    
C53   C55   A    
C25   C29   A    
C54   C56   A    
N9    H53   S    
C17   C27   A    
C76   H60   S    
C18   C28   A    
C39   C41   A    
C66   H26   S    
N11   H61   S    
C5    C7    A    
C35   O15   S    
C6    C8    A    
C62   N6    S    
C27   C33   A    
C23   O5    A    
N11   C77   S    
C38   N4    A    
C67   H28   S    
C32   C34   A    
C61   N5    S    
C4    H12   S    
C29   C30   A    
C50   H10   S    
C6    H14   S    
C78   H66   S    
C16   C20   A    
C31   C33   A    
C41   C47   A    
C65   H21   S    
C42   C48   A    
C72   H43   S    
C68   H30   S    
C2    O4    A    
C9    C11   A    
C71   H39   S    
N12   C78   S    
C10   C12   A    
C69   H35   S    
C22   N11   S    
C4    C6    A    
C48   C49   A    
Cu2   O2    S    
C12   C14   A    
C26   C30   A    
C75   H56   S    
C21   N12   S    
C55   C57   A    
O17   C71   S    
C77   H64   S    
C56   C62   A    
C36   C44   A    
C5    H13   S    
N6    H23   S    
C17   C19   A    
C19   H18   S    
C3    H11   S    
Cu2   N3    S    
C73   H48   S    
C35   C43   A    
Cu1   N4    S    
C69   H34   S    
C70   H36   S    
N5    C65   S    
C68   H32   S    
N7    C73   S    
C21   C25   A    
C45   C59   A    
C1    O1    A    
C76   H59   S    
C37   N3    A    
C14   N1    S    
C3    C5    A    
C71   H40   S    
C72   H42   S    
Cu2   O3    S    
C25   C27   A    
C34   H16   S    
C26   C28   A    
Cu2   O6    S    
C40   N4    A    
C24   O8    A    
C45   O9    S    
N8    H49   S    
C36   C38   A    
C11   C13   A    
C43   C51   A    
C57   C58   A    
N6    C66   S    
C7    C23   S    
C55   C61   A    
C1    O3    A    
C40   C42   A    
Cu1   O5    S    
C8    C24   S    
C23   O7    A    
C65   H22   S    
C18   C20   A    
C74   H51   S    
C4    C14   A    
C67   H29   S    
C52   H4    S    
O18   C72   S    
C31   H1    S    
C7    C9    A    
C15   C21   A    
C8    C10   A    
Cu1   Cu2   S    
C22   C26   A    
C20   H17   S    
C65   H20   S    
C69   H33   S    
C53   N1    A    
C51   H3    S    
C70   H37   S    
C66   H24   S    
C33   H15   S    
Cu2   O7    S    
C46   N2    A    
C38   H7    S    
