data_mof_unit_8249.cif
_audit_creation_date              2013-03-05T15:44:05-0500
_audit_creation_method            fapswitch 2.2
_symmetry_space_group_name_H-M    P1
_symmetry_Int_Tables_number       1
_space_group_crystal_system       triclinic
_cell_length_a                    6.947947
_cell_length_b                    18.12644
_cell_length_c                    18.788832
_cell_angle_alpha                 90.096119
_cell_angle_beta                  90.184405
_cell_angle_gamma                 88.845608
_cell_volume                      2365.79891871

loop_
_atom_site_label
_atom_site_type_symbol
_atom_site_description
_atom_site_fract_x
_atom_site_fract_y
_atom_site_fract_z
_atom_type_partial_charge
O1    O     O_R   0.377350 0.828520 0.186660 -0.525701
O2    O     O_R   0.622650 0.171480 0.813340 -0.529070
O3    O     O_R   0.122650 0.171480 0.686660 -0.533987
O4    O     O_R   0.877350 0.828520 0.313340 -0.534525
O5    O     O_R   0.877350 0.671480 0.313340 -0.508186
O6    O     O_R   0.122650 0.328520 0.686660 -0.508840
O7    O     O_R   0.622650 0.328520 0.813340 -0.512988
O8    O     O_R   0.377350 0.671480 0.186660 -0.508430
O9    O     O_R   0.707090 0.671930 0.178410 -0.538102
O10   O     O_R   0.292910 0.328070 0.821590 -0.540736
O11   O     O_R   0.792910 0.328070 0.678410 -0.536054
O12   O     O_R   0.207090 0.671930 0.321590 -0.535047
O13   O     O_R   0.207090 0.828070 0.321590 -0.550278
O14   O     O_R   0.792910 0.171930 0.678410 -0.549689
O15   O     O_R   0.292910 0.171930 0.821590 -0.551213
O16   O     O_R   0.707090 0.828070 0.178410 -0.554069
C1    C     C_R   0.539901 0.645471 0.161836 0.936742
C2    C     C_R   0.460022 0.354998 0.837614 0.953363
C3    C     C_R   0.959769 0.354511 0.661794 0.950567
C4    C     C_R   0.040209 0.645487 0.338199 0.952831
C5    C     C_R   0.037889 0.854294 0.338073 0.953516
C6    C     C_R   0.962090 0.145703 0.661928 0.954622
C7    C     C_R   0.462693 0.146233 0.838811 0.938709
C8    C     C_R   0.537202 0.853754 0.161417 0.931777
O17   O     O_3   0.543850 0.750000 0.294270 -0.249840
O18   O     O_3   0.456150 0.250000 0.705730 -0.249307
O19   O     O_3   0.956150 0.250000 0.794270 -0.254844
O20   O     O_3   0.043850 0.750000 0.205730 -0.246241
V1    V     V_3+5 0.818700 0.750000 0.241790 1.378722
V2    V     V_3+5 0.181300 0.250000 0.758210 1.375858
V3    V     V_3+5 0.681300 0.250000 0.741790 1.379920
V4    V     V_3+5 0.318700 0.750000 0.258210 1.383686
C9    C     C_R   0.960055 0.417535 0.610176 -0.199581
C10   C     C_R   0.039819 0.582462 0.389810 -0.201254
C11   C     C_R   0.538629 0.582371 0.110249 -0.202927
C12   C     C_R   0.461186 0.418522 0.888734 -0.212229
C13   C     C_R   0.471404 0.082258 0.889086 -0.217153
C14   C     C_R   0.527571 0.917455 0.111270 -0.210264
C15   C     C_R   0.030188 0.917738 0.388780 -0.214146
C16   C     C_R   0.969666 0.082259 0.611217 -0.214193
C17   C     C_R   0.213470 0.478732 0.444724 -0.024762
C18   C     C_R   0.786342 0.521250 0.555239 -0.024842
C19   C     C_R   0.290340 0.523722 0.942055 0.006462
C20   C     C_R   0.706135 0.476130 0.057407 -0.016071
C21   C     C_R   0.612485 0.042826 0.078972 -0.011215
C22   C     C_R   0.384988 0.956734 0.921493 -0.013566
C23   C     C_R   0.892396 0.955782 0.578959 -0.013930
C24   C     C_R   0.107118 0.044256 0.420995 -0.014107
C25   C     C_R   0.191547 0.528781 0.388379 0.301390
C26   C     C_R   0.808167 0.471171 0.611564 0.302516
C27   C     C_R   0.310623 0.472619 0.886373 0.320524
C28   C     C_R   0.686715 0.527272 0.113046 0.302678
C29   C     C_R   0.606397 0.986368 0.130226 0.289155
C30   C     C_R   0.390813 0.013472 0.870310 0.291432
C31   C     C_R   0.894347 0.012757 0.630045 0.286904
C32   C     C_R   0.104814 0.987324 0.369865 0.286817
C33   C     C_R   0.901111 0.579055 0.445142 0.326263
C34   C     C_R   0.098774 0.420950 0.554844 0.326313
C35   C     C_R   0.603416 0.423801 0.942986 0.326724
C36   C     C_R   0.401503 0.579799 0.054045 0.316225
C37   C     C_R   0.452319 0.907882 0.041815 0.284719
C38   C     C_R   0.548681 0.091114 0.958375 0.292629
C39   C     C_R   0.043187 0.092315 0.541793 0.290310
C40   C     C_R   0.956910 0.907647 0.458234 0.290462
C41   C     C_R   0.920793 0.525048 0.499868 -0.074926
C42   C     C_R   0.079085 0.474959 0.500121 -0.075070
C43   C     C_R   0.580012 0.476180 0.998942 -0.076933
C44   C     C_R   0.422761 0.526692 0.998521 -0.079196
C45   C     C_R   0.459534 0.965544 0.990723 -0.076155
C46   C     C_R   0.541950 0.033274 0.009230 -0.073707
C47   C     C_R   0.038744 0.034308 0.490743 -0.078722
C48   C     C_R   0.961187 0.965676 0.509262 -0.078765
H1    H     H_    0.336446 0.441412 0.443755 0.181869
H2    H     H_    0.663336 0.558557 0.556190 0.182012
H3    H     H_    0.168834 0.561708 0.940210 0.184995
H4    H     H_    0.818029 0.434071 0.061796 0.186780
H5    H     H_    0.671083 0.095257 0.094559 0.196998
H6    H     H_    0.321755 0.904903 0.906563 0.194520
H7    H     H_    0.837764 0.902796 0.594549 0.193693
H8    H     H_    0.161452 0.097281 0.405379 0.193545
N1    N     N_R   0.255852 0.368301 0.552698 0.089306
O21   O     O_R   0.398297 0.374253 0.597197 -0.304238
O22   O     O_R   0.274783 0.324046 0.498547 -0.251359
N2    N     N_R   0.743921 0.631653 0.447235 0.089069
O23   O     O_R   0.601505 0.625596 0.402738 -0.304525
O24   O     O_R   0.724855 0.675946 0.501352 -0.250923
N3    N     N_R   0.243483 0.631964 0.052319 0.086853
O25   O     O_R   0.100309 0.624484 0.095907 -0.301389
O26   O     O_R   0.224790 0.677347 0.999162 -0.256492
N4    N     N_R   0.773176 0.377352 0.940939 0.101062
O27   O     O_R   0.759870 0.306218 0.943774 -0.262731
O28   O     O_R   0.942785 0.406250 0.941569 -0.350481
N5    N     N_R   0.627515 0.160235 0.978241 0.086202
O29   O     O_R   0.812855 0.164929 0.986627 -0.283484
O30   O     O_R   0.514009 0.210940 0.005082 -0.303106
N6    N     N_R   0.373103 0.838491 0.022739 0.075107
O31   O     O_R   0.467239 0.794247 0.980134 -0.290142
O32   O     O_R   0.200796 0.822288 0.043640 -0.282710
N7    N     N_R   0.884367 0.837204 0.477521 0.088241
O33   O     O_R   0.701436 0.829801 0.489428 -0.278614
O34   O     O_R   0.999784 0.779835 0.479360 -0.326999
N8    N     N_R   0.115811 0.162748 0.522515 0.088212
O35   O     O_R   0.000437 0.220129 0.520671 -0.327109
O36   O     O_R   0.298691 0.170104 0.510471 -0.278731
N9    N     N_R   0.678111 0.477886 0.671005 0.127155
O37   O     O_R   0.510948 0.510532 0.662879 -0.271125
O38   O     O_R   0.738915 0.464718 0.735349 -0.294393
N10   N     N_R   0.321216 0.521955 0.328841 0.126859
O39   O     O_R   0.488273 0.489205 0.336870 -0.271684
O40   O     O_R   0.259995 0.535044 0.264530 -0.287584
N11   N     N_R   0.815571 0.520359 0.173063 0.123912
O41   O     O_R   0.982744 0.487626 0.165592 -0.269854
O42   O     O_R   0.755275 0.535086 0.237052 -0.287216
N12   N     N_R   0.181121 0.478893 0.826390 0.123447
O43   O     O_R   0.015015 0.512549 0.833401 -0.265566
O44   O     O_R   0.241891 0.464115 0.762468 -0.293127
N13   N     N_R   0.316579 0.999278 0.799701 0.124461
O45   O     O_R   0.207215 0.942954 0.788372 -0.259320
O46   O     O_R   0.373535 0.036848 0.744994 -0.325997
N14   N     N_R   0.678551 0.000939 0.201070 0.124612
O47   O     O_R   0.786995 0.057477 0.212637 -0.259577
O48   O     O_R   0.621745 0.963103 0.255628 -0.326039
N15   N     N_R   0.177099 0.002061 0.299282 0.125252
O49   O     O_R   0.283221 0.059243 0.288108 -0.257149
O50   O     O_R   0.124632 0.963087 0.244610 -0.325520
N16   N     N_R   0.820695 0.998177 0.700463 0.125142
O51   O     O_R   0.713440 0.941258 0.711383 -0.256375
O52   O     O_R   0.872475 0.037134 0.755237 -0.326718

loop_
_geom_bond_atom_site_label_1
_geom_bond_atom_site_label_2
_geom_bond_distance
_ccdc_geom_bond_type
N3    O25   1.299883 A    
N5    O29   1.301300 A    
O13   V4    1.994519 S    
N11   O41   1.301479 A    
C23   H7    1.081052 S    
O14   V3    1.994520 S    
C12   C35   1.421877 A    
C19   C27   1.401750 A    
N12   O43   1.301460 A    
C37   N6    1.427792 S    
N15   O49   1.301770 A    
O5    C4    1.302449 A    
O6    C3    1.302615 A    
N9    O38   1.300227 A    
O11   C3    1.302467 A    
C9    C34   1.422195 A    
C16   C39   1.415792 A    
O20   V1    1.706749 S    
N2    O24   1.299938 A    
N13   O46   1.301059 A    
N15   O50   1.301034 A    
N10   O39   1.301466 A    
C38   C46   1.421263 A    
C20   H4    1.080893 S    
C22   C45   1.408560 A    
C35   C43   1.422931 A    
C34   C42   1.425262 A    
C40   N7    1.429844 S    
N7    O33   1.300880 A    
C19   C44   1.403741 A    
N6    O32   1.300492 A    
C10   C33   1.422144 A    
C8    C14   1.491848 S    
O4    V1    2.003116 S    
O9    V1    2.013617 S    
C14   C37   1.415976 A    
C4    C10   1.499778 S    
C20   C28   1.401084 A    
O17   V4    1.702747 S    
O15   C7    1.299663 A    
O11   V3    2.019368 S    
O18   V3    1.702747 S    
O16   C8    1.299190 A    
O12   V4    2.019369 S    
O19   V2    1.706749 S    
O17   V1    2.152005 S    
O12   C4    1.302596 A    
C45   C46   1.407722 A    
C39   N8    1.429839 S    
C17   C25   1.401281 A    
N1    O22   1.299944 A    
C36   N3    1.434789 S    
N14   O48   1.301086 A    
C13   C38   1.416754 A    
C25   N10   1.442193 S    
O5    V1    1.994638 S    
C19   H3    1.079102 S    
C18   H2    1.079262 S    
C27   N12   1.443071 S    
O7    V3    1.993185 S    
C20   C43   1.402984 A    
O19   V3    2.146365 S    
C43   C44   1.411292 A    
O8    V4    1.993186 S    
C32   N15   1.446785 S    
O20   V4    2.146365 S    
N2    O23   1.299581 A    
C3    C9    1.499839 S    
C34   N1    1.435861 S    
C22   H6    1.081370 S    
C28   N11   1.441617 S    
C9    C26   1.420686 A    
C7    C13   1.497054 S    
C17   H1    1.079251 S    
O1    V4    2.008075 S    
N1    O21   1.299561 A    
C11   C36   1.421348 A    
C35   N4    1.435872 S    
O3    V2    2.003117 S    
C15   C40   1.415773 A    
C18   C41   1.403145 A    
O10   V2    2.013616 S    
N4    O28   1.299234 A    
C15   C32   1.419579 A    
C5    C15   1.492386 S    
C31   N16   1.446792 S    
O7    C2    1.302250 A    
C6    C16   1.492420 S    
N6    O31   1.300713 A    
C22   C30   1.410460 A    
C33   N2    1.435806 S    
O13   C5    1.297398 A    
N11   O42   1.299976 A    
N8    O36   1.300884 A    
C12   C27   1.419984 A    
C18   C26   1.401281 A    
C13   C30   1.420570 A    
O9    C1    1.302298 A    
N7    O34   1.300763 A    
C39   C47   1.422767 A    
O18   V2    2.152005 S    
N3    O26   1.299506 A    
C30   N13   1.446380 S    
C24   C47   1.408479 A    
O2    C7    1.303176 A    
N14   O47   1.301748 A    
O15   V2    1.994374 S    
C23   C31   1.408988 A    
C37   C45   1.422060 A    
C24   C32   1.409026 A    
C10   C25   1.420432 A    
N16   O52   1.301001 A    
O6    V2    1.994636 S    
C21   C46   1.409160 A    
C33   C41   1.425268 A    
C26   N9    1.442319 S    
C16   C31   1.419650 A    
N12   O44   1.300050 A    
C17   C42   1.403167 A    
N9    O37   1.301498 A    
O8    C1    1.302514 A    
O14   C6    1.297276 A    
O16   V1    1.994373 S    
C47   C48   1.410248 A    
N13   O45   1.301744 A    
O4    C5    1.302042 A    
C24   H8    1.081047 S    
N4    O27   1.295765 A    
C14   C29   1.418453 A    
O10   C2    1.302729 A    
N16   O51   1.301768 A    
N10   O40   1.300325 A    
C40   C48   1.422744 A    
N8    O35   1.300761 A    
C23   C48   1.408448 A    
C21   C29   1.407751 A    
C36   C44   1.424324 A    
O1    C8    1.300875 A    
N5    O30   1.301091 A    
C41   C42   1.411975 A    
C38   N5    1.426155 S    
C29   N14   1.446612 S    
C11   C28   1.420331 A    
O2    V3    2.008076 S    
O3    C6    1.302179 A    
C21   H5    1.081051 S    
C1    C11   1.498119 S    
C2    C12   1.498362 S    
