data_mof_unit_62032.cif
_audit_creation_date              2013-03-05T16:32:58-0500
_audit_creation_method            fapswitch 2.2
_symmetry_space_group_name_H-M    P1
_symmetry_Int_Tables_number       1
_space_group_crystal_system       triclinic
_cell_length_a                    15.942273
_cell_length_b                    15.942221
_cell_length_c                    51.420134
_cell_angle_alpha                 89.999875
_cell_angle_beta                  89.999944
_cell_angle_gamma                 90.049464
_cell_volume                      13068.6915971

loop_
_atom_site_label
_atom_site_type_symbol
_atom_site_description
_atom_site_fract_x
_atom_site_fract_y
_atom_site_fract_z
_atom_type_partial_charge
Zn1   Zn    Zn3+2 0.900880 0.500000 0.727850 1.073650
Zn2   Zn    Zn3+2 0.099120 0.500000 0.272150 1.076465
Zn3   Zn    Zn3+2 0.500000 0.900880 0.727850 1.075940
Zn4   Zn    Zn3+2 0.500000 0.099120 0.272150 1.073110
Zn5   Zn    Zn3+2 0.099120 0.500000 0.727850 1.076430
Zn6   Zn    Zn3+2 0.900880 0.500000 0.272150 1.073675
Zn7   Zn    Zn3+2 0.500000 0.099120 0.727850 1.073137
Zn8   Zn    Zn3+2 0.500000 0.900880 0.272150 1.075874
Zn9   Zn    Zn3+2 0.400880 0.000000 0.227850 1.075425
Zn10  Zn    Zn3+2 0.599120 0.000000 0.772150 1.073609
Zn11  Zn    Zn3+2 0.000000 0.400880 0.227850 1.074024
Zn12  Zn    Zn3+2 0.000000 0.599120 0.772150 1.075952
Zn13  Zn    Zn3+2 0.599120 0.000000 0.227850 1.073513
Zn14  Zn    Zn3+2 0.400880 0.000000 0.772150 1.075519
Zn15  Zn    Zn3+2 0.000000 0.599120 0.227850 1.075931
Zn16  Zn    Zn3+2 0.000000 0.400880 0.772150 1.074045
C1    C     C_R   0.059923 0.558906 0.638302 0.198437
C2    C     C_R   0.944206 0.458287 0.364264 0.190096
C3    C     C_R   0.441077 0.940054 0.638307 0.198436
C4    C     C_R   0.541094 0.056245 0.364270 0.190286
C5    C     C_R   0.944210 0.458282 0.635736 0.190088
C6    C     C_R   0.059925 0.558904 0.361697 0.198443
C7    C     C_R   0.541563 0.055885 0.635734 0.190117
C8    C     C_R   0.441437 0.939707 0.361709 0.198565
C9    C     C_R   0.558714 0.049540 0.137105 0.194463
C10   C     C_R   0.441286 0.950461 0.862895 0.194556
C11   C     C_R   0.947465 0.443949 0.137158 0.193722
C12   C     C_R   0.052537 0.556049 0.862842 0.193818
C13   C     C_R   0.441285 0.950462 0.137105 0.194557
C14   C     C_R   0.558714 0.049541 0.862895 0.194463
C15   C     C_R   0.052535 0.556051 0.137158 0.193819
C16   C     C_R   0.947464 0.443949 0.862842 0.193721
C17   C     C_R   0.062176 0.563091 0.610974 0.227720
C18   C     C_R   0.947120 0.463147 0.391653 0.243377
C19   C     C_R   0.436827 0.937841 0.610979 0.227725
C20   C     C_R   0.536170 0.053391 0.391655 0.243295
C21   C     C_R   0.947125 0.463139 0.608347 0.243387
C22   C     C_R   0.062177 0.563091 0.389026 0.227710
C23   C     C_R   0.536635 0.053016 0.608347 0.243373
C24   C     C_R   0.437188 0.937511 0.389036 0.227634
C25   C     C_R   0.558469 0.049117 0.109737 0.235974
C26   C     C_R   0.441531 0.950886 0.890263 0.235979
C27   C     C_R   0.947646 0.444397 0.109783 0.236634
C28   C     C_R   0.052357 0.555600 0.890217 0.236642
C29   C     C_R   0.441530 0.950887 0.109737 0.235981
C30   C     C_R   0.558468 0.049118 0.890262 0.235972
C31   C     C_R   0.052354 0.555603 0.109782 0.236643
C32   C     C_R   0.947645 0.444397 0.890217 0.236634
O1    O     O_3   0.000000 0.500000 0.750000 -0.536194
O2    O     O_3   1.000000 0.500000 0.250000 -0.536201
O3    O     O_3   0.500000 0.000000 0.750000 -0.536293
O4    O     O_3   0.500000 0.000000 0.250000 -0.536310
O5    O     O_R   0.000000 0.430630 0.807650 -0.604734
O6    O     O_R   0.000000 0.569370 0.192350 -0.604996
O7    O     O_R   0.569370 0.000000 0.807650 -0.603932
O8    O     O_R   0.430630 0.000000 0.192350 -0.604173
O9    O     O_R   0.000000 0.569370 0.807650 -0.604998
O10   O     O_R   0.000000 0.430630 0.192350 -0.604730
O11   O     O_R   0.430630 0.000000 0.807650 -0.604194
O12   O     O_R   0.569370 0.000000 0.192350 -0.603910
O13   O     O_R   0.500000 0.930630 0.307650 -0.604509
O14   O     O_R   0.500000 0.069370 0.692350 -0.603423
O15   O     O_R   0.069370 0.500000 0.307650 -0.604773
O16   O     O_R   0.930630 0.500000 0.692350 -0.603534
O17   O     O_R   0.500000 0.069370 0.307650 -0.603296
O18   O     O_R   0.500000 0.930630 0.692350 -0.604629
O19   O     O_R   0.930630 0.500000 0.307650 -0.603530
O20   O     O_R   0.069370 0.500000 0.692350 -0.604786
C33   C     C_R   0.006202 0.515169 0.595997 0.045084
C34   C     C_R   0.006199 0.515174 0.404003 0.045101
C35   C     C_R   0.484642 0.993899 0.596000 0.045084
C36   C     C_R   0.484603 0.993923 0.404009 0.045078
C37   C     C_R   0.499999 0.000002 0.096100 0.044250
C38   C     C_R   0.499999 0.000002 0.903899 0.044249
C39   C     C_R   0.000000 0.500000 0.096133 0.044161
C40   C     C_R   0.000001 0.499998 0.903867 0.044161
O21   O     O_R   0.902350 0.666510 0.764820 -0.628361
O22   O     O_R   0.097650 0.333490 0.235180 -0.628849
O23   O     O_R   0.333490 0.902350 0.764820 -0.615246
O24   O     O_R   0.666510 0.097650 0.235180 -0.614362
O25   O     O_R   0.097650 0.333490 0.764820 -0.628831
O26   O     O_R   0.902350 0.666510 0.235180 -0.628377
O27   O     O_R   0.666510 0.097650 0.764820 -0.614327
O28   O     O_R   0.333490 0.902350 0.235180 -0.615289
O29   O     O_R   0.902350 0.333490 0.235180 -0.615047
O30   O     O_R   0.097650 0.666510 0.764820 -0.615942
O31   O     O_R   0.333490 0.097650 0.235180 -0.628211
O32   O     O_R   0.666510 0.902350 0.764820 -0.628651
O33   O     O_R   0.097650 0.666510 0.235180 -0.615961
O34   O     O_R   0.902350 0.333490 0.764820 -0.615028
O35   O     O_R   0.666510 0.902350 0.235180 -0.628676
O36   O     O_R   0.333490 0.097650 0.764820 -0.628178
O37   O     O_R   0.402350 0.166510 0.264820 -0.628229
O38   O     O_R   0.597650 0.833490 0.735180 -0.628605
O39   O     O_R   0.833490 0.402350 0.264820 -0.616810
O40   O     O_R   0.166510 0.597650 0.735180 -0.612669
O41   O     O_R   0.597650 0.833490 0.264820 -0.628552
O42   O     O_R   0.402350 0.166510 0.735180 -0.628311
O43   O     O_R   0.166510 0.597650 0.264820 -0.612633
O44   O     O_R   0.833490 0.402350 0.735180 -0.616844
O45   O     O_R   0.402350 0.833490 0.735180 -0.612811
O46   O     O_R   0.597650 0.166510 0.264820 -0.616898
O47   O     O_R   0.833490 0.597650 0.735180 -0.628243
O48   O     O_R   0.166510 0.402350 0.264820 -0.628508
O49   O     O_R   0.597650 0.166510 0.735180 -0.617003
O50   O     O_R   0.402350 0.833490 0.264820 -0.612679
O51   O     O_R   0.166510 0.402350 0.735180 -0.628540
O52   O     O_R   0.833490 0.597650 0.264820 -0.628217
O53   O     O_2   0.406898 0.111998 0.930777 -0.443981
O54   O     O_2   0.593101 0.888006 0.069223 -0.443980
O55   O     O_2   0.901921 0.607687 0.930788 -0.444073
O56   O     O_2   0.098081 0.392311 0.069212 -0.444070
O57   O     O_2   0.593101 0.888007 0.930777 -0.443980
O58   O     O_2   0.406898 0.111999 0.069223 -0.443979
O59   O     O_2   0.098081 0.392309 0.930788 -0.444069
O60   O     O_2   0.901920 0.607688 0.069212 -0.444072
O61   O     O_2   0.908956 0.623881 0.430998 -0.443303
O62   O     O_2   0.105194 0.408510 0.568978 -0.444732
O63   O     O_2   0.375459 0.090738 0.430985 -0.443238
O64   O     O_2   0.591496 0.895165 0.568968 -0.444780
O65   O     O_2   0.105186 0.408508 0.431022 -0.444725
O66   O     O_2   0.908952 0.623872 0.569002 -0.443299
O67   O     O_2   0.591673 0.895433 0.431046 -0.444801
O68   O     O_2   0.375684 0.090913 0.569020 -0.443265
C41   C     C_R   0.000000 0.500000 0.820180 0.957404
C42   C     C_R   1.000000 0.500000 0.179820 0.957410
C43   C     C_R   0.500000 0.000000 0.820192 0.950932
C44   C     C_R   0.500000 0.000000 0.179808 0.950967
C45   C     C_R   0.499334 0.999882 0.320234 0.951285
C46   C     C_R   0.499347 0.999883 0.679768 0.952432
C47   C     C_R   0.000118 0.500647 0.320232 0.952374
C48   C     C_R   0.000118 0.500647 0.679768 0.952391
C49   C     C_R   0.839672 0.660329 0.750000 0.862380
C50   C     C_R   0.160330 0.339672 0.250000 0.860458
C51   C     C_R   0.339678 0.839686 0.749998 0.889211
C52   C     C_R   0.660314 0.160322 0.249998 0.884011
C53   C     C_R   0.160330 0.339672 0.750000 0.860478
C54   C     C_R   0.839672 0.660329 0.250000 0.862363
C55   C     C_R   0.660314 0.160321 0.750002 0.884162
C56   C     C_R   0.339678 0.839686 0.250002 0.889096
C57   C     C_R   0.839678 0.339686 0.249998 0.884819
C58   C     C_R   0.160314 0.660321 0.749998 0.889871
C59   C     C_R   0.339670 0.160328 0.250000 0.861628
C60   C     C_R   0.660328 0.839670 0.750000 0.859834
C61   C     C_R   0.160314 0.660321 0.250002 0.889852
C62   C     C_R   0.839678 0.339686 0.750002 0.884840
C63   C     C_R   0.660328 0.839670 0.250000 0.859732
C64   C     C_R   0.339670 0.160328 0.750000 0.861740
C65   C     C_R   0.001150 0.505903 0.650893 -0.335376
C66   C     C_R   0.001150 0.505904 0.349107 -0.335360
C67   C     C_R   0.494046 0.998865 0.650893 -0.335478
C68   C     C_R   0.494011 0.998860 0.349112 -0.335643
C69   C     C_R   0.500000 0.000001 0.150965 -0.336387
C70   C     C_R   0.500000 0.000001 0.849035 -0.336373
C71   C     C_R   1.000000 0.500000 0.150998 -0.335177
C72   C     C_R   0.000000 0.499999 0.849002 -0.335173
C73   C     C_1   0.776576 0.276588 0.750004 -0.078197
C74   C     C_1   0.223412 0.723424 0.250004 -0.075081
C75   C     C_1   0.723426 0.776574 0.750000 -0.103895
C76   C     C_1   0.276574 0.223426 0.250000 -0.104310
C77   C     C_1   0.223412 0.723424 0.749996 -0.075079
C78   C     C_1   0.776576 0.276588 0.249996 -0.078198
C79   C     C_1   0.276574 0.223425 0.750000 -0.104327
C80   C     C_1   0.723426 0.776574 0.250000 -0.103892
C81   C     C_1   0.776574 0.723426 0.250000 -0.104410
C82   C     C_1   0.223426 0.276574 0.750000 -0.103974
C83   C     C_1   0.723412 0.223424 0.249996 -0.077950
C84   C     C_1   0.276576 0.776588 0.749996 -0.074853
C85   C     C_1   0.223426 0.276574 0.250000 -0.103971
C86   C     C_1   0.776574 0.723426 0.750000 -0.104403
C87   C     C_1   0.276576 0.776588 0.250004 -0.074823
C88   C     C_1   0.723412 0.223424 0.750004 -0.077980
C89   C     C_R   0.455009 0.059509 0.944843 0.652272
C90   C     C_R   0.544990 0.940496 0.055157 0.652270
C91   C     C_R   0.952449 0.557470 0.944837 0.652070
C92   C     C_R   0.047553 0.442528 0.055163 0.652071
C93   C     C_R   0.544990 0.940496 0.944843 0.652270
C94   C     C_R   0.455010 0.059509 0.055157 0.652270
C95   C     C_R   0.047553 0.442526 0.944837 0.652071
C96   C     C_R   0.952448 0.557471 0.055163 0.652071
C97   C     C_R   0.962829 0.576894 0.444925 0.652927
C98   C     C_R   0.063415 0.466550 0.555062 0.651573
C99   C     C_R   0.422691 0.037113 0.444925 0.652971
C100  C     C_R   0.533341 0.936813 0.555060 0.651519
C101  C     C_R   0.063411 0.466553 0.444938 0.651580
C102  C     C_R   0.962830 0.576889 0.555075 0.652925
C103  C     C_R   0.533400 0.936935 0.444949 0.651495
C104  C     C_R   0.422786 0.037161 0.555085 0.652976
N1    N     N_R   0.499999 0.000002 0.931949 -0.333396
N2    N     N_R   0.499999 0.000003 0.068051 -0.333396
N3    N     N_R   0.000001 0.499998 0.931930 -0.333284
N4    N     N_R   0.000000 0.500000 0.068070 -0.333285
N5    N     N_R   0.010272 0.519112 0.432058 -0.332833
N6    N     N_R   0.010274 0.519108 0.567942 -0.332835
N7    N     N_R   0.480656 0.989874 0.432064 -0.332842
N8    N     N_R   0.480679 0.989834 0.567946 -0.332840
C105  C     C_R   0.541863 0.935148 0.972343 -0.142180
C106  C     C_R   0.458137 0.064857 0.027657 -0.142180
C107  C     C_R   0.044587 0.437002 0.972339 -0.142472
C108  C     C_R   0.955414 0.562995 0.027661 -0.142471
C109  C     C_R   0.458136 0.064857 0.972342 -0.142180
C110  C     C_R   0.541863 0.935148 0.027658 -0.142180
C111  C     C_R   0.955415 0.562995 0.972339 -0.142471
C112  C     C_R   0.044587 0.437003 0.027661 -0.142472
C113  C     C_R   0.072274 0.471394 0.472350 -0.142070
C114  C     C_R   0.968485 0.585299 0.527655 -0.142688
C115  C     C_R   0.528512 0.928003 0.472356 -0.142069
C116  C     C_R   0.414380 0.031515 0.527664 -0.142666
C117  C     C_R   0.968483 0.585301 0.472345 -0.142684
C118  C     C_R   0.072275 0.471390 0.527649 -0.142064
C119  C     C_R   0.414339 0.031504 0.472349 -0.142680
C120  C     C_R   0.528491 0.927947 0.527649 -0.142080
C121  C     C_R   0.500000 0.000003 0.986186 -0.070442
C122  C     C_R   0.500000 0.000003 0.013813 -0.070442
C123  C     C_R   0.000001 0.499999 0.986185 -0.070581
C124  C     C_R   0.000001 0.499999 0.013815 -0.070580
C125  C     C_R   0.020432 0.528398 0.486179 -0.072134
C126  C     C_R   0.020433 0.528397 0.513821 -0.072134
C127  C     C_R   0.471372 0.979697 0.486184 -0.072139
C128  C     C_R   0.471378 0.979685 0.513825 -0.072138
C129  C     C_R   0.578143 0.867286 0.986299 0.270746
C130  C     C_R   0.421857 0.132720 0.013701 0.270747
C131  C     C_R   0.083669 0.370721 0.986297 0.270064
C132  C     C_R   0.916331 0.629276 0.013703 0.270063
C133  C     C_R   0.421857 0.132720 0.986298 0.270747
C134  C     C_R   0.578143 0.867285 0.013701 0.270746
C135  C     C_R   0.916332 0.629276 0.986297 0.270064
C136  C     C_R   0.083670 0.370721 0.013703 0.270064
C137  C     C_R   0.132062 0.422939 0.486286 0.270279
C138  C     C_R   0.925870 0.649378 0.513716 0.270971
C139  C     C_R   0.577053 0.868277 0.486286 0.270276
C140  C     C_R   0.350226 0.074031 0.513727 0.270980
C141  C     C_R   0.925866 0.649378 0.486285 0.270961
C142  C     C_R   0.132060 0.422933 0.513712 0.270269
C143  C     C_R   0.350204 0.074025 0.486294 0.270969
C144  C     C_R   0.577042 0.868247 0.513711 0.270257
Br1   Br    Br    0.622268 0.768394 0.968901 -0.182571
Br2   Br    Br    0.377734 0.231612 0.031098 -0.182570
Br3   Br    Br    0.131790 0.273736 0.968893 -0.178975
Br4   Br    Br    0.868207 0.726260 0.031107 -0.178974
Br5   Br    Br    0.377733 0.231611 0.968901 -0.182571
Br6   Br    Br    0.622267 0.768394 0.031099 -0.182569
Br7   Br    Br    0.868210 0.726260 0.968893 -0.178975
Br8   Br    Br    0.131794 0.273739 0.031107 -0.178974
Br9   Br    Br    0.221029 0.361770 0.468799 -0.179367
Br10  Br    Br    0.873490 0.743763 0.531212 -0.180781
Br11  Br    Br    0.638289 0.779383 0.468787 -0.179291
Br12  Br    Br    0.255794 0.126315 0.531227 -0.180863
Br13  Br    Br    0.873464 0.743753 0.468791 -0.180825
Br14  Br    Br    0.221012 0.361738 0.531198 -0.179433
Br15  Br    Br    0.255767 0.126360 0.468811 -0.180896
Br16  Br    Br    0.638321 0.779344 0.531191 -0.179341
Br17  Br    Br    0.139405 0.637625 0.593723 -0.242118
Br18  Br    Br    0.873673 0.395120 0.412607 -0.228592
Br19  Br    Br    0.362360 0.860535 0.593734 -0.242087
Br20  Br    Br    0.603499 0.127525 0.412593 -0.228457
Br21  Br    Br    0.873682 0.395108 0.587394 -0.228522
Br22  Br    Br    0.139412 0.637619 0.406276 -0.242170
Br23  Br    Br    0.604522 0.126577 0.587388 -0.228515
Br24  Br    Br    0.363217 0.859741 0.406287 -0.242072
Br25  Br    Br    0.635561 0.118752 0.090592 -0.234653
Br26  Br    Br    0.364439 0.881250 0.909408 -0.234662
Br27  Br    Br    0.872591 0.372514 0.090656 -0.235796
Br28  Br    Br    0.127415 0.627479 0.909344 -0.235805
Br29  Br    Br    0.364437 0.881253 0.090592 -0.234661
Br30  Br    Br    0.635559 0.118754 0.909408 -0.234654
Br31  Br    Br    0.127409 0.627486 0.090656 -0.235803
Br32  Br    Br    0.872588 0.372515 0.909344 -0.235798
N9    N     N_R   0.115300 0.611144 0.653226 0.257058
O69   O     O_R   0.084991 0.665334 0.669644 -0.363000
O70   O     O_R   0.196170 0.603961 0.650693 -0.255463
N10   N     N_R   0.885691 0.402473 0.351975 0.256475
O71   O     O_R   0.912233 0.344044 0.336348 -0.353406
O72   O     O_R   0.805612 0.410398 0.356162 -0.254347
N11   N     N_R   0.388933 0.884598 0.653233 0.257094
O73   O     O_R   0.334707 0.914824 0.669654 -0.362872
O74   O     O_R   0.396226 0.803739 0.650695 -0.255481
N12   N     N_R   0.596423 0.115217 0.351987 0.256700
O75   O     O_R   0.655492 0.089117 0.336518 -0.352269
O76   O     O_R   0.587405 0.195262 0.356023 -0.254792
N13   N     N_R   0.885697 0.402466 0.648025 0.256493
O77   O     O_R   0.912240 0.344038 0.663653 -0.353314
O78   O     O_R   0.805617 0.410391 0.643838 -0.254407
N14   N     N_R   0.115306 0.611137 0.346773 0.257035
O79   O     O_R   0.085002 0.665330 0.330356 -0.363098
O80   O     O_R   0.196176 0.603948 0.349307 -0.255377
N15   N     N_R   0.597348 0.114439 0.648018 0.256534
O81   O     O_R   0.655852 0.087933 0.663624 -0.353116
O82   O     O_R   0.589318 0.194518 0.643849 -0.254457
N16   N     N_R   0.389659 0.883882 0.346793 0.257297
O83   O     O_R   0.335083 0.913725 0.330416 -0.362291
O84   O     O_R   0.397570 0.803077 0.349318 -0.255548
N17   N     N_R   0.616449 0.102890 0.150731 0.257391
O85   O     O_R   0.588752 0.160140 0.166584 -0.355860
O86   O     O_R   0.696886 0.093839 0.147540 -0.255537
N18   N     N_R   0.383552 0.897110 0.849270 0.257334
O87   O     O_R   0.411250 0.839861 0.833416 -0.356327
O88   O     O_R   0.303115 0.906159 0.852460 -0.255656
N19   N     N_R   0.891458 0.388858 0.150823 0.255708
O89   O     O_R   0.836856 0.419130 0.167115 -0.361045
O90   O     O_R   0.895574 0.308171 0.147269 -0.253375
N20   N     N_R   0.108544 0.611139 0.849177 0.255647
O91   O     O_R   0.163145 0.580867 0.832884 -0.361494
O92   O     O_R   0.104430 0.691827 0.852731 -0.253507
N21   N     N_R   0.383550 0.897112 0.150730 0.257335
O93   O     O_R   0.411247 0.839862 0.166583 -0.356308
O94   O     O_R   0.303113 0.906163 0.147540 -0.255658
N22   N     N_R   0.616448 0.102891 0.849269 0.257390
O95   O     O_R   0.588749 0.160141 0.833416 -0.355881
O96   O     O_R   0.696885 0.093843 0.852460 -0.255535
N23   N     N_R   0.108541 0.611143 0.150822 0.255648
O97   O     O_R   0.163144 0.580871 0.167115 -0.361482
O98   O     O_R   0.104425 0.691830 0.147268 -0.253510
N24   N     N_R   0.891456 0.388860 0.849177 0.255707
O99   O     O_R   0.836855 0.419133 0.832885 -0.361058
O100  O     O_R   0.895569 0.308172 0.852731 -0.253372

loop_
_geom_bond_atom_site_label_1
_geom_bond_atom_site_label_2
_geom_bond_distance
_ccdc_geom_bond_type
O57   C93   1.346376 S    
C6    C66   1.417627 A    
C21   C33   1.406049 A    
C142  Br14  1.942559 S    
C111  C135  1.421637 A    
Zn12  O1    1.947879 S    
C62   C73   1.422025 S    
C109  C133  1.421639 A    
Zn14  O11   1.886024 S    
C54   C81   1.423177 S    
C111  C123  1.421957 A    
N14   O79   1.301242 A    
C21   Br21  1.925064 S    
C63   C80   1.423179 S    
O53   C89   1.346374 S    
C6    C22   1.407276 A    
C89   C109  1.417481 A    
C137  C142  1.410243 A    
C14   N22   1.435294 S    
N10   O71   1.301206 A    
C50   C85   1.423180 S    
Zn4   O46   1.927928 S    
C51   C84   1.422027 S    
N15   O82   1.300931 A    
C139  C144  1.410177 A    
C98   N6    1.363699 A    
C138  Br10  1.942404 S    
C17   C33   1.404223 A    
C29   Br29  1.926064 S    
C19   C35   1.404211 A    
Zn13  O35   1.929424 S    
Zn5   O1    1.947883 S    
Zn9   O4    1.947887 S    
Zn10  O3    1.947882 S    
C53   C82   1.423180 S    
O62   C98   1.346446 S    
C27   C39   1.404901 A    
Zn15  O6    1.886024 S    
C11   N19   1.435603 S    
O12   C44   1.280223 A    
Zn16  O1    1.947876 S    
C45   C68   1.487432 S    
C1    N9    1.435453 S    
C9    C25   1.407283 A    
Zn13  O12   1.886024 S    
C120  C128  1.419842 A    
N24   O99   1.301243 A    
C12   C28   1.407658 A    
C13   C29   1.407283 A    
C49   C86   1.423178 S    
Zn7   O14   1.886024 S    
O17   C45   1.282962 A    
C136  Br8   1.944745 S    
C16   N24   1.435602 S    
C110  C122  1.422096 A    
O22   C50   1.260453 A    
C116  C140  1.421332 A    
N18   O87   1.301226 A    
N9    O70   1.300973 A    
C106  C122  1.422095 A    
Zn5   O51   1.929424 S    
C31   Br31  1.926113 S    
C95   C107  1.417687 A    
C9    N17   1.435294 S    
C139  Br11  1.942536 S    
Zn12  O30   1.927928 S    
O38   C60   1.260454 A    
C117  C125  1.419909 A    
O26   C54   1.260454 A    
C6    N14   1.435452 S    
C34   N5    1.445409 S    
C119  C143  1.421379 A    
O8    C44   1.280223 A    
C91   C111  1.417683 A    
C14   C70   1.416522 A    
C95   N3    1.362290 A    
C103  C115  1.418572 A    
C23   C35   1.406036 A    
C3    C19   1.407262 A    
C2    C66   1.416553 A    
N24   O100  1.300961 A    
O52   C54   1.260447 A    
C75   C86   1.198786 T    
O14   C46   1.282887 A    
C113  C137  1.421272 A    
C58   C77   1.422027 S    
O35   C63   1.260453 A    
C24   Br24  1.926707 S    
C59   C76   1.423178 S    
O33   C61   1.260469 A    
Zn10  O32   1.929425 S    
O48   C50   1.260453 A    
C107  C123  1.421955 A    
C4    N12   1.435063 S    
C105  C129  1.421640 A    
O9    C41   1.279895 A    
O66   C102  1.346393 S    
O11   C43   1.280223 A    
C98   C118  1.418722 A    
C28   C40   1.404899 A    
C5    N13   1.435219 S    
Zn2   O2    1.947882 S    
C16   C72   1.416015 A    
O58   C94   1.346378 S    
C3    C67   1.417631 A    
C5    C65   1.416555 A    
Zn11  O10   1.886022 S    
Zn1   O47   1.929425 S    
C37   N2    1.442294 S    
O13   C45   1.279740 A    
C137  Br9   1.942561 S    
Zn3   O45   1.927928 S    
O43   C61   1.260444 A    
C57   C78   1.422027 S    
C93   C105  1.417480 A    
C19   Br19  1.926680 S    
O41   C63   1.260452 A    
C10   N18   1.435294 S    
C144  Br16  1.942533 S    
C22   Br22  1.926684 S    
C43   C70   1.483101 S    
C120  C144  1.421236 A    
N22   O96   1.300947 A    
Zn15  O26   1.929427 S    
O45   C51   1.260448 A    
N20   O92   1.300962 A    
C102  C114  1.419134 A    
O29   C57   1.260448 A    
O68   C104  1.346387 S    
C130  C133  1.409061 A    
C15   N23   1.435602 S    
C125  C126  1.421319 A    
C140  Br12  1.942458 S    
N17   O85   1.301225 A    
C96   C108  1.417687 A    
Zn15  O33   1.927930 S    
N19   O90   1.300960 A    
Zn12  O21   1.929426 S    
Zn9   O8    1.886023 S    
O63   C99   1.346374 S    
Zn14  O23   1.927928 S    
Zn6   O2    1.947882 S    
Zn10  O7    1.886023 S    
C132  Br4   1.944749 S    
O5    C41   1.279893 A    
Zn12  O9    1.886022 S    
Zn6   O19   1.886024 S    
O56   C92   1.346384 S    
O7    C43   1.280223 A    
Zn2   O43   1.927926 S    
O10   C42   1.279893 A    
C56   C87   1.422027 S    
N23   O98   1.300961 A    
Zn1   O16   1.886023 S    
Zn2   O15   1.886023 S    
C10   C26   1.407283 A    
C24   C36   1.404205 A    
C14   C30   1.407283 A    
C52   C83   1.422027 S    
N13   O78   1.300930 A    
C119  C127  1.419943 A    
C112  C124  1.421957 A    
C18   Br18  1.925065 S    
N14   O80   1.300974 A    
C31   C39   1.404900 A    
Zn9   O31   1.929425 S    
C27   Br27  1.926112 S    
O54   C90   1.346376 S    
Zn11  O29   1.927928 S    
Zn16  O25   1.929427 S    
C108  C124  1.421959 A    
C25   C37   1.404420 A    
Zn4   O37   1.929426 S    
N10   O72   1.300931 A    
Zn6   O39   1.927928 S    
N12   O75   1.301256 A    
C8    N16   1.435410 S    
C20   C36   1.405990 A    
C22   C34   1.404221 A    
Zn16  O34   1.927930 S    
O36   C64   1.260451 A    
C92   C112  1.417688 A    
N11   O73   1.301244 A    
O27   C55   1.260447 A    
C141  Br13  1.942403 S    
C110  C134  1.421642 A    
C121  C122  1.420584 A    
O25   C53   1.260451 A    
O6    C42   1.279894 A    
C20   Br20  1.925059 S    
C80   C81   1.198786 T    
C94   N2    1.362043 A    
C133  Br5   1.944857 S    
Zn10  O27   1.927926 S    
C90   C110  1.417475 A    
N16   O83   1.301246 A    
O20   C48   1.279665 A    
C32   C40   1.404898 A    
C104  N8    1.363692 A    
C7    C67   1.416564 A    
C8    C68   1.417728 A    
O16   C48   1.282908 A    
C99   N7    1.363701 A    
C76   C85   1.198787 T    
Zn7   O49   1.927930 S    
O15   C47   1.279665 A    
C97   N5    1.363677 A    
C18   C34   1.406052 A    
C41   C72   1.482062 S    
C42   C71   1.482067 S    
N18   O88   1.300948 A    
Zn13  O24   1.927928 S    
C15   C31   1.407658 A    
N9    O69   1.301245 A    
C48   C65   1.487235 S    
C16   C32   1.407663 A    
C1    C17   1.407275 A    
Zn5   O20   1.886024 S    
Zn1   O44   1.927926 S    
C2    N10   1.435222 S    
C102  N6    1.363674 A    
C11   C71   1.416013 A    
O19   C47   1.282908 A    
C26   C38   1.404422 A    
C9    C69   1.416521 A    
C79   C82   1.198786 T    
C127  C128  1.421309 A    
Zn3   O3    1.947883 S    
C100  N8    1.363671 A    
C129  C134  1.409056 A    
C4    C68   1.416565 A    
O51   C53   1.260452 A    
N19   O89   1.301242 A    
O49   C55   1.260467 A    
C38   N1    1.442294 S    
O50   C56   1.260448 A    
Zn14  O3    1.947882 S    
C30   Br30  1.926062 S    
C113  C125  1.419826 A    
C55   C88   1.422027 S    
C60   C75   1.423180 S    
C109  C121  1.422093 A    
C23   Br23  1.925072 S    
C44   C69   1.483106 S    
C90   N2    1.362046 A    
O39   C57   1.260468 A    
Zn3   O18   1.886022 S    
C107  C131  1.421635 A    
C132  C135  1.409210 A    
Zn5   O40   1.927928 S    
C105  C121  1.422093 A    
O30   C58   1.260468 A    
C104  C116  1.419185 A    
C106  C130  1.421640 A    
Zn8   O50   1.927930 S    
C28   Br28  1.926112 S    
C15   C71   1.416014 A    
O23   C51   1.260468 A    
O24   C52   1.260448 A    
C25   Br25  1.926061 S    
Zn7   O3    1.947878 S    
C131  Br3   1.944747 S    
Zn11  O2    1.947883 S    
C91   N3    1.362291 A    
C61   C74   1.422025 S    
O42   C64   1.260450 A    
C33   N6    1.445409 S    
C118  C142  1.421281 A    
C123  C124  1.420759 A    
O46   C52   1.260468 A    
C134  Br6   1.944859 S    
Zn9   O28   1.927926 S    
C4    C20   1.411063 A    
C11   C27   1.407658 A    
C5    C21   1.411200 A    
N17   O86   1.300947 A    
N21   O93   1.301222 A    
C129  Br1   1.944860 S    
C46   C67   1.487236 S    
O64   C100  1.346465 S    
C47   C66   1.487241 S    
C7    N15   1.435218 S    
C116  C128  1.419891 A    
N23   O97   1.301242 A    
Zn7   O42   1.929427 S    
C114  C138  1.421295 A    
C143  Br15  1.942449 S    
C26   Br26  1.926062 S    
C36   N7    1.445373 S    
C114  C126  1.419902 A    
Zn4   O4    1.947879 S    
O55   C91   1.346383 S    
C97   C117  1.419133 A    
N11   O74   1.300972 A    
C73   C88   1.198112 T    
C135  Br7   1.944745 S    
Zn4   O17   1.886022 S    
O61   C97   1.346390 S    
C74   C87   1.198114 T    
C92   N4    1.362289 A    
C32   Br32  1.926110 S    
C99   C119  1.419240 A    
Zn13  O4    1.947883 S    
C138  C141  1.410526 A    
C29   C37   1.404422 A    
Zn15  O2    1.947878 S    
Zn16  O5    1.886024 S    
C3    N11   1.435440 S    
N15   O81   1.301205 A    
O44   C62   1.260467 A    
Zn2   O48   1.929425 S    
C112  C136  1.421634 A    
O37   C59   1.260454 A    
Zn8   O13   1.886024 S    
C94   C106  1.417480 A    
O21   C49   1.260454 A    
C100  C120  1.418628 A    
C93   N1    1.362043 A    
C108  C132  1.421634 A    
C101  C113  1.418713 A    
C96   N4    1.362286 A    
C131  C136  1.409210 A    
N21   O94   1.300948 A    
N13   O77   1.301206 A    
O40   C58   1.260445 A    
C130  Br2   1.944860 S    
C140  C143  1.410583 A    
Zn8   O41   1.929427 S    
Zn11  O22   1.929426 S    
C12   N20   1.435603 S    
C13   N21   1.435295 S    
C2    C18   1.411197 A    
Zn14  O36   1.929424 S    
N12   O76   1.300950 A    
C10   C70   1.416522 A    
C30   C38   1.404423 A    
N22   O95   1.301223 A    
C13   C69   1.416520 A    
O60   C96   1.346384 S    
Zn8   O4    1.947876 S    
N20   O91   1.301241 A    
C103  N7    1.363652 A    
C64   C79   1.423177 S    
C1    C65   1.417627 A    
C101  N5    1.363694 A    
C115  C127  1.419798 A    
C118  C126  1.419829 A    
C17   Br17  1.926683 S    
C39   N4    1.443003 S    
O47   C49   1.260450 A    
O34   C62   1.260449 A    
C40   N3    1.443003 S    
C115  C139  1.421191 A    
C35   N8    1.445385 S    
C7    C23   1.411179 A    
C89   N1    1.362044 A    
C8    C24   1.407259 A    
Zn3   O38   1.929426 S    
N16   O84   1.300973 A    
O67   C103  1.346479 S    
C117  C141  1.421304 A    
C77   C84   1.198114 T    
O65   C101  1.346450 S    
C78   C83   1.198112 T    
O28   C56   1.260467 A    
C12   C72   1.416014 A    
Zn6   O52   1.929424 S    
O31   C59   1.260451 A    
Zn1   O1    1.947887 S    
O32   C60   1.260454 A    
O59   C95   1.346385 S    
O18   C46   1.279687 A    
