data_mof_unit_41404.cif
_audit_creation_date              2013-03-05T16:48:30-0500
_audit_creation_method            fapswitch 2.2
_symmetry_space_group_name_H-M    P1
_symmetry_Int_Tables_number       1
_space_group_crystal_system       triclinic
_cell_length_a                    10.894543
_cell_length_b                    14.756879
_cell_length_c                    14.919943
_cell_angle_alpha                 64.620888
_cell_angle_beta                  104.396627
_cell_angle_gamma                 103.224981
_cell_volume                      2078.55573382

loop_
_atom_site_label
_atom_site_type_symbol
_atom_site_description
_atom_site_fract_x
_atom_site_fract_y
_atom_site_fract_z
_atom_type_partial_charge
O1    O     O_R   0.455540 0.022090 0.338120 -0.553467
O2    O     O_R   0.544460 0.977910 0.661880 -0.556880
O3    O     O_R   0.512510 0.160150 0.379180 -0.604802
O4    O     O_R   0.487490 0.839850 0.620820 -0.602654
C1    C     C_R   0.482244 0.119882 0.312821 0.830438
C2    C     C_R   0.521350 0.879935 0.687357 0.827108
O5    O     O_R   0.291160 0.930970 0.479480 -0.549928
O6    O     O_R   0.708840 0.069030 0.520520 -0.542266
O7    O     O_R   0.348130 0.069020 0.520540 -0.591060
O8    O     O_R   0.651870 0.930980 0.479460 -0.597159
C3    C     C_R   0.263161 0.997935 0.503966 0.799411
C4    C     C_R   0.736926 0.001853 0.496344 0.800112
Cu1   Cu    Cu3+1 0.466270 0.918260 0.475690 0.988975
Cu2   Cu    Cu3+1 0.533730 0.081740 0.524310 0.991118
H1    H     H_    0.427636 0.258623 0.753068 0.166004
H2    H     H_    0.572759 0.729120 0.259624 0.141736
C5    C     C_R   0.359671 0.114343 0.741810 -0.050527
C6    C     C_R   0.640064 0.875913 0.264921 -0.027671
H3    H     H_    0.428094 0.074725 0.805281 0.205243
H4    H     H_    0.571049 0.913275 0.200633 0.189226
C7    C     C_R   0.271547 0.061625 0.689232 -0.095866
C8    C     C_R   0.728195 0.931637 0.314437 -0.075071
H5    H     H_    0.271418 0.981031 0.714021 0.110600
H6    H     H_    0.727565 0.012463 0.286845 0.110255
C9    C     C_R   0.186551 0.113306 0.603269 0.136620
C10   C     C_R   0.814057 0.882553 0.401143 0.131720
C11   C     C_R   0.187385 0.217595 0.573836 -0.148033
C12   C     C_R   0.814670 0.777941 0.433925 -0.150679
H7    H     H_    0.122195 0.258793 0.508283 0.131895
H8    H     H_    0.880856 0.738751 0.499891 0.131822
C13   C     C_R   0.273068 0.269348 0.628662 -0.145683
C14   C     C_R   0.729232 0.723259 0.381965 -0.125568
H9    H     H_    0.273445 0.349636 0.605674 0.149684
H10   H     H_    0.730212 0.642805 0.407389 0.145860
C15   C     C_R   0.359766 0.217929 0.712092 -0.074240
C16   C     C_R   0.640872 0.771965 0.298379 -0.043927
C17   C     C_R   0.964940 0.062019 0.535272 -0.183777
C18   C     C_R   0.035364 0.936922 0.466286 -0.180612
H11   H     H_    0.938762 0.110192 0.563190 0.206867
H12   H     H_    0.061647 0.888129 0.439271 0.211372
C19   C     C_R   0.870356 0.002761 0.493075 -0.098847
C20   C     C_R   0.129852 0.996523 0.507933 -0.101700
C21   C     C_R   0.906232 0.940889 0.455612 -0.007497
C22   C     C_R   0.094096 0.057694 0.546196 -0.008299
C23   C     C_R   0.489342 0.187674 0.207204 -0.114118
C24   C     C_R   0.538677 0.811424 0.794521 -0.129083
C25   C     C_R   0.513879 0.214694 0.039737 0.339543
C26   C     C_R   0.590305 0.785811 0.970738 0.341199
C27   C     C_R   0.496104 0.149661 0.137861 -0.190432
C28   C     C_R   0.564160 0.849332 0.869165 -0.186357
C29   C     C_R   0.502676 0.292226 0.178688 -0.246118
C30   C     C_R   0.533790 0.707573 0.821882 -0.246994
C31   C     C_R   0.526730 0.360606 0.082253 0.049614
C32   C     C_R   0.555106 0.640092 0.923578 0.051819
C33   C     C_R   0.525981 0.320910 0.010477 0.030734
C34   C     C_R   0.580209 0.680086 0.998785 0.027588
C35   C     C_R   0.548304 0.467381 0.054971 0.099084
C36   C     C_R   0.548411 0.533750 0.952334 0.100861
C37   C     C_R   0.543581 0.491694 0.882192 -0.230141
C38   C     C_R   0.573102 0.509733 0.127597 -0.232945
C39   C     C_R   0.534270 0.387950 0.910991 -0.166516
C40   C     C_R   0.590094 0.613589 0.100066 -0.164369
H13   H     H_    0.530316 0.361098 0.853247 0.179099
H14   H     H_    0.606765 0.640824 0.159370 0.176291
H15   H     H_    0.508898 0.680709 0.762186 0.158415
H16   H     H_    0.491143 0.318594 0.232796 0.155006
H17   H     H_    0.565618 0.929062 0.848467 0.224303
H18   H     H_    0.492129 0.069113 0.160862 0.204920
H19   H     H_    0.551620 0.537254 0.804475 0.136780
H20   H     H_    0.584592 0.464457 0.207420 0.144013
N1    N     N_R   0.584450 0.204570 0.560790 -0.239048
N2    N     N_R   0.415550 0.795430 0.439210 -0.243827
C41   C     C_R   0.699645 0.281396 0.676179 -0.306542
C42   C     C_R   0.297586 0.719449 0.324000 -0.336975
C43   C     C_R   0.670319 0.200039 0.647255 0.508797
C44   C     C_R   0.328181 0.800268 0.353859 0.517640
C45   C     C_R   0.524162 0.288363 0.504498 -0.057410
C46   C     C_R   0.475049 0.711487 0.495179 -0.059944
C47   C     C_R   0.548281 0.372421 0.533447 -0.015269
C48   C     C_R   0.448888 0.627269 0.466477 -0.012958
C49   C     C_R   0.638993 0.366531 0.621039 0.074230
C50   C     C_R   0.357675 0.633581 0.378954 0.074296
C51   C     C_R   0.483984 0.460168 0.481330 0.079379
C52   C     C_R   0.512408 0.539280 0.518698 0.083130
C53   C     C_R   0.604382 0.528389 0.606294 -0.253146
C54   C     C_R   0.391628 0.471110 0.393881 -0.245045
C55   C     C_R   0.666420 0.443840 0.655999 -0.179720
C56   C     C_R   0.329497 0.555931 0.344254 -0.179005
H21   H     H_    0.735737 0.438291 0.723751 0.162622
H22   H     H_    0.259693 0.561504 0.276759 0.156055
H23   H     H_    0.545242 0.713936 0.559317 0.144866
H24   H     H_    0.454803 0.286154 0.439843 0.144429
H25   H     H_    0.767881 0.276369 0.744364 0.204512
H26   H     H_    0.228809 0.725327 0.255895 0.188804
H27   H     H_    0.630704 0.583810 0.639135 0.132866
H28   H     H_    0.365262 0.415448 0.361269 0.137057
N3    N     N_R   0.522811 0.171033 0.972531 0.100360
O9    O     O_R   0.450380 0.086789 0.975412 -0.322893
O10   O     O_R   0.619729 0.202233 0.925270 -0.366733
N4    N     N_R   0.631696 0.830655 0.043572 0.104252
O11   O     O_R   0.582422 0.908631 0.030759 -0.315695
O12   O     O_R   0.737797 0.810304 0.107003 -0.341350
N5    N     N_R   0.271035 0.889512 0.289819 0.142346
O13   O     O_R   0.293800 0.936578 0.198082 -0.354760
O14   O     O_R   0.166969 0.901260 0.308695 -0.360737
N6    N     N_R   0.725964 0.110564 0.714792 0.127265
O15   O     O_R   0.812351 0.083699 0.688676 -0.364541
O16   O     O_R   0.725146 0.079251 0.810538 -0.329356

loop_
_geom_bond_atom_site_label_1
_geom_bond_atom_site_label_2
_geom_bond_distance
_ccdc_geom_bond_type
C47   C51   1.432851 A    
C45   H24   1.075094 S    
C27   H18   1.080123 S    
C11   H7    1.083061 S    
C41   C43   1.389147 A    
Cu2   N1    2.030986 S    
C42   H26   1.084924 S    
C41   H25   1.085158 S    
C48   C52   1.430975 A    
N3    O9    1.300854 A    
C25   C27   1.397641 A    
O5    C3    1.306083 A    
C42   C44   1.389830 A    
O1    C1    1.305844 A    
C14   C16   1.396347 A    
C8    H6    1.083317 S    
C18   H12   1.078623 S    
C18   C20   1.398388 A    
C46   C48   1.429197 A    
N6    O15   1.296239 A    
C23   C29   1.395726 A    
C24   C30   1.398324 A    
C54   C56   1.384604 A    
C3    C20   1.463236 S    
C38   C40   1.385704 A    
C41   C49   1.383953 A    
O4    Cu1   1.951077 S    
C39   H13   1.080509 S    
N2    C46   1.365094 A    
C40   H14   1.081171 S    
C13   H9    1.082374 S    
C38   H20   1.078180 S    
C28   H17   1.078127 S    
N2    C44   1.372286 A    
C44   N5    1.426749 S    
C31   C33   1.421697 A    
Cu1   Cu2   2.703717 S    
C19   C21   1.417117 A    
O2    C2    1.306967 A    
C20   C22   1.416242 A    
C42   C50   1.388720 A    
O8    C4    1.297031 A    
C9    C22   1.485746 S    
H1    C15   1.080681 S    
N3    O10   1.301368 A    
C30   C32   1.408245 A    
C10   C21   1.486026 S    
C45   C47   1.431071 A    
C26   N4    1.434697 S    
C32   C34   1.422464 A    
C37   C39   1.387592 A    
C53   C55   1.380914 A    
C11   C13   1.397636 A    
C12   C14   1.397247 A    
C52   C53   1.407245 A    
C48   C50   1.412161 A    
C47   C49   1.411326 A    
C31   C35   1.425479 A    
C35   C38   1.412605 A    
C36   C37   1.413353 A    
C1    C23   1.470979 S    
C5    C7    1.396135 A    
C29   C31   1.406782 A    
C29   H16   1.077479 S    
C14   H10   1.082270 S    
O7    Cu2   1.976315 S    
C4    C19   1.463369 S    
C51   C52   1.440960 A    
C23   C27   1.394553 A    
O6    C4    1.306397 A    
N4    O12   1.301235 A    
N5    O14   1.298205 A    
O7    C3    1.297184 A    
C49   C55   1.392648 A    
O3    Cu2   1.951077 S    
C54   H28   1.076611 S    
C37   H19   1.076797 S    
O4    C2    1.301128 A    
C56   H22   1.084430 S    
C7    H5    1.083362 S    
C34   C40   1.397961 A    
O1    Cu1   1.959850 S    
N1    C45   1.368514 A    
C25   C33   1.418553 A    
C32   C36   1.427609 A    
C26   C34   1.416356 A    
C7    C9    1.406468 A    
O6    Cu2   1.975935 S    
C2    C24   1.471652 S    
C6    C8    1.396661 A    
O3    C1    1.301703 A    
O8    Cu1   1.976315 S    
Cu1   N2    2.030986 S    
C46   H23   1.074673 S    
C9    C11   1.406282 A    
C24   C28   1.392674 A    
C10   C12   1.406513 A    
C25   N3    1.435622 S    
C17   C22   1.388766 A    
C12   H8    1.083067 S    
C18   C21   1.387891 A    
C17   H11   1.079749 S    
H2    C16   1.081718 S    
N1    C43   1.377835 A    
C53   H27   1.075886 S    
C35   C36   1.420897 A    
N6    O16   1.301113 A    
C50   C56   1.394211 A    
C33   C39   1.398962 A    
C13   C15   1.396783 A    
C26   C28   1.395073 A    
N4    O11   1.300701 A    
C5    H3    1.080763 S    
C6    H4    1.080309 S    
C17   C19   1.399971 A    
O2    Cu2   1.959850 S    
O5    Cu1   1.975934 S    
C51   C54   1.407749 A    
C43   N6    1.431173 S    
C8    C10   1.406495 A    
N5    O13   1.300899 A    
C55   H21   1.084704 S    
C5    C15   1.397052 A    
C6    C16   1.396369 A    
C30   H15   1.075798 S    
