data_mof_unit_61123.cif
_audit_creation_date              2013-03-05T15:47:18-0500
_audit_creation_method            fapswitch 2.2
_symmetry_space_group_name_H-M    P1
_symmetry_Int_Tables_number       1
_space_group_crystal_system       triclinic
_cell_length_a                    22.751176
_cell_length_b                    30.42258
_cell_length_c                    19.031703
_cell_angle_alpha                 89.979268
_cell_angle_beta                  123.623983
_cell_angle_gamma                 89.991362
_cell_volume                      10968.8369147

loop_
_atom_site_label
_atom_site_type_symbol
_atom_site_description
_atom_site_fract_x
_atom_site_fract_y
_atom_site_fract_z
_atom_type_partial_charge
C1    C     C_R   0.126210 0.388584 0.067413 -0.083850
C2    C     C_R   0.126204 0.611394 0.067398 -0.079603
C3    C     C_R   0.622773 0.886318 0.066413 -0.109601
C4    C     C_R   0.622897 0.113579 0.066395 -0.102644
N1    N     N_R   0.075400 0.419050 0.040930 -0.049708
N2    N     N_R   0.075400 0.580950 0.040930 -0.049350
N3    N     N_R   0.575400 0.919050 0.040930 -0.052315
N4    N     N_R   0.575400 0.080950 0.040930 -0.050832
C5    C     C_R   0.061638 0.608803 0.928142 -0.079981
C6    C     C_R   0.061623 0.391203 0.928140 -0.074987
C7    C     C_R   0.560632 0.109279 0.927713 -0.069474
C8    C     C_R   0.560530 0.890647 0.927742 -0.066307
N5    N     N_R   0.035610 0.578860 0.956800 -0.054886
N6    N     N_R   0.035610 0.421140 0.956800 -0.055376
N7    N     N_R   0.535610 0.078860 0.956800 -0.055665
N8    N     N_R   0.535610 0.921140 0.956800 -0.056353
C9    C     C_R   0.969641 0.463285 0.768292 0.427195
C10   C     C_R   0.969650 0.536712 0.768269 0.437233
C11   C     C_R   0.470067 0.963317 0.768453 0.422188
C12   C     C_R   0.469972 0.036719 0.768410 0.424855
N9    N     N_R   0.976800 0.476930 0.840160 -0.135845
N10   N     N_R   0.976800 0.523070 0.840160 -0.136269
N11   N     N_R   0.476800 0.976930 0.840160 -0.135980
N12   N     N_R   0.476800 0.023070 0.840160 -0.136534
C13   C     C_R   0.195173 0.536032 0.223583 -0.057753
C14   C     C_R   0.195114 0.463835 0.223396 -0.033884
C15   C     C_R   0.700443 0.035959 0.196103 -0.038948
C16   C     C_R   0.700217 0.963850 0.195918 0.007478
N13   N     N_R   0.134210 0.520980 0.157560 -0.056159
N14   N     N_R   0.134210 0.479020 0.157560 -0.058900
N15   N     N_R   0.634210 0.020980 0.157560 -0.049292
N16   N     N_R   0.634210 0.979020 0.157560 -0.053695
C17   C     C_R   0.119540 0.370585 0.996883 0.027965
C18   C     C_R   0.119543 0.629407 0.996863 0.027308
C19   C     C_R   0.616452 0.868679 0.995998 0.028892
C20   C     C_R   0.616619 0.131193 0.995955 0.027339
C21   C     C_R   0.970759 0.499997 0.725656 -0.248454
C22   C     C_R   0.471399 0.000031 0.726015 -0.246816
C23   C     C_R   0.234713 0.499869 0.265848 0.003317
C24   C     C_R   0.742637 0.999796 0.217304 0.009782
C25   C     C_R   0.025246 0.463373 0.229892 0.427964
C26   C     C_R   0.025367 0.536639 0.229913 0.435084
C27   C     C_R   0.525686 0.963327 0.230061 0.429462
C28   C     C_R   0.525713 0.036621 0.230087 0.442928
N17   N     N_R   0.020160 0.476910 0.158980 -0.134832
N18   N     N_R   0.020160 0.523090 0.158980 -0.134947
N19   N     N_R   0.520160 0.976910 0.158980 -0.134595
N20   N     N_R   0.520160 0.023090 0.158980 -0.134894
C29   C     C_R   0.798615 0.536134 0.805645 0.001757
C30   C     C_R   0.798552 0.463944 0.805654 -0.009988
C31   C     C_R   0.305141 0.036184 0.775236 -0.035513
C32   C     C_R   0.305111 0.963946 0.775077 -0.055802
H1    H     H_    0.782046 0.569981 0.792634 0.143628
H2    H     H_    0.781939 0.430115 0.792745 0.142722
H3    H     H_    0.295714 0.069882 0.753529 0.179119
H4    H     H_    0.295623 0.930290 0.753192 0.168698
N21   N     N_R   0.864590 0.520950 0.843300 -0.056323
N22   N     N_R   0.864590 0.479050 0.843300 -0.053834
N23   N     N_R   0.364590 0.020950 0.843300 -0.063152
N24   N     N_R   0.364590 0.979050 0.843300 -0.059154
C33   C     C_R   0.874425 0.385187 0.933522 -0.099065
C34   C     C_R   0.874313 0.614773 0.933482 -0.089693
C35   C     C_R   0.370575 0.887606 0.932573 -0.074054
C36   C     C_R   0.370533 0.112394 0.932520 -0.072177
H5    H     H_    0.840166 0.372450 0.870308 0.146066
H6    H     H_    0.840034 0.627538 0.870267 0.146831
H7    H     H_    0.332759 0.877285 0.868323 0.132868
H8    H     H_    0.332703 0.122727 0.868259 0.140644
N25   N     N_R   0.919150 0.419020 0.955970 -0.053106
N26   N     N_R   0.919150 0.580980 0.955970 -0.055231
N27   N     N_R   0.419150 0.919020 0.955970 -0.049538
N28   N     N_R   0.419150 0.080980 0.955970 -0.051188
C37   C     C_R   0.942960 0.611252 0.074725 -0.077687
C38   C     C_R   0.943130 0.388652 0.074759 -0.074555
C39   C     C_R   0.441559 0.110623 0.074242 -0.080852
C40   C     C_R   0.441589 0.889378 0.074303 -0.079275
H9    H     H_    0.967552 0.621121 0.139089 0.201475
H10   H     H_    0.967895 0.378694 0.139115 0.201014
H11   H     H_    0.466570 0.121085 0.138390 0.200064
H12   H     H_    0.466603 0.878935 0.138492 0.198516
N29   N     N_R   0.965610 0.578840 0.046310 -0.056667
N30   N     N_R   0.965610 0.421160 0.046310 -0.057471
N31   N     N_R   0.465610 0.078840 0.046310 -0.055712
N32   N     N_R   0.465610 0.921160 0.046310 -0.056387
Ni1   Ni    Ni4+2 0.047340 0.448440 0.099050 0.284409
Ni2   Ni    Ni4+2 0.047340 0.551560 0.099050 0.284522
Ni3   Ni    Ni4+2 0.547340 0.948440 0.099050 0.297259
Ni4   Ni    Ni4+2 0.547340 0.051560 0.099050 0.295342
Ni5   Ni    Ni4+2 0.950540 0.549450 0.900950 0.295897
Ni6   Ni    Ni4+2 0.950540 0.450550 0.900950 0.297314
Ni7   Ni    Ni4+2 0.450540 0.049450 0.900950 0.283868
Ni8   Ni    Ni4+2 0.450540 0.950550 0.900950 0.283535
C41   C     C_R   0.022142 0.500014 0.271010 -0.246637
C42   C     C_R   0.522894 0.999960 0.271466 -0.248753
C43   C     C_R   0.756435 0.500081 0.785168 -0.011169
C44   C     C_R   0.266624 0.000121 0.731193 -0.000490
C45   C     C_R   0.886099 0.366736 0.006493 0.029756
C46   C     C_R   0.885887 0.633151 0.006428 0.030165
C47   C     C_R   0.382430 0.868869 0.005616 0.027632
C48   C     C_R   0.382376 0.131124 0.005530 0.027139
C49   C     C_3   0.447983 0.546172 0.507118 -0.564181
C50   C     C_3   0.463439 0.468005 0.473784 -0.584150
C51   C     C_3   0.984390 0.043624 0.387903 -0.567285
C52   C     C_3   0.992477 0.961538 0.368798 -0.548354
C53   C     C_3   0.543002 0.468693 0.547733 0.788080
C54   C     C_3   0.523264 0.550919 0.589683 0.775735
C55   C     C_3   0.073958 0.962892 0.439655 0.744998
C56   C     C_3   0.060417 0.049351 0.468800 0.769316
H13   H     H_    0.449224 0.554324 0.451234 0.229097
H14   H     H_    0.456033 0.479246 0.413698 0.220973
H15   H     H_    0.985999 0.046435 0.330809 0.226904
H16   H     H_    0.980984 0.966500 0.304684 0.222213
C57   C     C_1   0.682844 0.500283 0.738387 0.145335
C58   C     C_1   0.207533 0.000299 0.648330 0.132946
C59   C     C_3   0.417636 0.498039 0.491689 -0.163334
C60   C     C_3   0.950989 0.997320 0.383241 -0.140056
C61   C     C_3   0.548952 0.501022 0.619453 -0.359087
C62   C     C_3   0.084083 0.000416 0.506340 -0.344189
C63   C     C_3   0.498656 0.481332 0.645579 -0.563263
C64   C     C_3   0.034785 0.986698 0.537865 -0.578089
C65   C     C_3   0.418856 0.479394 0.569394 0.831709
C66   C     C_3   0.954690 0.985925 0.466290 0.822087
C67   C     C_1   0.620978 0.500732 0.689851 0.217660
C68   C     C_1   0.154277 0.000502 0.580797 0.207003
C69   C     C_1   0.348194 0.498853 0.415423 0.205213
C70   C     C_1   0.878249 0.998167 0.313672 0.141090
C71   C     C_1   0.294988 0.499562 0.347846 0.090645
C72   C     C_1   0.816337 0.999278 0.265072 0.085569
C73   C     C_1   0.159811 0.665986 0.996071 0.014053
C74   C     C_1   0.159812 0.334006 0.996110 0.017185
C75   C     C_1   0.657082 0.167537 0.994947 0.014021
C76   C     C_1   0.656823 0.832276 0.995012 0.017664
C77   C     C_1   0.194360 0.696768 0.997767 0.040114
C78   C     C_1   0.194355 0.303223 0.997793 0.043323
C79   C     C_1   0.692611 0.197745 0.996896 0.041025
C80   C     C_1   0.692293 0.802035 0.996946 0.044226
C81   C     C_1   0.235363 0.733014 0.001290 0.033017
C82   C     C_1   0.235338 0.266975 0.001276 0.035366
C83   C     C_1   0.735282 0.233057 0.001015 0.034040
C84   C     C_1   0.734916 0.766706 0.001024 0.037277
C85   C     C_1   0.771699 0.263200 0.004823 0.034374
C86   C     C_1   0.771317 0.736563 0.004791 0.038924
C87   C     C_1   0.270251 0.763990 0.004521 0.033777
C88   C     C_1   0.270209 0.235998 0.004465 0.035238
C89   C     C_1   0.813703 0.298794 0.008406 0.044194
C90   C     C_1   0.813333 0.700992 0.008332 0.049063
C91   C     C_1   0.310680 0.800446 0.007515 0.044035
C92   C     C_1   0.310617 0.199542 0.007415 0.044501
C93   C     C_1   0.848023 0.329492 0.009384 0.017141
C94   C     C_1   0.847702 0.670329 0.009295 0.021122
C95   C     C_1   0.344194 0.831599 0.008258 0.017140
C96   C     C_1   0.344126 0.168391 0.008140 0.017935
C97   C     C_1   0.019452 0.500021 0.345276 0.250406
C98   C     C_1   0.520209 0.999941 0.345729 0.243738
C99   C     C_1   0.012436 0.500019 0.403822 0.062644
C100  C     C_1   0.513133 0.999950 0.404230 0.061309
C101  C     C_1   0.000924 0.500014 0.469898 0.046986
C102  C     C_1   0.501548 0.999977 0.470248 0.050279
C103  C     C_1   0.990352 0.500007 0.525614 0.046501
C104  C     C_1   0.490946 0.000004 0.525939 0.052714
C105  C     C_1   0.979070 0.499999 0.591880 0.057646
C106  C     C_1   0.479677 0.000031 0.592213 0.064457
C107  C     C_1   0.972501 0.499994 0.650769 0.235948
C108  C     C_1   0.473141 0.000043 0.651125 0.241428
H17   H     H_    0.162314 0.378455 0.132209 0.132492
H18   H     H_    0.162306 0.621489 0.132193 0.134000
H19   H     H_    0.655455 0.873841 0.130059 0.145556
H20   H     H_    0.655691 0.125975 0.130064 0.143978
H21   H     H_    0.442121 0.434269 0.457706 0.259107
H22   H     H_    0.411523 0.571159 0.504217 0.255571
H23   H     H_    0.970121 0.928599 0.362831 0.260439
H24   H     H_    0.949752 0.071194 0.380407 0.251029
S1    S     S_3+6 0.577915 0.412431 0.588162 0.035824
O1    O     O_2   0.539656 0.380273 0.516455 -0.208042
O2    O     O_2   0.654793 0.410856 0.619388 -0.233539
O3    O     O_3   0.574529 0.393289 0.668659 -0.531562
H25   H     H_    0.593328 0.362942 0.678530 0.390985
S2    S     S_3+6 0.521240 0.584258 0.670042 0.033673
O4    O     O_2   0.596359 0.592512 0.741786 -0.271982
O5    O     O_2   0.487291 0.627653 0.630244 -0.188046
O6    O     O_3   0.479595 0.565645 0.714296 -0.485797
H26   H     H_    0.485560 0.589012 0.753988 0.391244
S3    S     S_3+6 0.107928 0.908344 0.490851 0.021308
O7    O     O_2   0.071971 0.873420 0.424072 -0.207828
O8    O     O_2   0.185721 0.906331 0.526849 -0.278324
O9    O     O_3   0.100577 0.893852 0.570863 -0.519519
H27   H     H_    0.120643 0.863832 0.587021 0.390999
S4    S     S_3+6 0.062862 0.089692 0.544138 0.041505
O10   O     O_2   0.138183 0.104172 0.603778 -0.252628
O11   O     O_2   0.020134 0.129200 0.494526 -0.187077
O12   O     O_3   0.034441 0.075727 0.605754 -0.490738
H28   H     H_    0.040427 0.102490 0.638739 0.395064
S5    S     S_3+6 0.359134 0.509527 0.588499 0.061721
O13   O     O_2   0.357057 0.558154 0.574278 -0.238947
O14   O     O_2   0.285085 0.492645 0.530284 -0.192955
O15   O     O_3   0.383515 0.500295 0.688377 -0.470033
H29   H     H_    0.346792 0.514783 0.692990 0.385959
S6    S     S_3+6 0.386271 0.422598 0.553972 0.021109
O16   O     O_2   0.435442 0.389395 0.555213 -0.240975
O17   O     O_2   0.376370 0.411023 0.623618 -0.202334
O18   O     O_3   0.307856 0.418056 0.461217 -0.517402
H30   H     H_    0.291991 0.387620 0.460302 0.386436
S7    S     S_3+6 0.902426 0.023613 0.486505 0.054489
O19   O     O_2   0.927545 0.020753 0.577955 -0.203832
O20   O     O_2   0.905312 0.070624 0.464924 -0.250775
O21   O     O_3   0.816969 0.008496 0.428545 -0.464154
H31   H     H_    0.792784 0.029095 0.444863 0.400995
S8    S     S_3+6 0.917600 0.931619 0.464062 0.016679
O22   O     O_2   0.916357 0.927212 0.541941 -0.201218
O23   O     O_2   0.843197 0.927650 0.388199 -0.268054
O24   O     O_3   0.963394 0.888772 0.462859 -0.497898
H32   H     H_    0.938678 0.862388 0.464499 0.391267
H33   H     H_    0.505931 0.497649 0.700915 0.266779
H34   H     H_    0.515465 0.448843 0.673548 0.265788
H35   H     H_    0.045671 0.005356 0.592725 0.256739
H36   H     H_    0.049590 0.954975 0.569153 0.268217
H37   H     H_    0.039008 0.617411 0.863388 0.195732
H38   H     H_    0.038961 0.382625 0.863363 0.192790
H39   H     H_    0.538644 0.117238 0.862858 0.196610
H40   H     H_    0.538469 0.882654 0.862906 0.194827
S9    S     S_3+6 0.925998 0.414469 0.715327 -0.025095
O25   O     O_2   0.974016 0.386926 0.702247 -0.286932
O26   O     O_2   0.904467 0.389185 0.765475 -0.313637
O27   O     O_3   0.853556 0.427522 0.620741 -0.485358
H41   H     H_    0.830360 0.399047 0.595264 0.399091
S10   S     S_3+6 0.926879 0.585855 0.715696 -0.030100
O28   O     O_2   0.862559 0.574939 0.630304 -0.223421
O29   O     O_2   0.904813 0.610974 0.765456 -0.320972
O30   O     O_3   0.981922 0.616463 0.703056 -0.552296
H42   H     H_    0.955151 0.643640 0.674728 0.389727
S11   S     S_3+6 0.427336 0.914337 0.715145 -0.038296
O31   O     O_2   0.475932 0.887665 0.701715 -0.281900
O32   O     O_2   0.406332 0.888152 0.764869 -0.324201
O33   O     O_3   0.354641 0.927272 0.620729 -0.505842
H43   H     H_    0.334849 0.898694 0.592399 0.409257
S12   S     S_3+6 0.427609 0.085903 0.715440 -0.036090
O34   O     O_2   0.362706 0.074908 0.630599 -0.209324
O35   O     O_2   0.406577 0.111910 0.765310 -0.330378
O36   O     O_3   0.482615 0.115655 0.701411 -0.546484
H44   H     H_    0.455832 0.142638 0.671902 0.393863
H45   H     H_    0.205607 0.569683 0.245449 0.157568
H46   H     H_    0.205462 0.430141 0.245102 0.158660
H47   H     H_    0.717172 0.069766 0.209353 0.127868
H48   H     H_    0.716679 0.929988 0.208990 0.135022
S13   S     S_3+6 0.070096 0.415354 0.286062 -0.040396
O37   O     O_2   0.021113 0.387026 0.296170 -0.293592
O38   O     O_2   0.096496 0.390285 0.240781 -0.334651
O39   O     O_3   0.139229 0.429831 0.382178 -0.463079
H49   H     H_    0.158535 0.401749 0.412984 0.393275
S14   S     S_3+6 0.069958 0.584809 0.285624 -0.038180
O40   O     O_2   0.131946 0.572352 0.371797 -0.215058
O41   O     O_2   0.096009 0.609738 0.239799 -0.338252
O42   O     O_3   0.014797 0.616420 0.296412 -0.549504
H50   H     H_    0.042774 0.642815 0.327243 0.392790
S15   S     S_3+6 0.571134 0.915353 0.285633 -0.025359
O43   O     O_2   0.522805 0.886423 0.295868 -0.291117
O44   O     O_2   0.597392 0.891019 0.239438 -0.317915
O45   O     O_3   0.640429 0.929720 0.381713 -0.472371
H51   H     H_    0.664263 0.901662 0.409125 0.398714
S16   S     S_3+6 0.570461 0.084833 0.285264 -0.034021
O46   O     O_2   0.632057 0.072587 0.371844 -0.237428
O47   O     O_2   0.597109 0.109010 0.239318 -0.324842
O48   O     O_3   0.515309 0.117066 0.294988 -0.548458
H52   H     H_    0.543246 0.143655 0.324771 0.391592
S17   S     S_3+6 0.579326 0.586451 0.569511 0.063072
O49   O     O_2   0.649669 0.566072 0.601228 -0.244586
O50   O     O_2   0.543472 0.597775 0.477667 -0.233570
O51   O     O_3   0.597532 0.635364 0.618975 -0.421026
H53   H     H_    0.629167 0.650585 0.606353 0.381715
S18   S     S_3+6 0.591679 0.482838 0.499511 0.056574
O52   O     O_2   0.585288 0.444716 0.445315 -0.214133
O53   O     O_2   0.561611 0.521806 0.442083 -0.233982
O54   O     O_3   0.678319 0.490204 0.572484 -0.454533
H54   H     H_    0.700385 0.492576 0.540060 0.406293
S19   S     S_3+6 0.116857 0.078634 0.442111 0.076745
O55   O     O_2   0.193394 0.069907 0.508154 -0.208351
O56   O     O_2   0.101459 0.068720 0.356563 -0.202270
O57   O     O_3   0.104845 0.133324 0.441178 -0.431690
H55   H     H_    0.143485 0.146688 0.438942 0.388434
S20   S     S_3+6 0.119989 0.970180 0.385407 0.071389
O58   O     O_2   0.134852 0.926120 0.362465 -0.186549
O59   O     O_2   0.075458 0.994000 0.302918 -0.228369
O60   O     O_3   0.198062 0.995680 0.446141 -0.420720
H56   H     H_    0.230305 0.973614 0.488229 0.382998

loop_
_geom_bond_atom_site_label_1
_geom_bond_atom_site_label_2
_geom_bond_distance
_ccdc_geom_bond_type
C17   C74   1.446608 S    
S7    O19   1.503894 D    
C4    C20   1.375554 A    
C77   C81   1.421891 S    
C59   C65   1.569538 S    
C11   S11   1.761819 S    
C8    H40   1.071459 S    
C99   C101  1.419442 S    
C26   C41   1.386201 A    
O18   H30   0.990504 S    
C86   C90   1.420446 S    
C91   C95   1.211655 T    
S19   O55   1.502720 D    
S20   O60   1.679371 S    
C80   C84   1.420495 S    
C56   S19   1.850095 S    
C53   C61   1.626387 S    
O27   H41   0.990488 S    
C40   N32   1.356330 A    
C62   C64   1.592888 S    
S15   O44   1.503314 D    
S2    O4    1.504748 D    
C3    H19   1.079959 S    
O48   H52   0.990503 S    
C2    N2    1.342924 A    
S1    O1    1.504288 D    
C48   C96   1.446629 S    
C40   C47   1.400704 A    
C87   C91   1.421856 S    
S7    O20   1.499317 D    
N13   N14   1.276528 A    
N21   Ni5   1.845133 S    
S4    O12   1.677272 S    
C1    N1    1.342942 A    
C36   H8    1.081291 S    
S4    O11   1.504488 D    
C7    C20   1.386528 A    
S19   O56   1.494382 D    
C10   C21   1.388996 A    
S20   O59   1.501217 D    
S9    O27   1.681685 S    
C3    N3    1.344936 A    
C61   C63   1.595466 S    
O42   H50   0.990501 S    
C30   C43   1.365454 A    
C92   C96   1.211470 T    
C16   C24   1.363314 A    
C49   H13   1.107480 S    
C24   C72   1.396420 S    
S15   O43   1.502960 D    
C49   C54   1.563050 S    
C27   C42   1.386749 A    
C29   N21   1.337251 A    
S12   O34   1.503156 D    
C34   N26   1.340357 A    
C50   C53   1.560914 S    
C51   H15   1.110552 S    
C26   N18   1.352654 A    
C37   N29   1.356159 A    
C4    N4    1.344868 A    
N26   N29   1.436947 A    
C5    N5    1.354793 A    
N6    Ni6   1.843020 S    
C35   C47   1.383582 A    
N25   N30   1.437018 A    
C10   S10   1.761642 S    
C20   C75   1.445758 S    
C52   C60   1.561637 S    
C7    N7    1.354908 A    
C100  C102  1.419478 S    
O57   H55   0.990682 S    
N3    Ni3   1.792511 S    
N27   Ni8   1.831464 S    
O36   H44   0.990506 S    
C18   C73   1.446882 S    
S8    O22   1.503963 D    
S5    O14   1.504344 D    
N11   N12   1.403701 A    
C103  C105  1.419475 S    
S6    O17   1.503978 D    
C51   C56   1.563199 S    
C50   C59   1.558873 S    
C1    H17   1.080846 S    
C97   C99   1.209927 T    
C10   N10   1.350466 A    
C32   N24   1.335268 A    
S17   O49   1.496507 D    
C2    H18   1.080867 S    
C55   C62   1.626119 S    
C98   C100  1.209961 T    
N29   Ni2   1.756633 S    
S5    O13   1.499821 D    
C88   C92   1.421576 S    
C31   C44   1.364422 A    
C21   C107  1.447548 S    
C58   C68   1.181256 T    
C2    C18   1.378192 A    
C50   H21   1.103751 S    
C22   C108  1.447614 S    
N31   Ni4   1.756633 S    
C81   C87   1.211641 T    
S15   O45   1.681757 S    
N23   N24   1.274703 A    
C101  C103  1.210228 T    
C34   C46   1.380230 A    
S13   O37   1.503093 D    
C102  C104  1.210231 T    
C13   H45   1.081008 S    
S18   O54   1.683163 S    
C44   C58   1.395132 S    
C74   C78   1.211443 T    
C38   N30   1.356193 A    
S16   O48   1.681470 S    
C55   S20   1.846390 S    
C43   C57   1.394640 S    
N8    Ni8   1.843020 S    
C65   S5    1.834606 S    
C27   N19   1.351975 A    
C105  C107  1.209930 T    
C64   C66   1.558119 S    
C38   C45   1.396422 A    
C106  C108  1.209882 T    
N9    Ni6   1.761959 S    
C63   C65   1.576939 S    
C13   N13   1.335214 A    
C37   C46   1.396188 A    
S7    O21   1.683402 S    
C25   C41   1.386294 A    
C23   C71   1.394961 S    
C34   H6    1.080237 S    
C15   N15   1.338934 A    
O12   H28   0.990616 S    
C30   N22   1.337963 A    
C8    N8    1.354717 A    
C16   N16   1.336617 A    
S19   O57   1.684562 S    
C9    S9    1.760880 S    
S20   O58   1.505164 D    
S16   O47   1.503325 D    
C6    N6    1.354609 A    
S3    O9    1.680116 S    
C52   H16   1.107499 S    
N28   Ni7   1.831748 S    
C39   C48   1.400444 A    
O21   H31   0.990577 S    
O15   H29   0.990535 S    
N23   Ni7   1.845133 S    
C66   S8    1.845055 S    
C12   S12   1.762547 S    
S14   O40   1.503368 D    
O6    H26   0.990608 S    
N16   Ni3   1.890921 S    
C47   C95   1.446924 S    
C9    N9    1.350322 A    
C4    H20   1.079973 S    
C55   S3    1.861456 S    
S4    O10   1.505125 D    
N4    Ni4   1.792208 S    
C104  C106  1.419425 S    
C66   S7    1.839293 S    
N17   Ni1   1.793078 S    
S3    O7    1.504363 D    
C35   H7    1.081314 S    
O30   H42   0.990505 S    
C11   C22   1.388251 A    
C56   C62   1.609255 S    
C28   S16   1.762964 S    
S9    O25   1.502880 D    
S17   O50   1.503254 D    
C64   H35   1.089823 S    
N19   N20   1.404918 A    
C57   C67   1.180967 T    
C3    C19   1.375391 A    
C15   C24   1.365688 A    
C76   C80   1.210735 T    
S5    O15   1.682749 S    
S6    O18   1.682422 S    
N20   Ni4   1.792769 S    
O54   H54   0.990498 S    
N1    N6    1.334863 A    
C49   H22   1.103655 S    
S11   O32   1.502966 D    
C62   C68   1.432549 S    
C29   C43   1.364629 A    
C8    C19   1.386227 A    
C25   S13   1.763071 S    
N22   Ni6   1.844483 S    
N13   Ni2   1.890231 S    
S6    O16   1.497605 D    
S1    O2    1.504497 D    
C60   C66   1.574070 S    
C63   H34   1.086563 S    
C52   H23   1.100929 S    
C73   C77   1.211622 T    
S8    O23   1.502678 D    
N3    N8    1.334863 A    
C35   N27   1.337389 A    
C14   N14   1.334152 A    
N4    N7    1.334932 A    
S10   O29   1.503272 D    
S13   O38   1.502883 D    
C54   C61   1.612244 S    
S8    O24   1.676674 S    
C51   H24   1.104590 S    
C49   C59   1.575838 S    
S18   O53   1.496246 D    
N17   N18   1.404918 A    
N26   Ni5   1.831748 S    
C31   N23   1.334601 A    
O33   H43   0.990406 S    
C9    C21   1.388770 A    
N25   Ni6   1.831464 S    
S10   O30   1.681364 S    
N12   Ni7   1.762258 S    
C7    H39   1.071577 S    
N28   N31   1.436947 A    
S11   O31   1.502991 D    
O39   H49   0.990389 S    
C6    H38   1.072425 S    
N27   N32   1.437018 A    
C46   C94   1.445422 S    
S1    O3    1.679923 S    
C5    H37   1.072115 S    
C53   S18   1.838285 S    
C45   C93   1.445785 S    
O3    H25   0.990615 S    
C54   S17   1.866859 S    
C70   C72   1.182305 T    
N15   Ni4   1.890231 S    
N5    Ni5   1.843676 S    
S18   O52   1.504957 D    
C56   S4    1.864955 S    
N15   N16   1.276528 A    
C33   C45   1.380280 A    
C40   H12   1.070926 S    
C84   C86   1.210750 T    
S16   O46   1.503280 D    
C59   C69   1.436579 S    
C78   C82   1.421620 S    
C60   C70   1.437276 S    
S2    O5    1.504740 D    
C14   H46   1.081083 S    
C90   C94   1.210728 T    
N32   Ni3   1.757241 S    
C85   C89   1.420797 S    
C64   H36   1.084812 S    
N30   Ni1   1.757241 S    
C79   C83   1.420837 S    
C75   C79   1.210943 T    
N2    Ni2   1.792208 S    
S12   O36   1.681309 S    
C33   N25   1.340349 A    
C12   N12   1.351246 A    
C63   H33   1.091002 S    
S3    O8    1.504204 D    
C51   C60   1.579700 S    
C61   C67   1.431402 S    
N1    Ni1   1.792511 S    
C30   H2    1.076979 S    
C82   C88   1.211459 T    
C13   C23   1.365390 A    
N2    N5    1.334932 A    
C42   C98   1.448073 S    
C83   C85   1.210966 T    
C39   N31   1.356218 A    
N21   N22   1.274703 A    
C5    C18   1.389848 A    
C39   H11   1.070749 S    
S14   O42   1.681421 S    
C50   H14   1.113247 S    
C29   H1    1.077050 S    
C41   C97   1.448211 S    
C12   C22   1.388349 A    
N10   Ni5   1.762258 S    
S12   O35   1.503036 D    
C15   H47   1.077153 S    
C32   C44   1.365487 A    
C6    C17   1.389731 A    
C31   H3    1.081290 S    
C36   N28   1.337406 A    
C33   H5    1.080272 S    
C14   C23   1.364176 A    
S17   O51   1.685670 S    
N14   Ni1   1.890921 S    
C65   S6    1.838776 S    
S2    O6    1.676687 S    
C28   C42   1.386933 A    
S11   O33   1.681381 S    
C1    C17   1.378269 A    
N7    Ni7   1.843676 S    
O24   H32   0.990455 S    
C28   N20   1.351986 A    
C11   N11   1.351404 A    
C36   C48   1.383482 A    
O51   H53   0.990773 S    
C26   S14   1.763872 S    
C37   H9    1.070051 S    
S9    O26   1.503265 D    
S10   O28   1.503191 D    
C38   H10   1.069953 S    
S13   O39   1.681784 S    
O45   H51   0.990490 S    
O60   H56   0.989491 S    
C69   C71   1.181377 T    
C25   N17   1.353134 A    
N11   Ni8   1.761959 S    
C53   S1    1.863975 S    
C16   H48   1.077010 S    
C27   S15   1.762144 S    
O9    H27   0.990599 S    
N9    N10   1.403701 A    
N24   Ni8   1.844483 S    
S14   O41   1.503050 D    
C19   C76   1.445415 S    
C54   S2    1.857110 S    
C52   C55   1.577425 S    
C89   C93   1.210949 T    
C32   H4    1.081328 S    
N19   Ni3   1.793078 S    
N18   Ni2   1.792769 S    
