data_mof_unit_15455.cif
_audit_creation_date              2012-10-26T19:04:22-0400
_audit_creation_method            fapswitch 2.2
_symmetry_space_group_name_H-M    P1
_symmetry_Int_Tables_number       1
_space_group_crystal_system       triclinic
_cell_length_a                    14.874734
_cell_length_b                    15.578434
_cell_length_c                    9.657521
_cell_angle_alpha                 91.350506
_cell_angle_beta                  90.183918
_cell_angle_gamma                 90.217332
_cell_volume                      2237.23973604

loop_
_atom_site_label
_atom_site_type_symbol
_atom_type_description
_atom_site_fract_x
_atom_site_fract_y
_atom_site_fract_z
_atom_type_partial_charge
C1    C     C_R   0.381049 0.881861 0.498683 0.523722
C2    C     C_R   0.773110 0.167931 0.511123 -0.111056
C3    C     C_R   0.252810 0.312406 0.416139 -0.160100
C4    C     C_R   0.273110 0.667932 0.511132 -0.111052
C5    C     C_R   0.677044 0.806979 0.499649 0.001864
C6    C     C_R   0.682170 0.188616 0.502342 0.037781
C7    C     C_R   0.177044 0.306980 0.499649 0.001865
C8    C     C_R   0.182170 0.688617 0.502341 0.037778
C9    C     C_R   0.660887 0.970707 0.144915 -0.069607
C10   C     C_R   0.160887 0.470706 0.144915 -0.069606
C11   C     C_R   0.731174 0.928688 0.078432 -0.170057
C12   C     C_R   0.378266 0.115618 0.500896 0.514143
C13   C     C_R   0.231173 0.428687 0.078433 -0.170056
C14   C     C_R   0.728505 0.917136 0.936528 -0.154348
C15   C     C_R   0.228504 0.417135 0.936529 -0.154348
C16   C     C_R   0.663992 0.962032 0.862384 0.066296
C17   C     C_R   0.163991 0.462031 0.862384 0.066297
C18   C     C_R   0.579918 0.983633 0.926439 0.170340
C19   C     C_R   0.079917 0.483633 0.926439 0.170340
C20   C     C_R   0.579127 0.984993 0.075313 0.151356
C21   C     C_R   0.079127 0.484992 0.075313 0.151355
C22   C     C_R   0.424299 0.014160 0.073717 0.004395
C23   C     C_R   0.881049 0.381861 0.498683 0.523722
C24   C     C_R   0.924299 0.514160 0.073717 0.004395
C25   C     C_R   0.618195 0.118886 0.500923 0.528879
C26   C     C_R   0.615569 0.878816 0.499465 0.512950
C27   C     C_R   0.118195 0.618886 0.500923 0.528879
C28   C     C_R   0.115570 0.378816 0.499464 0.512949
C29   C     C_R   0.424426 0.014625 0.926351 0.002784
C30   C     C_R   0.924426 0.514625 0.926351 0.002784
C31   C     C_R   0.214729 0.097695 0.669977 -0.118620
C32   C     C_R   0.192958 0.924844 0.456722 -0.110112
C33   C     C_R   0.714732 0.597697 0.669985 -0.118621
C34   C     C_R   0.878266 0.615618 0.500896 0.514144
C35   C     C_R   0.692957 0.424845 0.456739 -0.110112
C36   C     C_R   0.136775 0.089952 0.748330 -0.125209
C37   C     C_R   0.101987 0.945422 0.446899 -0.116940
C38   C     C_R   0.636780 0.589956 0.748343 -0.125210
C39   C     C_R   0.601985 0.445424 0.446928 -0.116941
C40   C     C_R   0.571409 0.653284 0.744701 -0.126050
C41   C     C_R   0.536878 0.381574 0.458806 -0.124738
C42   C     C_R   0.071404 0.153279 0.744688 -0.126050
C43   C     C_R   0.036880 0.881572 0.458774 -0.124736
C44   C     C_R   0.583824 0.724934 0.663219 -0.110943
C45   C     C_R   0.316127 0.248148 0.415568 -0.158825
C46   C     C_R   0.562525 0.296620 0.478162 -0.095277
C47   C     C_R   0.083821 0.224931 0.663211 -0.110942
C48   C     C_R   0.062526 0.796619 0.478139 -0.095277
C49   C     C_R   0.663048 0.735041 0.584324 0.025818
C50   C     C_R   0.654224 0.274381 0.486844 0.033250
C51   C     C_R   0.163047 0.235040 0.584319 0.025818
C52   C     C_R   0.154225 0.774381 0.486833 0.033248
C53   C     C_R   0.229348 0.170104 0.587004 0.021726
C54   C     C_R   0.220125 0.839584 0.479484 0.022325
C55   C     C_R   0.729349 0.670105 0.587008 0.021726
C56   C     C_R   0.337360 0.732135 0.509770 -0.133542
C57   C     C_R   0.720125 0.339585 0.479493 0.022326
C58   C     C_R   0.306590 0.178437 0.502578 -0.002959
C59   C     C_R   0.311437 0.817355 0.495207 0.011270
C60   C     C_R   0.806589 0.678437 0.502578 -0.002959
C61   C     C_R   0.811437 0.317354 0.495207 0.011271
C62   C     C_2   0.709985 0.019810 0.768651 0.291489
C63   C     C_2   0.209984 0.519808 0.768651 0.291488
C64   C     C_R   0.816125 0.748146 0.415564 -0.158825
C65   C     C_R   0.837360 0.232134 0.509761 -0.133544
C66   C     C_R   0.752808 0.812404 0.416136 -0.160099
Cu1   Cu    Cu3+1 0.499990 0.000000 0.640660 0.947577
Cu2   Cu    Cu3+1 0.999990 0.500000 0.640660 0.947579
Cu3   Cu    Cu3+1 0.500010 0.000000 0.359340 0.925910
Cu4   Cu    Cu3+1 0.000010 0.500000 0.359340 0.925909
H1    H     H_    0.374387 0.254247 0.349415 0.127294
H2    H     H_    0.241657 0.975875 0.445508 0.112996
H3    H     H_    0.761499 0.545053 0.672868 0.131518
H4    H     H_    0.741656 0.475876 0.445522 0.112994
H5    H     H_    0.126441 0.033820 0.810406 0.122146
H6    H     H_    0.081984 0.011172 0.430540 0.123680
H7    H     H_    0.626447 0.533825 0.810422 0.122146
H8    H     H_    0.581981 0.511174 0.430576 0.123682
H9    H     H_    0.510288 0.646441 0.804061 0.131574
H10   H     H_    0.466318 0.397832 0.452223 0.104764
H11   H     H_    0.010282 0.146435 0.804045 0.131574
H12   H     H_    0.407637 0.715159 0.518273 0.104854
H13   H     H_    0.966320 0.897829 0.452181 0.104762
H14   H     H_    0.529800 0.770894 0.661215 0.148673
H15   H     H_    0.510403 0.248675 0.486971 0.120994
H16   H     H_    0.029798 0.270892 0.661207 0.148672
H17   H     H_    0.010404 0.748674 0.486946 0.120995
H18   H     H_    0.764361 0.868171 0.354289 0.104087
H19   H     H_    0.794450 0.101816 0.518718 0.098422
H20   H     H_    0.264364 0.368174 0.354296 0.104084
H21   H     H_    0.294449 0.601817 0.518732 0.098426
H22   H     H_    0.361880 0.025417 0.128229 0.121160
H23   H     H_    0.874383 0.754243 0.349407 0.127293
H24   H     H_    0.861880 0.525418 0.128229 0.121160
H25   H     H_    0.673416 0.992181 0.248986 0.173215
H26   H     H_    0.173416 0.492181 0.248985 0.173215
H27   H     H_    0.791532 0.912199 0.134405 0.113835
H28   H     H_    0.291531 0.412197 0.134406 0.113837
H29   H     H_    0.741496 0.994379 0.675241 0.071481
H30   H     H_    0.241495 0.494377 0.675240 0.071480
H31   H     H_    0.907637 0.215158 0.518257 0.104854
H32   H     H_    0.789068 0.893965 0.885859 0.112526
H33   H     H_    0.289067 0.393963 0.885859 0.112526
H34   H     H_    0.362180 0.026311 0.872127 0.112525
H35   H     H_    0.862180 0.526312 0.872127 0.112523
H36   H     H_    0.261497 0.045051 0.672861 0.131517
N1    N     N_R   0.501200 0.000000 0.147910 -0.242579
N2    N     N_R   0.001200 0.500000 0.147910 -0.242579
N3    N     N_R   0.501270 1.000000 0.852040 -0.242987
N4    N     N_R   0.001270 0.500000 0.852040 -0.242987
O1    O     O_R   0.409820 0.909830 0.618810 -0.510234
O2    O     O_R   0.590170 0.909830 0.618760 -0.534090
O3    O     O_R   0.090170 0.590170 0.618760 -0.456531
O4    O     O_R   0.090170 0.409830 0.618760 -0.534089
O5    O     O_R   0.590190 0.090180 0.381190 -0.523972
O6    O     O_R   0.590190 0.909820 0.381190 -0.514624
O7    O     O_R   0.090190 0.590180 0.381190 -0.523973
O8    O     O_R   0.090190 0.409820 0.381190 -0.514623
O9    O     O_2   0.720746 0.095266 0.802379 -0.503999
O10   O     O_2   0.220747 0.595264 0.802378 -0.504001
O11   O     O_R   0.409820 0.090170 0.618810 -0.510247
O12   O     O_R   0.909820 0.409830 0.618810 -0.510233
O13   O     O_R   0.909820 0.590170 0.618810 -0.510247
O14   O     O_R   0.409840 0.909830 0.381240 -0.493413
O15   O     O_R   0.409840 0.090170 0.381240 -0.508560
O16   O     O_R   0.909840 0.409830 0.381240 -0.493412
O17   O     O_R   0.909840 0.590170 0.381240 -0.508561
O18   O     O_R   0.590170 0.090170 0.618760 -0.456532

loop_
_geom_bond_atom_site_label_1
_geom_bond_atom_site_label_2
_ccdc_geom_bond_type
C44   C49   A    
C33   C55   A    
C35   H4    S    
C34   O13   A    
C22   C29   A    
C45   H1    S    
C43   H13   S    
C36   C42   A    
C18   N3    A    
C65   H31   S    
C4    C8    A    
C2    C65   A    
C41   H10   S    
Cu3   N1    S    
C39   C41   A    
C30   N4    A    
C3    H20   S    
C29   N3    A    
C19   C21   A    
C25   O18   A    
C64   H23   S    
C3    C7    A    
C1    C59   S    
C66   H18   S    
C11   C14   A    
C14   H32   S    
C6    C25   S    
Cu4   O7    S    
C22   N1    A    
C13   H28   S    
Cu1   N3    S    
C12   O11   A    
C34   O17   A    
C46   H15   S    
C41   C46   A    
C24   N2    A    
C10   H26   S    
C43   C48   A    
C9    H25   S    
C40   C44   A    
Cu2   O3    S    
C20   N1    A    
C12   C58   S    
Cu2   Cu4   S    
Cu4   O16   S    
Cu3   O15   S    
C55   C60   A    
C4    C56   A    
C34   C60   S    
C5    C49   A    
C2    C6    A    
C42   H11   S    
C16   C62   S    
Cu1   O11   S    
Cu2   O13   S    
C32   C54   A    
C52   C54   A    
C23   O12   A    
C24   C30   A    
C54   C59   A    
C27   O7    A    
C10   C21   A    
C45   C58   A    
C48   H17   S    
C47   H16   S    
C32   H2    S    
Cu2   O12   S    
C47   C51   A    
C12   O15   A    
Cu3   O14   S    
C49   C55   A    
C3    C45   A    
C31   C53   A    
C7    C28   S    
C5    C26   S    
C29   H34   S    
Cu1   Cu3   S    
C64   C66   A    
C37   C43   A    
C2    H19   S    
C35   C39   A    
C39   H8    S    
C63   H30   S    
C36   H5    S    
C24   H24   S    
C9    C20   A    
C23   C61   S    
C40   H9    S    
Cu2   N4    S    
C32   C37   A    
C6    C50   A    
C57   C61   A    
C9    C11   A    
C62   O9    D    
C28   O4    A    
C23   O16   A    
C27   O3    A    
Cu1   O1    S    
C37   H6    S    
C13   C15   A    
C30   H35   S    
C31   H36   S    
C14   C16   A    
C26   O2    A    
C19   N4    A    
C33   H3    S    
C15   C17   A    
C8    C52   A    
Cu3   O5    S    
C50   C57   A    
Cu3   O6    S    
C5    C66   A    
C44   H14   S    
C10   C13   A    
C53   C58   A    
C56   H12   S    
C38   H7    S    
C46   C50   A    
C33   C38   A    
C56   C59   A    
C60   C64   A    
C11   H27   S    
C15   H33   S    
C4    H21   S    
C25   O5    A    
C1    O14   A    
C7    C51   A    
Cu4   O17   S    
C28   O8    A    
Cu1   O18   S    
C1    O1    A    
C38   C40   A    
C63   O10   D    
Cu4   O8    S    
C17   C19   A    
C18   C20   A    
C42   C47   A    
C26   O6    A    
C21   N2    A    
C62   H29   S    
C61   C65   A    
Cu1   O2    S    
C48   C52   A    
C16   C18   A    
C35   C57   A    
C8    C27   S    
C22   H22   S    
C31   C36   A    
Cu4   N2    S    
C51   C53   A    
C17   C63   S    
Cu2   O4    S    
