data_mof_unit_40646.cif
_audit_creation_date              2013-03-05T16:07:22-0500
_audit_creation_method            fapswitch 2.2
_symmetry_space_group_name_H-M    P1
_symmetry_Int_Tables_number       1
_space_group_crystal_system       triclinic
_cell_length_a                    9.608422
_cell_length_b                    10.769484
_cell_length_c                    17.07844
_cell_angle_alpha                 87.292856
_cell_angle_beta                  95.148081
_cell_angle_gamma                 88.429261
_cell_volume                      1757.25546862

loop_
_atom_site_label
_atom_site_type_symbol
_atom_site_description
_atom_site_fract_x
_atom_site_fract_y
_atom_site_fract_z
_atom_type_partial_charge
O1    O     O_R   0.618740 0.319660 0.500000 -0.513949
O2    O     O_R   0.381260 0.680340 0.500000 -0.525445
O3    O     O_R   0.381170 0.319630 0.500010 -0.586215
O4    O     O_R   0.618830 0.680370 0.499990 -0.576630
C1    C     C_R   0.501205 0.262407 0.500179 0.830907
C2    C     C_R   0.498757 0.737590 0.499738 0.812113
O5    O     O_R   0.631780 0.498870 0.613920 -0.511656
O6    O     O_R   0.368220 0.501130 0.386080 -0.483951
O7    O     O_R   0.394210 0.498840 0.613930 -0.600326
O8    O     O_R   0.605790 0.501160 0.386070 -0.607413
C3    C     C_R   0.518686 0.501810 0.650690 0.854623
C4    C     C_R   0.481309 0.498228 0.349304 0.849710
Cu1   Cu    Cu3+1 0.640660 0.500020 0.500000 1.063027
Cu2   Cu    Cu3+1 0.359340 0.499980 0.500000 1.069598
C5    C     C_R   0.530936 0.505770 0.736790 -0.158121
C6    C     C_R   0.469066 0.494301 0.263197 -0.140184
C7    C     C_R   0.425344 0.452544 0.777697 -0.238291
C8    C     C_R   0.574930 0.547136 0.222320 -0.251751
C9    C     C_R   0.431476 0.453536 0.859135 -0.121888
C10   C     C_R   0.568874 0.546080 0.140888 -0.121223
C11   C     C_R   0.544456 0.507890 0.901695 0.319437
C12   C     C_R   0.455695 0.492067 0.098294 0.319080
C13   C     C_R   0.651448 0.558501 0.861389 -0.222865
C14   C     C_R   0.348459 0.441823 0.138566 -0.230208
C15   C     C_R   0.645196 0.560413 0.779126 0.289372
C16   C     C_R   0.354617 0.439983 0.220823 0.323748
N1    N     N_2   0.553898 0.515454 0.984654 -0.227575
N2    N     N_2   0.446270 0.484494 0.015334 -0.226565
H1    H     H_    0.662843 0.590116 0.253464 0.195771
H2    H     H_    0.337605 0.409292 0.746575 0.193321
H3    H     H_    0.652937 0.587503 0.111626 0.181579
H4    H     H_    0.347640 0.411795 0.888431 0.179422
H5    H     H_    0.737536 0.601340 0.894267 0.189146
H6    H     H_    0.262213 0.399232 0.105667 0.187002
C17   C     C_R   0.406055 0.063785 0.542732 -0.127108
C18   C     C_R   0.593547 0.936206 0.456874 -0.144515
H7    H     H_    0.333763 0.112640 0.576599 0.164932
H8    H     H_    0.665818 0.887334 0.423004 0.165053
C19   C     C_R   0.404312 0.935263 0.542335 -0.064486
C20   C     C_R   0.595204 0.064742 0.457215 -0.064160
H9    H     H_    0.332290 0.885590 0.576718 0.182058
H10   H     H_    0.667086 0.114425 0.422742 0.176379
C21   C     C_R   0.497542 0.871576 0.499093 -0.032630
C22   C     C_R   0.502211 0.128418 0.500616 -0.007687
C23   C     C_R   0.086820 0.411429 0.541879 -0.112311
C24   C     C_R   0.913234 0.588682 0.458202 -0.109521
H11   H     H_    0.154149 0.340613 0.573760 0.193004
H12   H     H_    0.846013 0.659646 0.426371 0.190560
C25   C     C_R   0.939680 0.409190 0.542880 0.465876
C26   C     C_R   0.060383 0.590799 0.457119 0.512564
N3    N     N_R   0.852070 0.500030 0.499980 -0.248553
N4    N     N_R   0.147930 0.499970 0.500020 -0.250359
N5    N     N_R   0.750945 0.623912 0.740029 0.134841
O9    O     O_R   0.880915 0.613624 0.769039 -0.336638
O10   O     O_R   0.715203 0.708562 0.684407 -0.331271
N6    N     N_R   0.248579 0.376847 0.259879 0.144106
O11   O     O_R   0.118591 0.387879 0.230963 -0.322517
O12   O     O_R   0.283954 0.291806 0.315319 -0.349188
S1    S     S_3+6 0.885159 0.272769 0.594234 0.054317
O13   O     O_2   0.854923 0.176112 0.535085 -0.248693
O14   O     O_2   0.003567 0.221516 0.651327 -0.315143
O15   O     O_3   0.746259 0.290424 0.645895 -0.502590
H13   H     H_    0.784353 0.319054 0.697577 0.359597
S2    S     S_3+6 0.114985 0.726939 0.405512 0.049350
O16   O     O_2   0.997644 0.775395 0.346845 -0.299439
O17   O     O_2   0.142200 0.824500 0.464483 -0.291725
O18   O     O_3   0.255352 0.709060 0.355137 -0.511494
H14   H     H_    0.280893 0.794555 0.339343 0.363790

loop_
_geom_bond_atom_site_label_1
_geom_bond_atom_site_label_2
_geom_bond_distance
_ccdc_geom_bond_type
C9    C11   1.408124 A    
O5    Cu1   1.954550 S    
C26   N4    1.406359 A    
O7    Cu2   1.943929 S    
O8    Cu1   1.943929 S    
N5    O9    1.301327 A    
O15   H13   0.990976 S    
C17   C22   1.400959 A    
N6    O12   1.301556 A    
C26   S2    1.790190 S    
C24   C26   1.416440 A    
C20   C22   1.396902 A    
C17   C19   1.385004 A    
C25   S1    1.790272 S    
C23   C25   1.416280 A    
O6    C4    1.303323 A    
N1    N2    1.246911 D    
S2    O16   1.504329 D    
C25   N3    1.406748 A    
C20   H10   1.083237 S    
C11   N1    1.417910 S    
S1    O13   1.500553 D    
C19   H9    1.083251 S    
C8    H1    1.083852 S    
C12   N2    1.417930 S    
Cu1   Cu2   2.703052 S    
O5    C3    1.303310 A    
C7    H2    1.083823 S    
O7    C3    1.301870 A    
O2    C2    1.301357 A    
O3    Cu2   1.947836 S    
O8    C4    1.301924 A    
O6    Cu2   1.954553 S    
O1    C1    1.301609 A    
C9    H4    1.082691 S    
C18   H8    1.083800 S    
C17   H7    1.083807 S    
C1    C22   1.442418 S    
C15   N5    1.436191 S    
C8    C10   1.387330 A    
C2    C21   1.442199 S    
N5    O10   1.301487 A    
C11   C13   1.396448 A    
C6    C16   1.416910 A    
O2    Cu2   1.959501 S    
C12   C14   1.396460 A    
S1    O14   1.505141 D    
O1    Cu1   1.959501 S    
C10   C12   1.408126 A    
C16   N6    1.436107 S    
O18   H14   0.990730 S    
S2    O18   1.675073 S    
C18   C20   1.385076 A    
C13   C15   1.399951 A    
N6    O11   1.301377 A    
C5    C15   1.416875 A    
O4    C2    1.292550 A    
C23   H11   1.080328 S    
O4    Cu1   1.947834 S    
C5    C7    1.402595 A    
C14   H6    1.083708 S    
C7    C9    1.387354 A    
C18   C21   1.400870 A    
C19   C21   1.396834 A    
S1    O15   1.676011 S    
C23   N4    1.344137 A    
O3    C1    1.292389 A    
Cu1   N3    2.031350 S    
C3    C5    1.467331 S    
C24   N3    1.344494 A    
C24   H12   1.080482 S    
C6    C8    1.402654 A    
Cu2   N4    2.031351 S    
C4    C6    1.467413 S    
C14   C16   1.399933 A    
C13   H5    1.083694 S    
C10   H3    1.082714 S    
S2    O17   1.501465 D    
