data_mof_unit_57677.cif
_audit_creation_date              2013-03-05T15:51:41-0500
_audit_creation_method            fapswitch 2.2
_symmetry_space_group_name_H-M    P1
_symmetry_Int_Tables_number       1
_space_group_crystal_system       triclinic
_cell_length_a                    30.095872
_cell_length_b                    22.392377
_cell_length_c                    18.182183
_cell_angle_alpha                 90.002012
_cell_angle_beta                  124.302573
_cell_angle_gamma                 89.999349
_cell_volume                      10122.1221421

loop_
_atom_site_label
_atom_site_type_symbol
_atom_site_description
_atom_site_fract_x
_atom_site_fract_y
_atom_site_fract_z
_atom_type_partial_charge
C1    C     C_R   0.545765 0.581022 0.743706 -0.131698
C2    C     C_R   0.466301 0.396243 0.286667 -0.091744
C3    C     C_R   0.454234 0.581006 0.256289 -0.131892
C4    C     C_R   0.533704 0.396254 0.713348 -0.091706
C5    C     C_R   0.045766 0.081011 0.743711 -0.131707
C6    C     C_R   0.966309 0.896227 0.286693 -0.091763
C7    C     C_R   0.954234 0.081006 0.256289 -0.131765
C8    C     C_R   0.033707 0.896257 0.713355 -0.091655
N1    N     N_R   0.532910 0.558440 0.665240 -0.050421
N2    N     N_R   0.467090 0.441560 0.334760 -0.049533
N3    N     N_R   0.467090 0.558440 0.334760 -0.050391
N4    N     N_R   0.532910 0.441560 0.665240 -0.049540
N5    N     N_R   0.032910 0.058440 0.665240 -0.050423
N6    N     N_R   0.967090 0.941560 0.334760 -0.049547
N7    N     N_R   0.967090 0.058440 0.334760 -0.050414
N8    N     N_R   0.032910 0.941560 0.665240 -0.049540
C9    C     C_R   0.629917 0.605883 0.576042 -0.064314
C10   C     C_R   0.353998 0.420750 0.424207 -0.031909
C11   C     C_R   0.370045 0.605856 0.423967 -0.064551
C12   C     C_R   0.646010 0.420780 0.575792 -0.032079
C13   C     C_R   0.129945 0.105863 0.576038 -0.064467
C14   C     C_R   0.854022 0.920667 0.424202 -0.031596
C15   C     C_R   0.870046 0.105857 0.423968 -0.064541
C16   C     C_R   0.146011 0.920781 0.575792 -0.032031
N9    N     N_R   0.597030 0.558910 0.545540 -0.057388
N10   N     N_R   0.402970 0.441090 0.454460 -0.059654
N11   N     N_R   0.402970 0.558910 0.454460 -0.057392
N12   N     N_R   0.597030 0.441090 0.545540 -0.059672
N13   N     N_R   0.097030 0.058910 0.545540 -0.057395
N14   N     N_R   0.902970 0.941090 0.454460 -0.059573
N15   N     N_R   0.902970 0.058910 0.454460 -0.057389
N16   N     N_R   0.097030 0.941090 0.545540 -0.059671
C17   C     C_R   0.579208 0.607959 0.427143 -0.086701
C18   C     C_R   0.402949 0.418931 0.571367 -0.099280
C19   C     C_R   0.420787 0.607945 0.572873 -0.086343
C20   C     C_R   0.597057 0.418945 0.428636 -0.099259
C21   C     C_R   0.079212 0.107949 0.427134 -0.086433
C22   C     C_R   0.902965 0.918891 0.571375 -0.099463
C23   C     C_R   0.920788 0.107946 0.572874 -0.086405
C24   C     C_R   0.097058 0.918947 0.428636 -0.099220
N17   N     N_R   0.566200 0.559270 0.454460 -0.058321
N18   N     N_R   0.433800 0.440730 0.545540 -0.052389
N19   N     N_R   0.433800 0.559270 0.545540 -0.058344
N20   N     N_R   0.566200 0.440730 0.454460 -0.052379
N21   N     N_R   0.066200 0.059270 0.454460 -0.058336
N22   N     N_R   0.933800 0.940730 0.545540 -0.052396
N23   N     N_R   0.933800 0.059270 0.545540 -0.058352
N24   N     N_R   0.066200 0.940730 0.454460 -0.052378
C25   C     C_R   0.380951 0.582681 0.257825 -0.142345
C26   C     C_R   0.608379 0.392611 0.713953 -0.078958
C27   C     C_R   0.619050 0.582683 0.742175 -0.142470
C28   C     C_R   0.391627 0.392601 0.286062 -0.078917
C29   C     C_R   0.880950 0.082681 0.257825 -0.142385
C30   C     C_R   0.108381 0.892613 0.713958 -0.078970
C31   C     C_R   0.119050 0.082681 0.742177 -0.142403
C32   C     C_R   0.891635 0.892587 0.286086 -0.078748
H1    H     H_    0.339167 0.577977 0.234071 0.163053
H2    H     H_    0.646845 0.380150 0.726805 0.139836
H3    H     H_    0.660833 0.577969 0.765931 0.163025
H4    H     H_    0.353163 0.380135 0.273213 0.139744
H5    H     H_    0.839167 0.077978 0.234071 0.163039
H6    H     H_    0.146847 0.880153 0.726810 0.139826
H7    H     H_    0.160833 0.077975 0.765930 0.163045
H8    H     H_    0.853172 0.880116 0.273234 0.139505
N25   N     N_R   0.421050 0.559750 0.334770 -0.052339
N26   N     N_R   0.578950 0.440250 0.665230 -0.049926
N27   N     N_R   0.578950 0.559750 0.665230 -0.052353
N28   N     N_R   0.421050 0.440250 0.334770 -0.049930
N29   N     N_R   0.921050 0.059750 0.334770 -0.052343
N30   N     N_R   0.078950 0.940250 0.665230 -0.049929
N31   N     N_R   0.078950 0.059750 0.665230 -0.052349
N32   N     N_R   0.921050 0.940250 0.334770 -0.049939
C33   C     C_R   0.599787 0.597320 0.793508 0.097271
C34   C     C_R   0.419734 0.363491 0.255452 0.085854
C35   C     C_R   0.400213 0.597297 0.206486 0.097172
C36   C     C_R   0.580275 0.363509 0.744573 0.085842
C37   C     C_R   0.099788 0.097304 0.793516 0.097235
C38   C     C_R   0.919746 0.863468 0.255492 0.085878
C39   C     C_R   0.900213 0.097297 0.206485 0.097224
C40   C     C_R   0.080278 0.863512 0.744581 0.085841
C41   C     C_R   0.619180 0.638047 0.503128 0.111163
C42   C     C_R   0.352335 0.405444 0.495879 0.141442
C43   C     C_R   0.380804 0.638015 0.496899 0.111522
C44   C     C_R   0.647685 0.405485 0.504122 0.141166
C45   C     C_R   0.119193 0.138023 0.503113 0.111409
C46   C     C_R   0.852390 0.905326 0.495883 0.141954
C47   C     C_R   0.880806 0.138016 0.496899 0.111542
C48   C     C_R   0.147686 0.905488 0.504123 0.141225
Ni1   Ni    Ni4+2 0.483090 0.500000 0.604440 0.232713
Ni2   Ni    Ni4+2 0.516910 0.500000 0.395560 0.232677
Ni3   Ni    Ni4+2 0.983090 0.000000 0.604440 0.232724
Ni4   Ni    Ni4+2 0.016910 0.000000 0.395560 0.232712
Ni5   Ni    Ni4+2 0.586780 0.500000 0.604440 0.259130
Ni6   Ni    Ni4+2 0.413220 0.500000 0.395560 0.259064
Ni7   Ni    Ni4+2 0.086780 0.000000 0.604440 0.259102
Ni8   Ni    Ni4+2 0.913220 0.000000 0.395560 0.259005
C49   C     C_R   0.274364 0.754390 0.430215 0.237415
C50   C     C_R   0.783956 0.341436 0.580495 0.260238
C51   C     C_R   0.725471 0.754804 0.570627 0.238169
C52   C     C_R   0.216171 0.341148 0.419550 0.260350
C53   C     C_R   0.774364 0.254386 0.430226 0.237414
C54   C     C_R   0.283953 0.841430 0.580492 0.260276
C55   C     C_R   0.225593 0.254509 0.570042 0.237662
C56   C     C_R   0.716495 0.840402 0.419638 0.260408
C57   C     C_R   0.298339 0.699219 0.436836 0.227514
C58   C     C_R   0.740302 0.359951 0.582781 0.245702
C59   C     C_R   0.701569 0.699584 0.564014 0.226653
C60   C     C_R   0.259836 0.359666 0.417307 0.245453
C61   C     C_R   0.798340 0.199216 0.436846 0.227574
C62   C     C_R   0.240301 0.859949 0.582780 0.245671
C63   C     C_R   0.201638 0.199324 0.563422 0.227258
C64   C     C_R   0.760206 0.858913 0.417535 0.244917
C65   C     C_R   0.354867 0.694266 0.491526 -0.066421
C66   C     C_R   0.697000 0.390888 0.508797 -0.080884
C67   C     C_R   0.645070 0.694359 0.508538 -0.065280
C68   C     C_R   0.303028 0.390797 0.491178 -0.081022
C69   C     C_R   0.854869 0.194267 0.491527 -0.066451
C70   C     C_R   0.197001 0.890890 0.508799 -0.080891
C71   C     C_R   0.145118 0.194292 0.508499 -0.066085
C72   C     C_R   0.803103 0.890545 0.491104 -0.081412
C73   C     C_R   0.386839 0.744479 0.535103 -0.167315
C74   C     C_R   0.701098 0.407753 0.438400 -0.100805
C75   C     C_R   0.613036 0.744364 0.464052 -0.166056
C76   C     C_R   0.298822 0.407824 0.561404 -0.100505
C77   C     C_R   0.886839 0.244481 0.535095 -0.167314
C78   C     C_R   0.201101 0.907759 0.438405 -0.100506
C79   C     C_R   0.113128 0.244444 0.464655 -0.166930
C80   C     C_R   0.798599 0.907994 0.560864 -0.100724
C81   C     C_R   0.362980 0.799169 0.528538 -0.056534
C82   C     C_R   0.743812 0.387714 0.435489 -0.042125
C83   C     C_R   0.636829 0.799070 0.470459 -0.057734
C84   C     C_R   0.256090 0.387794 0.564274 -0.041973
C85   C     C_R   0.862979 0.299171 0.528529 -0.056498
C86   C     C_R   0.243815 0.887717 0.435493 -0.042157
C87   C     C_R   0.136968 0.299138 0.471177 -0.056868
C88   C     C_R   0.755811 0.888001 0.563604 -0.041551
H9    H     H_    0.888100 0.336669 0.567350 0.183733
H10   H     H_    0.243022 0.895283 0.375911 0.184210
H11   H     H_    0.111846 0.336565 0.432101 0.183574
H12   H     H_    0.756260 0.896122 0.622761 0.184471
H13   H     H_    0.388101 0.836664 0.567367 0.183718
H14   H     H_    0.743018 0.395277 0.375905 0.184201
H15   H     H_    0.611707 0.836332 0.430788 0.183168
H16   H     H_    0.256792 0.395512 0.623744 0.184297
C89   C     C_R   0.306931 0.803774 0.479619 -0.077669
C90   C     C_R   0.782760 0.350475 0.502814 -0.084326
C91   C     C_R   0.692889 0.803913 0.520233 -0.076533
C92   C     C_R   0.217243 0.350400 0.497082 -0.084669
C93   C     C_R   0.806930 0.303773 0.479620 -0.077705
C94   C     C_R   0.282759 0.850473 0.502815 -0.084370
C95   C     C_R   0.193022 0.303813 0.520350 -0.077338
C96   C     C_R   0.717226 0.850213 0.496762 -0.085332
C97   C     C_R   0.364756 0.610607 0.110199 0.054768
C98   C     C_R   0.594928 0.308510 0.799033 0.049212
C99   C     C_R   0.635245 0.610659 0.889791 0.054760
C100  C     C_R   0.405085 0.308486 0.200998 0.049201
C101  C     C_R   0.864756 0.110605 0.110198 0.054752
C102  C     C_R   0.094932 0.808516 0.799045 0.049209
C103  C     C_R   0.135245 0.110619 0.889803 0.054771
C104  C     C_R   0.905095 0.808462 0.201032 0.049178
C105  C     C_R   0.341193 0.604687 0.958222 0.398165
C106  C     C_R   0.582724 0.245043 0.895423 0.374189
C107  C     C_R   0.658754 0.604903 0.041741 0.397945
C108  C     C_R   0.417281 0.245024 0.104590 0.374210
C109  C     C_R   0.841192 0.104679 0.958221 0.398158
C110  C     C_R   0.082729 0.745050 0.895436 0.374160
C111  C     C_R   0.158790 0.104747 0.041771 0.398103
C112  C     C_R   0.917259 0.745050 0.104540 0.374257
C113  C     C_R   0.378561 0.596975 0.050459 -0.237216
C114  C     C_R   0.569082 0.295245 0.841461 -0.228612
C115  C     C_R   0.621397 0.597161 0.949510 -0.237091
C116  C     C_R   0.430921 0.295228 0.158553 -0.228601
C117  C     C_R   0.878561 0.096970 0.050458 -0.237132
C118  C     C_R   0.069088 0.795253 0.841476 -0.228585
C119  C     C_R   0.121426 0.097027 0.949534 -0.237150
C120  C     C_R   0.930900 0.795244 0.158521 -0.228527
C121  C     C_R   0.313261 0.631517 0.076945 -0.124035
C122  C     C_R   0.632799 0.268179 0.806701 -0.094251
C123  C     C_R   0.686765 0.631499 0.923062 -0.124036
C124  C     C_R   0.367224 0.268144 0.193347 -0.094233
C125  C     C_R   0.813261 0.131518 0.076944 -0.123964
C126  C     C_R   0.132801 0.768182 0.806709 -0.094264
C127  C     C_R   0.186750 0.131506 0.923067 -0.123969
C128  C     C_R   0.867265 0.768087 0.193424 -0.094165
C129  C     C_R   0.273576 0.633883 0.985641 0.110174
C130  C     C_R   0.647880 0.217099 0.861444 0.115120
C131  C     C_R   0.726439 0.633880 0.014373 0.110279
C132  C     C_R   0.352137 0.217068 0.138589 0.115180
C133  C     C_R   0.773577 0.133882 0.985640 0.110181
C134  C     C_R   0.147882 0.717102 0.861450 0.115120
C135  C     C_R   0.226430 0.133874 0.014374 0.110185
C136  C     C_R   0.852161 0.717034 0.138613 0.115331
C137  C     C_R   0.288332 0.626560 0.924686 -0.201384
C138  C     C_R   0.626439 0.208711 0.913457 -0.200272
C139  C     C_R   0.711664 0.626626 0.075313 -0.201363
C140  C     C_R   0.373572 0.208685 0.086564 -0.200266
C141  C     C_R   0.788332 0.126556 0.924685 -0.201386
C142  C     C_R   0.126441 0.708714 0.913465 -0.200251
C143  C     C_R   0.211666 0.126575 0.075321 -0.201374
C144  C     C_R   0.873572 0.708684 0.086545 -0.200238
C145  C     C_R   0.220316 0.648860 0.955356 -0.110765
C146  C     C_R   0.688799 0.178368 0.873565 -0.102123
C147  C     C_R   0.779711 0.648815 0.044676 -0.110735
C148  C     C_R   0.311218 0.178337 0.126464 -0.102052
C149  C     C_R   0.720317 0.148859 0.955354 -0.110769
C150  C     C_R   0.188799 0.678370 0.873568 -0.102107
C151  C     C_R   0.279695 0.148835 0.044668 -0.110757
C152  C     C_R   0.811248 0.678292 0.126485 -0.101914
C153  C     C_R   0.700229 0.168842 0.808574 0.204890
C154  C     C_R   0.198239 0.636945 0.005275 0.220424
C155  C     C_R   0.299798 0.168798 0.191461 0.204757
C156  C     C_R   0.801789 0.636885 0.994765 0.220328
C157  C     C_R   0.200228 0.668846 0.808577 0.204861
C158  C     C_R   0.698239 0.136946 0.005274 0.220486
C159  C     C_R   0.799863 0.668694 0.191513 0.204490
C160  C     C_R   0.301774 0.136911 0.994754 0.220364
C161  C     C_R   0.749706 0.141845 0.833966 0.231421
C162  C     C_R   0.150820 0.666049 0.983347 0.213663
C163  C     C_R   0.250300 0.141839 0.166049 0.231298
C164  C     C_R   0.849195 0.666010 0.016666 0.213636
C165  C     C_R   0.249706 0.641850 0.833968 0.231384
C166  C     C_R   0.650818 0.166048 0.983342 0.213691
C167  C     C_R   0.750325 0.641815 0.166062 0.231118
C168  C     C_R   0.349193 0.166016 0.016681 0.213639
H17   H     H_    0.520471 0.577104 0.768229 0.121108
H18   H     H_    0.497760 0.387400 0.276729 0.113345
H19   H     H_    0.479528 0.577079 0.231765 0.121188
H20   H     H_    0.502247 0.387416 0.723292 0.113343
H21   H     H_    0.020472 0.077086 0.768235 0.121147
H22   H     H_    0.997770 0.887377 0.276763 0.113378
H23   H     H_    0.979528 0.077078 0.231765 0.121168
H24   H     H_    0.002252 0.887421 0.723305 0.113374
H25   H     H_    0.652446 0.278360 0.773460 0.152297
H26   H     H_    0.304131 0.646973 0.123361 0.134524
H27   H     H_    0.347589 0.278311 0.226614 0.152296
H28   H     H_    0.695920 0.646897 0.876657 0.134552
H29   H     H_    0.152447 0.778363 0.773465 0.152292
H30   H     H_    0.804133 0.146976 0.123360 0.134546
H31   H     H_    0.847667 0.778205 0.226770 0.152291
H32   H     H_    0.195889 0.146943 0.876657 0.134539
H33   H     H_    0.537750 0.323890 0.833393 0.164824
H34   H     H_    0.417790 0.578536 0.074744 0.165865
H35   H     H_    0.462246 0.323880 0.166609 0.164811
H36   H     H_    0.582133 0.578826 0.925218 0.165780
H37   H     H_    0.037758 0.823899 0.833412 0.164851
H38   H     H_    0.917789 0.078528 0.074744 0.165874
H39   H     H_    0.962199 0.823923 0.166539 0.164805
H40   H     H_    0.082186 0.078620 0.925244 0.165853
N33   N     N_R   0.357067 0.586141 0.900875 0.256723
O1    O     O_R   0.401624 0.606401 0.914400 -0.309253
O2    O     O_R   0.335024 0.538926 0.851497 -0.322736
N34   N     N_R   0.550154 0.231063 0.927836 0.266769
O3    O     O_R   0.537401 0.272875 0.962489 -0.270709
O4    O     O_R   0.523947 0.180785 0.905139 -0.243013
N35   N     N_R   0.642787 0.586598 0.099052 0.256684
O5    O     O_R   0.598397 0.607301 0.085681 -0.308795
O6    O     O_R   0.664476 0.539200 0.148140 -0.322610
N36   N     N_R   0.449845 0.231051 0.072163 0.266763
O7    O     O_R   0.462586 0.272866 0.037499 -0.270662
O8    O     O_R   0.476062 0.180780 0.094858 -0.243112
N37   N     N_R   0.857065 0.086128 0.900874 0.256729
O9    O     O_R   0.901623 0.106381 0.914399 -0.309194
O10   O     O_R   0.835017 0.038913 0.851496 -0.322555
N38   N     N_R   0.050161 0.731072 0.927854 0.266770
O11   O     O_R   0.037414 0.772884 0.962515 -0.270631
O12   O     O_R   0.023949 0.680798 0.905152 -0.242973
N39   N     N_R   0.142888 0.086267 0.099104 0.256718
O13   O     O_R   0.098374 0.106644 0.085615 -0.309067
O14   O     O_R   0.164837 0.039005 0.148407 -0.322751
N40   N     N_R   0.949801 0.731119 0.072056 0.266747
O15   O     O_R   0.962490 0.772956 0.037348 -0.270574
O16   O     O_R   0.976052 0.680871 0.094743 -0.242970
N41   N     N_R   0.658752 0.178502 0.715698 0.252852
O17   O     O_R   0.670424 0.197058 0.660765 -0.237406
O18   O     O_R   0.609046 0.164959 0.684427 -0.318548
N42   N     N_R   0.221074 0.591345 0.072924 0.245461
O19   O     O_R   0.230080 0.601556 0.150706 -0.330450
O20   O     O_R   0.234110 0.539732 0.057415 -0.350746
N43   N     N_R   0.341307 0.178384 0.284347 0.252890
O21   O     O_R   0.329671 0.196765 0.339401 -0.237069
O22   O     O_R   0.391007 0.164881 0.315519 -0.318631
N44   N     N_R   0.778976 0.591241 0.927179 0.245482
O23   O     O_R   0.769972 0.601394 0.849390 -0.329565
O24   O     O_R   0.765933 0.539652 0.942740 -0.350700
N45   N     N_R   0.158750 0.678504 0.715701 0.252861
O25   O     O_R   0.170420 0.697057 0.660764 -0.237367
O26   O     O_R   0.109044 0.664963 0.684433 -0.318485
N46   N     N_R   0.721075 0.091349 0.072927 0.245410
O27   O     O_R   0.730083 0.101564 0.150708 -0.330618
O28   O     O_R   0.734112 0.039735 0.057422 -0.350967
N47   N     N_R   0.841456 0.678087 0.284420 0.252988
O29   O     O_R   0.829910 0.696008 0.339778 -0.236267
O30   O     O_R   0.891140 0.664699 0.315333 -0.318666
N48   N     N_R   0.278943 0.091300 0.927118 0.245468
O31   O     O_R   0.269940 0.101493 0.849337 -0.330145
O32   O     O_R   0.265899 0.039696 0.942635 -0.350763
H41   H     H_    0.658742 0.616781 0.645258 0.135195
H42   H     H_    0.319831 0.427482 0.356527 0.139066
H43   H     H_    0.341169 0.616726 0.354757 0.135273
H44   H     H_    0.680167 0.427566 0.643461 0.139354
H45   H     H_    0.158807 0.116742 0.645251 0.135254
H46   H     H_    0.819831 0.927261 0.356495 0.138382
H47   H     H_    0.841170 0.116727 0.354757 0.135273
H48   H     H_    0.180168 0.927566 0.643462 0.139318
H49   H     H_    0.561483 0.620807 0.358714 0.133811
H50   H     H_    0.413426 0.421527 0.638730 0.112090
H51   H     H_    0.438503 0.620784 0.641304 0.133797
H52   H     H_    0.586569 0.421540 0.361268 0.112007
H53   H     H_    0.061493 0.120789 0.358704 0.133814
H54   H     H_    0.913409 0.921487 0.638721 0.112364
H55   H     H_    0.938506 0.120785 0.641305 0.133820
H56   H     H_    0.086571 0.921544 0.361268 0.112004
N49   N     N_R   0.216970 0.758038 0.383159 0.256927
O33   O     O_R   0.189130 0.785974 0.307349 -0.317105
O34   O     O_R   0.192199 0.728518 0.411534 -0.267947
N50   N     N_R   0.824611 0.304255 0.650461 0.261485
O35   O     O_R   0.873491 0.324088 0.703276 -0.317660
O36   O     O_R   0.812963 0.250268 0.660560 -0.256593
N51   N     N_R   0.782906 0.758707 0.618632 0.257165
O37   O     O_R   0.810176 0.787291 0.693944 -0.317769
O38   O     O_R   0.808263 0.728972 0.591526 -0.267408
N52   N     N_R   0.175682 0.303715 0.349798 0.261634
O39   O     O_R   0.126836 0.323480 0.296334 -0.317113
O40   O     O_R   0.187393 0.249485 0.340794 -0.257365
N53   N     N_R   0.716970 0.258032 0.383179 0.256933
O41   O     O_R   0.689124 0.285962 0.307366 -0.317103
O42   O     O_R   0.692206 0.228512 0.411567 -0.268012
N54   N     N_R   0.324602 0.804241 0.650452 0.261489
O43   O     O_R   0.373480 0.824074 0.703294 -0.317693
O44   O     O_R   0.312954 0.750243 0.660505 -0.256629
N55   N     N_R   0.283000 0.258230 0.617375 0.256988
O45   O     O_R   0.310676 0.286340 0.693056 -0.317288
O46   O     O_R   0.307939 0.228655 0.589354 -0.267810
N56   N     N_R   0.676419 0.802349 0.350429 0.262006
O47   O     O_R   0.627640 0.821874 0.295503 -0.316078
O48   O     O_R   0.688315 0.747642 0.343903 -0.259030
N57   N     N_R   0.265064 0.647800 0.392287 0.256248
O49   O     O_R   0.225015 0.651030 0.309035 -0.236850
O50   O     O_R   0.272808 0.598595 0.436104 -0.330334
N58   N     N_R   0.738410 0.342031 0.656731 0.239569
O51   O     O_R   0.778392 0.354077 0.737758 -0.301724
O52   O     O_R   0.699678 0.307915 0.643802 -0.328867
N59   N     N_R   0.734933 0.648353 0.609280 0.256044
O53   O     O_R   0.774634 0.651874 0.692737 -0.237038
O54   O     O_R   0.727720 0.599078 0.565890 -0.329169
N60   N     N_R   0.261887 0.341521 0.343588 0.239624
O55   O     O_R   0.221882 0.353164 0.262413 -0.301959
O56   O     O_R   0.300847 0.307636 0.356928 -0.329047
N61   N     N_R   0.765067 0.147795 0.392306 0.256226
O57   O     O_R   0.725013 0.151022 0.309056 -0.236959
O58   O     O_R   0.772815 0.098592 0.436129 -0.330533
N62   N     N_R   0.238405 0.842023 0.656724 0.239566
O59   O     O_R   0.278388 0.854060 0.737755 -0.301793
O60   O     O_R   0.199668 0.807911 0.643787 -0.328865
N63   N     N_R   0.234939 0.147961 0.608180 0.256188
O61   O     O_R   0.274886 0.151277 0.691494 -0.236889
O62   O     O_R   0.227350 0.098733 0.564486 -0.329963
N64   N     N_R   0.762687 0.840194 0.344442 0.239826
O63   O     O_R   0.722648 0.850804 0.262895 -0.302621
O64   O     O_R   0.802232 0.806912 0.358862 -0.329392
H57   H     H_    0.430310 0.741037 0.575300 0.154425
H58   H     H_    0.669818 0.433694 0.382939 0.160276
H59   H     H_    0.569577 0.740729 0.423190 0.154102
H60   H     H_    0.330029 0.433899 0.616764 0.160378
H61   H     H_    0.930311 0.241042 0.575284 0.154435
H62   H     H_    0.169823 0.933703 0.382947 0.160282
H63   H     H_    0.069659 0.240945 0.424261 0.154334
H64   H     H_    0.829613 0.934416 0.615957 0.160645
N65   N     N_R   0.760956 0.133078 0.768067 0.282284
O65   O     O_R   0.791849 0.170622 0.762354 -0.234885
O66   O     O_R   0.734642 0.092871 0.706437 -0.262728
N66   N     N_R   0.131499 0.656172 0.038581 0.285261
O67   O     O_R   0.141163 0.695567 0.098521 -0.250669
O68   O     O_R   0.112781 0.604013 0.039566 -0.213357
N67   N     N_R   0.239038 0.133083 0.231933 0.282297
O69   O     O_R   0.208236 0.170707 0.237754 -0.234658
O70   O     O_R   0.265253 0.092781 0.293440 -0.262646
N68   N     N_R   0.868506 0.656141 0.961416 0.285291
O71   O     O_R   0.858831 0.695538 0.901475 -0.249741
O72   O     O_R   0.887244 0.603993 0.960440 -0.213309
N69   N     N_R   0.260956 0.633087 0.768069 0.282293
O73   O     O_R   0.291845 0.670637 0.762354 -0.234878
O74   O     O_R   0.234646 0.592878 0.706441 -0.262624
N70   N     N_R   0.631498 0.156173 0.038576 0.285263
O75   O     O_R   0.641159 0.195572 0.098511 -0.250687
O76   O     O_R   0.612784 0.104013 0.039568 -0.213614
N71   N     N_R   0.739051 0.633041 0.231924 0.282298
O77   O     O_R   0.708487 0.670843 0.238067 -0.234157
O78   O     O_R   0.765027 0.592482 0.293097 -0.262718
N72   N     N_R   0.368512 0.156137 0.961445 0.285276
O79   O     O_R   0.358852 0.195533 0.901511 -0.250366
O80   O     O_R   0.387230 0.103979 0.960457 -0.213427

loop_
_geom_bond_atom_site_label_1
_geom_bond_atom_site_label_2
_geom_bond_distance
_ccdc_geom_bond_type
C125  H30   1.081123 S    
C84   H16   1.083398 S    
N52   O40   1.300264 A    
N35   O6    1.300983 A    
N9    Ni5   1.831566 S    
C115  H36   1.082462 S    
C82   C90   1.396613 A    
C104  C120  1.401692 A    
N47   O29   1.299641 A    
C18   N18   1.346224 A    
C92   C95   1.465002 S    
C23   C47   1.391418 A    
C113  H34   1.082468 S    
C88   H12   1.083411 S    
C160  N48   1.440533 S    
C29   N29   1.332060 A    
C62   C70   1.418420 A    
N57   O49   1.301119 A    
C139  C167  1.424111 A    
C87   H11   1.083219 S    
N44   O23   1.301393 A    
N19   Ni1   1.821631 S    
C165  N69   1.430400 S    
C7    C39   1.391750 A    
C166  N70   1.433102 S    
N31   Ni7   1.833240 S    
C40   C102  1.483097 S    
N66   O67   1.301249 A    
C130  C146  1.418226 A    
N14   Ni8   1.831566 S    
C158  C166  1.406772 A    
C20   C44   1.392533 A    
C134  C150  1.418225 A    
C116  H35   1.079908 S    
C32   N32   1.350208 A    
C145  C150  1.399283 A    
C110  N38   1.434329 S    
C4    N4    1.330949 A    
C112  C144  1.419165 A    
C5    N5    1.348539 A    
C138  C166  1.419440 A    
C62   N62   1.434740 S    
C7    N7    1.348533 A    
C60   N60   1.434821 S    
C8    N8    1.330953 A    
N5    Ni3   1.820542 S    
C78   H62   1.081915 S    
C142  C162  1.419441 A    
C75   H59   1.083528 S    
C88   C96   1.396703 A    
C9    H41   1.079525 S    
C110  C118  1.393181 A    
C67   C75   1.399507 A    
N58   O51   1.301166 A    
N9    N17   1.368041 A    
C64   C72   1.418175 A    
N72   O80   1.301214 A    
N22   Ni3   1.821602 S    
C156  C164  1.406805 A    
N4    N26   1.386030 A    
N12   N20   1.368040 A    
C12   C44   1.375486 A    
N13   N21   1.368041 A    
N50   O35   1.300475 A    
C15   N15   1.332344 A    
C167  N71   1.430312 S    
C16   N16   1.329837 A    
C162  N66   1.433106 S    
N63   O61   1.301113 A    
C30   N30   1.350135 A    
C63   N63   1.438854 S    
N62   O59   1.301167 A    
C33   C99   1.478859 S    
C57   N57   1.438867 S    
C51   N51   1.434165 S    
C140  C168  1.419457 A    
C37   C103  1.478824 S    
C38   C104  1.483182 S    
C149  C158  1.419950 A    
N69   O73   1.300342 A    
C144  C164  1.419496 A    
C55   N55   1.434119 S    
C20   N20   1.346227 A    
C21   N21   1.344524 A    
N71   O77   1.300356 A    
C83   H15   1.083248 S    
C2    H18   1.077539 S    
C23   N23   1.344505 A    
C133  C141  1.416734 A    
C24   N24   1.346228 A    
C51   C91   1.413401 A    
C44   C66   1.474665 S    
C49   C89   1.413519 A    
C23   H55   1.080398 S    
N58   O52   1.299544 A    
C24   H56   1.080567 S    
N70   O76   1.301214 A    
N67   O69   1.300349 A    
C26   N26   1.350136 A    
N2    N28   1.386027 A    
C50   C58   1.400435 A    
C9    N9    1.332240 A    
C56   C96   1.407248 A    
C1    C33   1.391800 A    
N45   O26   1.301688 A    
C100  C124  1.398247 A    
C24   C48   1.392530 A    
C157  N45   1.442483 S    
C151  C160  1.419933 A    
C10   C42   1.375411 A    
C100  C116  1.401691 A    
N43   O22   1.301697 A    
C18   H50   1.080583 S    
C3    N3    1.348534 A    
N32   Ni8   1.833241 S    
C81   H13   1.083207 S    
C78   C86   1.390490 A    
N8    Ni3   1.820575 S    
C30   H6    1.080622 S    
C126  C134  1.412740 A    
N68   O71   1.301243 A    
C31   N31   1.332057 A    
N46   O28   1.301480 A    
N34   O3    1.301315 A    
C117  H38   1.082466 S    
N51   O38   1.300969 A    
N61   O57   1.301118 A    
C22   H54   1.080630 S    
C98   C114  1.401688 A    
N33   O1    1.301061 A    
C22   C46   1.392199 A    
C57   C65   1.410194 A    
C14   H46   1.080917 S    
C28   C34   1.407414 A    
N37   O9    1.301059 A    
C6    C38   1.388393 A    
N15   Ni8   1.831506 S    
C25   H1    1.080195 S    
C76   C84   1.390498 A    
C63   C71   1.410257 A    
C45   C71   1.455954 S    
N21   Ni4   1.821602 S    
C28   H4    1.080618 S    
C156  N44   1.440528 S    
N38   O11   1.301314 A    
C31   H7    1.080194 S    
C154  N42   1.440534 S    
C25   C35   1.387267 A    
C83   C91   1.398675 A    
C3    C35   1.391750 A    
C12   N12   1.329836 A    
C89   C94   1.465037 S    
C105  C113  1.407601 A    
C136  C144  1.426176 A    
C41   C67   1.456176 S    
C157  C165  1.421646 A    
C11   C43   1.377615 A    
C102  C118  1.401688 A    
C109  N37   1.431574 S    
C97   C121  1.389440 A    
C52   C60   1.400355 A    
C143  C163  1.424108 A    
C160  C168  1.406782 A    
C56   C64   1.400198 A    
N56   O47   1.300462 A    
C27   N27   1.332051 A    
C158  N46   1.440533 S    
C132  C148  1.418225 A    
N28   Ni6   1.833241 S    
C122  C130  1.412740 A    
N64   O64   1.299586 A    
N1    N27   1.386030 A    
N8    N30   1.386030 A    
C56   N56   1.433021 S    
C127  H32   1.081112 S    
C6    N6    1.331002 A    
C102  C126  1.398214 A    
C35   C97   1.478803 S    
N60   O56   1.299556 A    
N6    Ni4   1.820543 S    
C105  C137  1.431528 A    
C135  C151  1.410733 A    
C107  N35   1.431503 S    
N26   Ni5   1.833300 S    
N63   O62   1.301483 A    
C152  C159  1.420613 A    
N59   O54   1.301491 A    
C108  C116  1.393184 A    
C146  C153  1.420675 A    
C48   C70   1.474661 S    
N10   N18   1.368041 A    
C111  C119  1.407589 A    
C112  C120  1.393185 A    
C14   N14   1.329830 A    
N6    N32   1.386027 A    
C130  C138  1.426169 A    
C104  C128  1.398319 A    
N54   O43   1.300473 A    
N71   O78   1.301203 A    
N39   O13   1.301059 A    
C108  C140  1.419165 A    
C121  H26   1.081122 S    
C55   C63   1.401221 A    
C164  N68   1.433087 S    
C155  C163  1.421695 A    
C147  C152  1.399204 A    
N44   O24   1.301477 A    
N14   N22   1.368041 A    
C13   H45   1.079553 S    
C6    H22   1.077548 S    
N36   O7    1.301312 A    
C49   C57   1.401220 A    
C153  C161  1.421646 A    
C105  N33   1.431574 S    
C36   C98   1.483098 S    
N41   O18   1.301691 A    
N66   O68   1.301213 A    
C73   H57   1.083526 S    
C82   H14   1.083395 S    
C163  N67   1.430375 S    
C22   N22   1.346234 A    
N16   Ni7   1.831509 S    
C65   C73   1.399463 A    
N42   O19   1.301425 A    
N24   Ni4   1.821634 S    
N27   Ni5   1.833240 S    
C111  C143  1.431533 A    
C46   C72   1.473828 S    
C18   C42   1.392438 A    
C69   C77   1.399461 A    
C126  H29   1.081543 S    
N65   O66   1.301203 A    
C71   C79   1.399475 A    
N10   Ni6   1.831566 S    
C52   N52   1.433171 S    
C43   C65   1.455856 S    
C114  H33   1.079907 S    
C10   N10   1.329846 A    
C85   H9    1.083208 S    
C61   C69   1.410192 A    
C7    H23   1.081032 S    
C79   C87   1.390319 A    
C47   C69   1.455850 S    
C80   C88   1.390505 A    
C19   H51   1.080395 S    
N48   O31   1.301416 A    
C123  C131  1.396613 A    
C53   C61   1.401216 A    
C131  C147  1.410742 A    
C121  C129  1.396576 A    
N50   O36   1.300229 A    
C129  C145  1.410732 A    
C168  N72   1.433102 S    
C124  C132  1.412762 A    
C125  C133  1.396579 A    
C133  C149  1.410734 A    
C146  C149  1.399286 A    
N62   O60   1.299545 A    
N43   O21   1.299669 A    
C128  C136  1.412817 A    
C107  C115  1.407549 A    
C55   C95   1.413485 A    
C137  C165  1.424104 A    
N52   O39   1.300464 A    
N15   N23   1.368040 A    
N16   N24   1.368040 A    
C101  C125  1.389438 A    
C141  C161  1.424105 A    
N57   O50   1.301476 A    
C99   C123  1.389482 A    
C30   C40   1.407421 A    
C13   C45   1.377630 A    
C26   H2    1.080619 S    
C1    N1    1.348558 A    
N1    Ni1   1.820542 S    
C19   C43   1.391420 A    
C123  H28   1.081101 S    
N5    N31   1.386030 A    
C75   C83   1.390306 A    
C127  C135  1.396588 A    
N12   Ni5   1.831509 S    
N55   O45   1.300616 A    
N45   O25   1.299679 A    
C112  N40   1.434320 S    
C90   C93   1.465038 S    
C106  C114  1.393183 A    
C148  C151  1.399259 A    
C107  C139  1.431542 A    
C16   C48   1.375483 A    
C2    C34   1.388370 A    
C54   C94   1.407073 A    
C150  C157  1.420675 A    
C119  H40   1.082463 S    
C10   H42   1.080809 S    
C54   C62   1.400428 A    
N68   O72   1.301216 A    
C76   H60   1.081946 S    
C3    H19   1.081032 S    
C59   N59   1.438825 S    
C134  C142  1.426169 A    
N34   O4    1.301169 A    
C1    H17   1.081026 S    
C68   C76   1.404977 A    
N47   O30   1.301703 A    
N23   Ni3   1.821631 S    
C73   C81   1.390324 A    
C39   C101  1.478803 S    
C72   C80   1.404848 A    
C79   H63   1.083527 S    
N72   O79   1.301247 A    
C51   C59   1.401221 A    
C20   H52   1.080566 S    
C17   N17   1.344565 A    
C60   C68   1.418349 A    
C19   N19   1.344507 A    
C42   C68   1.474438 S    
N39   O14   1.300992 A    
N49   O33   1.300618 A    
C13   N13   1.332316 A    
C87   C95   1.398631 A    
C148  C155  1.420653 A    
N30   Ni7   1.833302 S    
C9    C41   1.377655 A    
C4    H20   1.077543 S    
N53   O41   1.300617 A    
N49   O34   1.300933 A    
N51   O37   1.300615 A    
C16   H48   1.080765 S    
N11   N19   1.368040 A    
C61   N61   1.438865 S    
N2    Ni2   1.820543 S    
N38   O12   1.301169 A    
C97   C113  1.397953 A    
N69   O74   1.301203 A    
N40   O15   1.301312 A    
N11   Ni6   1.831506 S    
C118  H37   1.079909 S    
C101  C117  1.397956 A    
C159  N47   1.442693 S    
N59   O53   1.301101 A    
C14   C46   1.375209 A    
C108  N36   1.434325 S    
N29   Ni8   1.833300 S    
N70   O75   1.301250 A    
C110  C142  1.419165 A    
C32   C38   1.407393 A    
C25   N25   1.332059 A    
C58   C66   1.418421 A    
C21   C45   1.391467 A    
C29   C39   1.387267 A    
C135  C143  1.416737 A    
C109  C141  1.431525 A    
C31   C37   1.387264 A    
N56   O48   1.300299 A    
C109  C117  1.407602 A    
C86   C94   1.396615 A    
N53   O42   1.300932 A    
C106  N34   1.434327 S    
C74   H58   1.081913 S    
N7    Ni4   1.820573 S    
C124  H27   1.081555 S    
C77   H61   1.083525 S    
C54   N54   1.433256 S    
C11   N11   1.332342 A    
C128  H31   1.081599 S    
C155  N43   1.442542 S    
C28   N28   1.350155 A    
N17   Ni2   1.821602 S    
N61   O58   1.301477 A    
C103  C119  1.397949 A    
C49   N49   1.434103 S    
C136  C152  1.418224 A    
C29   H5    1.080196 S    
N37   O10   1.300994 A    
C120  H39   1.079914 S    
C111  N39   1.431553 S    
N67   O70   1.301204 A    
N7    N29   1.386027 A    
C53   N53   1.434106 S    
N33   O2    1.300992 A    
C34   C100  1.483124 S    
C84   C92   1.396638 A    
N4    Ni1   1.820575 S    
C85   C93   1.398607 A    
N54   O44   1.300233 A    
N13   Ni7   1.831566 S    
C50   C90   1.407070 A    
N36   O8    1.301171 A    
C80   H64   1.082037 S    
C106  C138  1.419163 A    
C32   H8    1.080607 S    
N41   O17   1.299679 A    
N55   O46   1.300942 A    
C59   C67   1.410402 A    
N25   Ni6   1.833299 S    
N42   O20   1.301480 A    
C153  N41   1.442481 S    
C64   N64   1.435040 S    
C5    H21   1.081031 S    
C147  C156  1.419876 A    
C27   H3    1.080196 S    
C17   H49   1.080399 S    
N35   O5    1.301048 A    
C2    N2    1.330970 A    
C145  C154  1.419949 A    
N20   Ni2   1.821634 S    
N65   O65   1.300340 A    
C77   C85   1.390326 A    
C131  C139  1.416743 A    
C27   C33   1.387252 A    
C129  C137  1.416734 A    
C159  C167  1.421817 A    
C86   H10   1.083397 S    
C122  H25   1.081541 S    
C50   N50   1.433259 S    
C161  N65   1.430402 S    
C154  C162  1.406771 A    
N18   Ni1   1.821602 S    
C21   H53   1.080397 S    
N46   O27   1.301427 A    
C98   C122  1.398216 A    
C91   C96   1.464884 S    
N48   O32   1.301477 A    
C8    H24   1.077539 S    
N3    Ni2   1.820573 S    
N60   O55   1.301173 A    
C17   C41   1.391583 A    
C52   C92   1.407116 A    
C53   C93   1.413517 A    
C12   H44   1.080765 S    
C11   H43   1.079561 S    
N40   O16   1.301171 A    
C81   C89   1.398607 A    
N64   O63   1.301187 A    
C4    C36   1.388357 A    
C15   H47   1.079562 S    
C66   C74   1.405022 A    
C99   C115  1.397925 A    
C58   N58   1.434741 S    
C132  C140  1.426168 A    
C8    C40   1.388357 A    
C15   C47   1.377617 A    
C70   C78   1.405020 A    
C103  C127  1.389453 A    
C5    C37   1.391764 A    
C74   C82   1.390492 A    
N3    N25   1.386026 A    
C26   C36   1.407425 A    
