data_mof_unit_16022.cif
_audit_creation_date              2013-03-05T15:51:02-0500
_audit_creation_method            fapswitch 2.2
_symmetry_space_group_name_H-M    P1
_symmetry_Int_Tables_number       1
_space_group_crystal_system       triclinic
_cell_length_a                    19.065764
_cell_length_b                    11.00326
_cell_length_c                    18.736001
_cell_angle_alpha                 89.951788
_cell_angle_beta                  89.941471
_cell_angle_gamma                 90.149767
_cell_volume                      3930.52555272

loop_
_atom_site_label
_atom_site_type_symbol
_atom_site_description
_atom_site_fract_x
_atom_site_fract_y
_atom_site_fract_z
_atom_type_partial_charge
O1    O     O_R   0.784290 0.290360 0.830540 -0.514200
O2    O     O_R   0.215710 0.290360 0.169460 -0.521932
O3    O     O_R   0.284290 0.790360 0.830540 -0.515608
O4    O     O_R   0.715710 0.790360 0.169460 -0.522112
O5    O     O_R   0.762610 0.041070 0.825230 -0.502795
O6    O     O_R   0.237390 0.041070 0.174770 -0.503189
O7    O     O_R   0.262610 0.541070 0.825230 -0.502158
O8    O     O_R   0.737390 0.541070 0.174770 -0.502813
C1    C     C_R   0.724236 0.962337 0.856266 0.542958
C2    C     C_R   0.272733 0.956244 0.146754 0.539482
C3    C     C_R   0.224237 0.462334 0.856265 0.541387
C4    C     C_R   0.772731 0.456237 0.146757 0.540579
O9    O     O_R   0.667390 0.924160 0.829970 -0.524680
O10   O     O_R   0.332610 0.924160 0.170030 -0.525803
O11   O     O_R   0.167390 0.424160 0.829970 -0.525896
O12   O     O_R   0.832610 0.424160 0.170030 -0.524862
O13   O     O_R   0.553980 0.081420 0.821780 -0.489789
O14   O     O_R   0.446020 0.081420 0.178220 -0.491954
O15   O     O_R   0.053980 0.581420 0.821780 -0.491993
O16   O     O_R   0.946020 0.581420 0.178220 -0.490689
C5    C     C_R   0.529622 0.177798 0.850545 0.558072
C6    C     C_R   0.470084 0.177416 0.149199 0.544240
C7    C     C_R   0.029626 0.677799 0.850548 0.556041
C8    C     C_R   0.970086 0.677415 0.149201 0.544071
O17   O     O_R   0.543210 0.283170 0.826740 -0.516204
O18   O     O_R   0.456790 0.283170 0.173260 -0.520414
O19   O     O_R   0.043210 0.783170 0.826740 -0.516251
O20   O     O_R   0.956790 0.783170 0.173260 -0.521071
O21   O     O_R   0.678350 0.375000 0.822720 -0.489538
O22   O     O_R   0.321650 0.375000 0.177280 -0.494534
O23   O     O_R   0.178350 0.875000 0.822720 -0.494292
O24   O     O_R   0.821650 0.875000 0.177280 -0.494745
C9    C     C_R   0.735846 0.354830 0.855776 0.560287
C10   C     C_R   0.261691 0.365525 0.148020 0.547016
C11   C     C_R   0.235855 0.854858 0.855768 0.553989
C12   C     C_R   0.761691 0.865524 0.148019 0.547243
O25   O     O_R   0.785060 0.289300 0.670580 -0.453186
O26   O     O_R   0.214940 0.289300 0.329420 -0.504206
O27   O     O_R   0.285060 0.789300 0.670580 -0.469609
O28   O     O_R   0.714940 0.789300 0.329420 -0.503597
O29   O     O_R   0.763330 0.040090 0.676940 -0.520619
O30   O     O_R   0.236670 0.040090 0.323060 -0.528347
O31   O     O_R   0.263330 0.540090 0.676940 -0.513282
O32   O     O_R   0.736670 0.540090 0.323060 -0.526214
C13   C     C_R   0.729209 0.950449 0.648907 0.526638
C14   C     C_R   0.271473 0.955177 0.352118 0.537555
C15   C     C_R   0.228939 0.451576 0.648752 0.525683
C16   C     C_R   0.770663 0.452663 0.350991 0.539525
O33   O     O_R   0.668160 0.923110 0.670000 -0.506422
O34   O     O_R   0.331840 0.923110 0.330000 -0.470312
O35   O     O_R   0.168160 0.423110 0.670000 -0.503751
O36   O     O_R   0.831840 0.423110 0.330000 -0.500929
O37   O     O_R   0.554690 0.080440 0.673480 -0.462692
O38   O     O_R   0.445310 0.080440 0.326520 -0.434180
O39   O     O_R   0.054690 0.580440 0.673480 -0.455427
O40   O     O_R   0.945310 0.580440 0.326520 -0.435763
C17   C     C_R   0.527581 0.176764 0.646464 0.565252
C18   C     C_R   0.469007 0.175009 0.356488 0.567237
C19   C     C_R   0.028518 0.676798 0.645789 0.566053
C20   C     C_R   0.970512 0.674587 0.355252 0.567099
O41   O     O_R   0.543980 0.282110 0.666770 -0.539537
O42   O     O_R   0.456020 0.282110 0.333230 -0.533876
O43   O     O_R   0.043980 0.782110 0.666770 -0.530725
O44   O     O_R   0.956020 0.782110 0.333230 -0.533597
O45   O     O_R   0.679070 0.374030 0.674430 -0.512756
O46   O     O_R   0.320930 0.374030 0.325570 -0.505935
O47   O     O_R   0.179070 0.874030 0.674430 -0.523205
O48   O     O_R   0.820930 0.874030 0.325570 -0.505685
C21   C     C_R   0.726971 0.316422 0.638649 0.564386
C22   C     C_R   0.274621 0.311078 0.360907 0.559989
C23   C     C_R   0.239571 0.860970 0.646003 0.563459
C24   C     C_R   0.775026 0.809362 0.360820 0.561011
Cr1   Cr    Cr6+3 0.769260 0.163750 0.750730 1.042515
Cr2   Cr    Cr6+3 0.230740 0.163750 0.249270 1.018025
Cr3   Cr    Cr6+3 0.269260 0.663750 0.750730 1.044664
Cr4   Cr    Cr6+3 0.730740 0.663750 0.249270 1.019532
Cr5   Cr    Cr6+3 0.612640 0.009910 0.748780 1.062532
Cr6   Cr    Cr6+3 0.387360 0.009910 0.251220 1.080206
Cr7   Cr    Cr6+3 0.112640 0.509910 0.748780 1.068032
Cr8   Cr    Cr6+3 0.887360 0.509910 0.251220 1.068995
Cr9   Cr    Cr6+3 0.614190 0.322400 0.747710 1.020168
Cr10  Cr    Cr6+3 0.385810 0.322400 0.252290 1.014337
Cr11  Cr    Cr6+3 0.114190 0.822400 0.747710 1.018603
Cr12  Cr    Cr6+3 0.885810 0.822400 0.252290 1.013699
O49   O     O_3   0.665360 0.165350 0.749070 -0.288102
O50   O     O_3   0.334640 0.165350 0.250930 -0.285163
O51   O     O_3   0.165360 0.665350 0.749070 -0.272015
O52   O     O_3   0.834640 0.665350 0.250930 -0.283201
C25   C     C_2   0.497192 0.170846 0.920890 -0.114142
C26   C     C_2   0.501517 0.166389 0.078390 -0.121562
C27   C     C_2   0.997200 0.670847 0.920895 -0.113940
C28   C     C_2   0.001524 0.666389 0.078395 -0.121543
C29   C     C_2   0.485321 0.070268 0.036893 -0.171056
C30   C     C_2   0.499136 0.068839 0.959798 -0.165250
C31   C     C_2   0.985333 0.570266 0.036898 -0.170863
C32   C     C_2   0.999146 0.568840 0.959803 -0.165295
H1    H     H_    0.459236 0.990923 0.059148 0.160073
H2    H     H_    0.510919 0.982249 0.934951 0.144826
H3    H     H_    0.959250 0.490919 0.059152 0.160236
H4    H     H_    0.010928 0.482250 0.934955 0.144592
H5    H     H_    0.528899 0.244745 0.056561 0.111814
H6    H     H_    0.481456 0.255822 0.945280 0.108502
H7    H     H_    0.028904 0.744747 0.056566 0.111735
H8    H     H_    0.981464 0.755823 0.945286 0.108681
C33   C     C_R   0.748023 0.408438 0.079394 0.016302
C34   C     C_R   0.234359 0.444649 0.932191 0.018423
C35   C     C_R   0.248030 0.908468 0.079383 0.016194
C36   C     C_R   0.734358 0.944653 0.932193 0.018345
C37   C     C_R   0.699098 0.473728 0.038552 0.014229
C38   C     C_R   0.298249 0.472854 0.964166 0.006966
C39   C     C_R   0.199125 0.973792 0.038535 0.014095
C40   C     C_R   0.798246 0.972870 0.964169 0.006873
C41   C     C_R   0.693628 0.455466 0.965797 0.013087
C42   C     C_R   0.306380 0.461250 0.037202 0.008672
C43   C     C_R   0.193659 0.955536 0.965780 0.013630
C44   C     C_R   0.806376 0.961267 0.037206 0.008627
C45   C     C_R   0.779382 0.295430 0.974314 -0.148508
C46   C     C_R   0.182608 0.421635 0.049987 -0.158161
C47   C     C_R   0.279380 0.795448 0.974307 -0.147892
C48   C     C_R   0.682606 0.921627 0.049987 -0.158061
C49   C     C_R   0.783296 0.311126 0.047725 -0.158815
C50   C     C_R   0.175253 0.428054 0.976229 -0.150016
C51   C     C_R   0.283290 0.811141 0.047718 -0.159200
C52   C     C_R   0.675252 0.928048 0.976229 -0.150123
C53   C     C_3   0.689243 0.607958 0.030398 -0.245187
C54   C     C_3   0.368422 0.420202 0.948718 -0.291215
C55   C     C_3   0.189306 0.108031 0.030380 -0.244878
C56   C     C_3   0.868424 0.920239 0.948724 -0.291234
C57   C     C_3   0.682482 0.587099 0.950776 -0.278354
C58   C     C_3   0.377346 0.405458 0.028643 -0.259899
C59   C     C_3   0.182550 0.087178 0.950757 -0.278963
C60   C     C_3   0.877348 0.905497 0.028649 -0.259917
C61   C     C_R   0.738901 0.375051 0.931986 0.019216
C62   C     C_R   0.249771 0.426247 0.080421 0.011108
C63   C     C_R   0.238916 0.875091 0.931974 0.021106
C64   C     C_R   0.749769 0.926249 0.080422 0.011229
H9    H     H_    0.237180 0.160559 0.044570 0.155006
H10   H     H_    0.904844 0.988274 0.925042 0.144899
H11   H     H_    0.737104 0.660525 0.044582 0.155001
H12   H     H_    0.404847 0.488226 0.925034 0.145074
H13   H     H_    0.639857 0.640091 0.055593 0.147063
H14   H     H_    0.364775 0.332506 0.919468 0.135203
H15   H     H_    0.139926 0.140202 0.055568 0.147057
H16   H     H_    0.864787 0.832542 0.919473 0.135335
H17   H     H_    0.628921 0.605570 0.930130 0.144966
H18   H     H_    0.378438 0.308671 0.045576 0.150593
H19   H     H_    0.128997 0.105692 0.930103 0.144699
H20   H     H_    0.878449 0.808710 0.045581 0.150722
H21   H     H_    0.725887 0.628533 0.919266 0.140806
H22   H     H_    0.419692 0.463559 0.051061 0.146909
H23   H     H_    0.225970 0.128575 0.919252 0.139828
H24   H     H_    0.919687 0.963611 0.051068 0.146797
C65   C     C_R   0.488101 0.163214 0.431192 -0.031639
C66   C     C_R   0.489072 0.171411 0.580058 -0.011076
C67   C     C_R   0.995660 0.661284 0.427711 -0.030288
C68   C     C_R   0.995674 0.672508 0.576611 -0.016718
C69   C     C_R   0.484966 0.271896 0.468031 -0.032366
C70   C     C_R   0.483274 0.277685 0.539965 -0.019815
C71   C     C_R   0.998287 0.770965 0.463289 -0.033618
C72   C     C_R   0.998255 0.777691 0.535240 -0.026613
C73   C     C_R   0.475026 0.059208 0.546827 0.158757
C74   C     C_R   0.480088 0.052074 0.470776 0.150981
C75   C     C_R   0.979717 0.561407 0.543714 0.173247
C76   C     C_R   0.986590 0.551356 0.468240 0.155652
C77   C     C_3   0.524064 0.387711 0.458245 -0.266200
C78   C     C_3   0.522178 0.397037 0.538678 -0.252306
C79   C     C_3   0.047428 0.874411 0.453074 -0.271839
C80   C     C_3   0.048912 0.882342 0.533420 -0.248623
H25   H     H_    0.021826 0.953893 0.427439 0.162068
H26   H     H_    0.100469 0.856567 0.555723 0.168736
H27   H     H_    0.492826 0.459224 0.431161 0.159036
H28   H     H_    0.574914 0.391924 0.562413 0.169542
H29   H     H_    0.577314 0.372508 0.436018 0.147605
H30   H     H_    0.489492 0.473711 0.558132 0.147193
H31   H     H_    0.097971 0.845506 0.428936 0.139466
H32   H     H_    0.025782 0.967720 0.554573 0.153094
C81   C     C_R   0.743236 0.401538 0.417051 0.024976
C82   C     C_R   0.253064 0.388621 0.584031 0.015886
C83   C     C_R   0.252111 0.920179 0.423860 -0.012510
C84   C     C_R   0.753643 0.882992 0.585068 0.021322
C85   C     C_R   0.764184 0.288535 0.443288 0.001061
C86   C     C_R   0.204915 0.315752 0.547236 -0.002558
C87   C     C_R   0.295280 0.838223 0.457974 0.097072
C88   C     C_R   0.704648 0.813073 0.547431 0.007685
C89   C     C_R   0.760827 0.265399 0.515768 -0.017071
C90   C     C_R   0.213955 0.289113 0.475998 -0.025971
C91   C     C_R   0.295697 0.829368 0.530918 0.116398
C92   C     C_R   0.713944 0.786008 0.476312 -0.024849
C93   C     C_R   0.701398 0.453975 0.535773 -0.142182
C94   C     C_R   0.326346 0.386593 0.477388 -0.147371
C95   C     C_R   0.210912 0.990096 0.540296 -0.176588
C96   C     C_R   0.829633 0.869530 0.480168 -0.154351
C97   C     C_R   0.705137 0.478165 0.462730 -0.164148
C98   C     C_R   0.317689 0.412866 0.550665 -0.152123
C99   C     C_R   0.210291 0.997894 0.465649 -0.176653
C100  C     C_R   0.820641 0.894852 0.553995 -0.152778
C101  C     C_3   0.831271 0.220897 0.435248 -0.244898
C102  C     C_3   0.127974 0.334444 0.537378 -0.196295
C103  C     C_3   0.299421 0.704318 0.447372 -0.274982
C104  C     C_3   0.627871 0.831718 0.537322 -0.207249
C105  C     C_3   0.830540 0.205729 0.515608 -0.235173
C106  C     C_3   0.138856 0.310298 0.459270 -0.211613
C107  C     C_3   0.301238 0.694326 0.527715 -0.245525
C108  C     C_3   0.638950 0.807410 0.459150 -0.223071
C109  C     C_R   0.732978 0.349047 0.563591 0.049738
C110  C     C_R   0.271776 0.330932 0.438358 0.007702
C111  C     C_R   0.251842 0.900941 0.573368 0.030627
C112  C     C_R   0.773056 0.824039 0.439198 0.004909
H33   H     H_    0.676000 0.519302 0.570372 0.138717
H34   H     H_    0.372888 0.418086 0.450323 0.144061
H35   H     H_    0.176001 0.046855 0.571312 0.133976
H36   H     H_    0.878233 0.894622 0.454380 0.148686
H37   H     H_    0.683515 0.561747 0.443029 0.136675
H38   H     H_    0.358257 0.462055 0.578811 0.125685
H39   H     H_    0.176971 0.063538 0.440202 0.143525
H40   H     H_    0.862969 0.937099 0.583526 0.129941
H41   H     H_    0.874826 0.276840 0.414868 0.238649
H42   H     H_    0.111125 0.429424 0.547779 0.177439
H43   H     H_    0.349149 0.675738 0.421446 0.188476
H44   H     H_    0.610705 0.926518 0.547872 0.176253
H45   H     H_    0.823642 0.133750 0.406216 0.142838
H46   H     H_    0.096904 0.262237 0.564430 0.191258
H47   H     H_    0.250972 0.665480 0.423323 0.121377
H48   H     H_    0.597662 0.758530 0.564389 0.190516
H49   H     H_    0.871034 0.260002 0.543758 0.246504
H50   H     H_    0.133187 0.393419 0.426257 0.203465
H51   H     H_    0.352694 0.663613 0.548640 0.181935
H52   H     H_    0.633791 0.890554 0.426123 0.206592
H53   H     H_    0.826550 0.111865 0.533002 0.133069
H54   H     H_    0.110357 0.228852 0.439766 0.173932
H55   H     H_    0.254094 0.648262 0.549853 0.126566
H56   H     H_    0.610679 0.725636 0.439606 0.167386
H57   H     H_    0.810806 0.224386 0.950553 0.151289
H58   H     H_    0.136959 0.399294 0.081952 0.141420
H59   H     H_    0.310791 0.724384 0.950549 0.151583
H60   H     H_    0.636958 0.899276 0.081951 0.141359
H61   H     H_    0.819288 0.255284 0.078075 0.139644
H62   H     H_    0.123670 0.415377 0.953688 0.136977
H63   H     H_    0.319268 0.755278 0.078071 0.139762
H64   H     H_    0.623669 0.915365 0.953687 0.136997
N1    N     N_R   0.452684 0.958859 0.590731 0.108087
O53   O     O_R   0.484276 0.854590 0.588446 -0.335672
O54   O     O_R   0.407933 0.978393 0.641920 -0.340193
N2    N     N_R   0.480276 0.935858 0.434873 0.094955
O55   O     O_R   0.520030 0.917927 0.379437 -0.368586
O56   O     O_R   0.443226 0.845252 0.458353 -0.320141
N3    N     N_R   0.950517 0.465489 0.586334 0.103303
O57   O     O_R   0.990576 0.381857 0.613335 -0.333416
O58   O     O_R   0.887324 0.478222 0.611349 -0.336315
N4    N     N_R   0.990013 0.432521 0.434947 0.064842
O59   O     O_R   0.020166 0.418747 0.373154 -0.363799
O60   O     O_R   0.979332 0.334918 0.472469 -0.378461

loop_
_geom_bond_atom_site_label_1
_geom_bond_atom_site_label_2
_geom_bond_distance
_ccdc_geom_bond_type
C18   O42   1.280952 A    
Cr11  O51   1.986811 S    
O4    C12   1.268406 A    
C78   H28   1.101364 S    
C29   C30   1.468107 S    
O39   C19   1.282453 A    
C25   H6    1.083979 S    
C58   H18   1.111217 S    
C42   C58   1.495764 S    
C66   C73   1.408361 A    
C75   N3    1.433906 S    
C31   C32   1.468100 S    
C86   C102  1.493449 S    
C35   C51   1.398138 A    
C27   H8    1.083983 S    
C19   C68   1.440793 S    
C45   C61   1.412724 A    
C47   C51   1.388421 A    
C43   C63   1.390342 A    
C107  H51   1.110252 S    
C73   C74   1.430298 A    
O1    C9    1.258155 A    
O27   Cr3   2.060984 S    
C24   C112  1.477925 S    
C30   H2    1.084724 S    
C43   C59   1.491053 S    
C53   H11   1.111680 S    
C1    C36   1.448817 S    
C105  H49   1.108966 S    
C15   O35   1.263458 A    
C82   C98   1.405879 A    
Cr3   O51   1.981335 S    
C54   H12   1.111541 S    
C77   C78   1.510970 S    
C81   C97   1.405046 A    
C91   C111  1.398218 A    
C96   C100  1.421511 A    
C79   H31   1.111415 S    
C102  H46   1.111446 S    
C9    C61   1.446485 S    
C66   C70   1.394010 A    
C15   C82   1.470991 S    
C101  H45   1.112128 S    
O33   Cr5   2.053238 S    
C86   C90   1.377522 A    
C4    C33   1.446554 S    
C100  H40   1.082994 S    
C31   H3    1.086332 S    
C80   H26   1.106077 S    
O47   C23   1.278520 A    
O20   Cr12  2.051889 S    
C54   C58   1.515901 S    
C77   H29   1.110087 S    
C81   C85   1.396125 A    
C91   C107  1.491189 S    
O8    Cr4   1.946870 S    
O23   Cr11  1.951316 S    
N2    O55   1.300641 A    
C90   C106  1.484991 S    
N1    O53   1.297904 A    
C46   C50   1.390925 A    
C89   C105  1.483995 S    
C25   C30   1.338465 D    
O32   Cr4   1.942559 S    
C1    O9    1.262101 A    
C96   H36   1.079722 S    
O7    C3    1.272365 A    
C56   H10   1.111540 S    
C13   C84   1.483497 S    
C87   C103  1.489177 S    
C27   C32   1.338468 D    
C3    O11   1.262099 A    
C94   C110  1.411140 A    
C69   C70   1.349665 A    
O11   Cr7   2.073602 S    
C4    O12   1.273153 A    
O21   C9    1.279431 A    
C93   C109  1.403719 A    
C88   C104  1.490899 S    
C84   C100  1.408937 A    
C58   H22   1.111481 S    
C101  C105  1.514750 S    
O3    C11   1.258149 A    
O8    C4    1.266557 A    
C108  H52   1.108678 S    
O3    Cr3   2.064263 S    
C38   C42   1.383159 A    
C73   N1    1.439651 S    
C46   C62   1.403082 A    
C37   C41   1.382032 A    
C106  H54   1.109193 S    
C90   C110  1.385485 A    
O2    C10   1.268409 A    
C23   C111  1.448443 S    
O42   Cr10  2.072263 S    
C85   C101  1.489081 S    
O18   Cr10  2.051889 S    
C41   C61   1.390360 A    
C103  C107  1.509675 S    
C96   C112  1.415220 A    
C2    C35   1.446552 S    
C102  H42   1.111467 S    
C35   C39   1.405631 A    
C36   C52   1.407405 A    
C101  H41   1.100255 S    
C56   C60   1.515903 S    
Cr7   O51   1.981584 S    
C16   C81   1.455258 S    
C106  H50   1.109260 S    
C20   O44   1.283524 A    
O6    Cr2   1.946870 S    
O35   Cr7   2.053238 S    
N3    O58   1.300291 A    
O31   Cr3   1.943771 S    
O4    Cr4   2.063574 S    
O24   Cr12  1.952510 S    
O16   Cr8   1.931601 S    
O9    Cr5   2.073602 S    
O30   Cr2   1.942559 S    
C78   H30   1.111645 S    
O22   C10   1.272394 A    
C67   C71   1.380018 A    
C104  H48   1.110720 S    
C83   C87   1.379528 A    
C89   C109  1.390990 A    
C68   C72   1.393128 A    
C103  H43   1.111131 S    
C68   C75   1.402353 A    
C79   H25   1.111678 S    
C2    O10   1.273157 A    
C53   H13   1.111530 S    
C79   C80   1.508255 S    
C85   C89   1.382821 A    
C76   N4    1.450809 S    
C83   C99   1.408336 A    
C59   H23   1.112569 S    
C95   C99   1.401210 A    
N4    O59   1.301254 A    
Cr10  O50   1.982408 S    
C54   H14   1.112170 S    
C28   C31   1.348555 D    
C47   C63   1.412731 A    
Cr4   O52   1.981243 S    
O28   Cr4   2.063735 S    
C88   C92   1.376976 A    
N1    O54   1.301398 A    
O48   Cr12  1.933766 S    
C108  H56   1.110242 S    
O15   C7    1.278187 A    
C26   H5    1.086170 S    
O5    C1    1.272364 A    
C18   C65   1.452381 S    
C93   C97   1.395661 A    
C104  C108  1.503876 S    
O46   Cr10  1.933766 S    
O39   Cr7   1.954284 S    
O25   C21   1.294737 A    
C46   H58   1.083581 S    
O45   Cr9   1.931186 S    
C71   C72   1.350162 A    
C44   C60   1.495762 S    
C10   C62   1.449871 S    
C45   H57   1.081993 S    
O48   C24   1.305092 A    
C34   C50   1.407406 A    
C3    C34   1.448813 S    
O13   Cr5   1.934914 S    
C13   O33   1.264307 A    
C6    C26   1.460472 S    
C33   C49   1.398148 A    
C55   H15   1.111529 S    
O47   Cr11  1.931186 S    
Cr2   O50   1.981243 S    
C59   H19   1.111536 S    
C107  H55   1.110559 S    
C56   H16   1.112168 S    
Cr1   O49   1.981335 S    
C82   C86   1.399723 A    
C41   C57   1.491060 S    
C77   H27   1.110749 S    
C49   H61   1.083600 S    
C52   H64   1.079481 S    
C102  C106  1.501859 S    
C47   H59   1.081995 S    
O26   C22   1.303984 A    
C38   C54   1.487576 S    
O21   Cr9   1.951316 S    
C7    O19   1.267931 A    
C53   C57   1.515114 S    
O30   C14   1.269940 A    
O37   Cr5   1.954284 S    
C104  H44   1.111875 S    
C8    C28   1.460459 S    
C7    C27   1.457106 S    
C19   O43   1.258336 A    
C51   H63   1.083600 S    
C103  H47   1.112659 S    
C69   C77   1.485806 S    
C29   H1    1.086330 S    
C40   C44   1.383155 A    
C8    O20   1.274251 A    
C70   C78   1.506724 S    
C26   C29   1.348561 D    
O14   Cr6   1.931601 S    
C34   C38   1.392423 A    
O25   Cr1   2.060984 S    
C37   C53   1.497072 S    
C80   H32   1.111985 S    
N2    O56   1.296689 A    
C5    O17   1.267933 A    
C92   C112  1.387183 A    
O37   C17   1.284208 A    
O22   Cr10  1.952510 S    
O28   C24   1.306702 A    
C95   C111  1.399718 A    
C60   H20   1.111217 S    
C99   H39   1.074728 S    
C14   C83   1.445246 S    
O5    Cr1   1.944780 S    
C11   C63   1.446451 S    
C5    C25   1.457099 S    
C72   C80   1.501327 S    
O31   C15   1.286726 A    
O17   Cr9   2.049874 S    
O2    Cr2   2.063574 S    
C98   H38   1.080925 S    
O7    Cr3   1.944780 S    
N3    O57   1.299899 A    
O24   C12   1.272396 A    
C17   O41   1.259050 A    
O6    C2    1.266544 A    
C44   C64   1.401573 A    
C45   C49   1.388432 A    
C67   C76   1.437602 A    
C22   C110  1.468626 S    
C17   C66   1.446475 S    
C14   O34   1.273699 A    
C21   C109  1.455410 S    
O40   Cr8   1.952933 S    
O44   Cr12  2.072263 S    
C65   C74   1.437406 A    
C12   C64   1.449867 S    
C92   C108  1.485185 S    
O1    Cr1   2.064263 S    
C71   C79   1.484489 S    
C28   H7    1.086170 S    
C60   H24   1.111481 S    
O14   C6    1.271936 A    
C94   H34   1.077853 S    
C20   C67   1.447659 S    
O15   Cr7   1.934914 S    
Cr8   O52   1.986106 S    
O32   C16   1.273742 A    
C93   H33   1.083215 S    
C48   H60   1.083581 S    
C39   C55   1.497071 S    
Cr6   O50   1.986106 S    
C50   H62   1.079476 S    
Cr12  O52   1.982408 S    
C33   C37   1.405622 A    
Cr5   O49   1.981584 S    
O45   C21   1.299146 A    
C32   H4    1.084722 S    
O34   Cr6   2.049500 S    
C105  H53   1.085198 S    
C42   C62   1.401579 A    
O26   Cr2   2.063735 S    
C97   H37   1.074107 S    
O23   C11   1.279443 A    
C57   H17   1.111537 S    
O10   Cr6   2.072283 S    
O40   C20   1.262010 A    
C65   C69   1.382646 A    
C55   C59   1.515113 S    
C74   N2    1.445408 S    
C40   C56   1.487582 S    
C75   C76   1.424416 A    
C48   C52   1.390925 A    
C94   C98   1.412866 A    
O29   Cr1   1.943771 S    
O19   Cr11  2.049874 S    
C36   C40   1.392433 A    
C16   O36   1.273627 A    
O38   C18   1.265389 A    
O46   C22   1.300963 A    
C39   C43   1.382031 A    
C6    O18   1.274252 A    
O43   Cr11  2.071310 S    
O29   C13   1.292346 A    
O41   Cr9   2.071310 S    
C55   H9    1.111680 S    
O12   Cr8   2.072283 S    
C57   H21   1.112567 S    
O36   Cr8   2.049500 S    
N4    O60   1.298606 A    
C48   C64   1.403083 A    
O16   C8    1.271936 A    
Cr9   O49   1.986811 S    
C87   C91   1.370115 A    
C84   C88   1.400090 A    
C95   H35   1.082938 S    
O38   Cr6   1.952933 S    
O27   C23   1.260916 A    
O13   C5    1.278185 A    
