data_mof_unit_17049.cif
_audit_creation_date              2012-12-11T14:21:13-0500
_audit_creation_method            fapswitch 2.2
_symmetry_space_group_name_H-M    P1
_symmetry_Int_Tables_number       1
_space_group_crystal_system       triclinic
_cell_length_a                    21.960074
_cell_length_b                    7.208437
_cell_length_c                    14.935795
_cell_angle_alpha                 89.99904
_cell_angle_beta                  106.891375
_cell_angle_gamma                 89.995243
_cell_volume                      2262.30126615

loop_
_atom_site_label
_atom_site_type_symbol
_atom_type_description
_atom_site_fract_x
_atom_site_fract_y
_atom_site_fract_z
_atom_type_partial_charge
O1    O     O_R   0.584770 0.505770 0.002090 -0.535798
O2    O     O_R   0.415230 0.005770 0.997910 -0.535723
O3    O     O_R   0.467060 0.173340 0.861950 -0.535009
O4    O     O_R   0.532940 0.673340 0.138050 -0.535249
C1    C     C_R   0.455095 0.344299 0.826094 0.765258
C2    C     C_R   0.544902 0.844286 0.173905 0.765439
O5    O     O_R   0.587510 0.175890 0.993210 -0.541704
O6    O     O_R   0.412490 0.675890 0.006790 -0.541818
O7    O     O_R   0.536540 0.008150 0.130100 -0.540329
O8    O     O_R   0.463460 0.508150 0.869900 -0.540511
C3    C     C_R   0.612967 0.344918 0.997456 0.731454
C4    C     C_R   0.387031 0.844923 0.002534 0.731418
O9    O     O_3   0.483140 0.340040 0.044760 -0.384417
O10   O     O_3   0.516860 0.840040 0.955240 -0.384369
V1    V     V_3+5 0.503130 0.064190 0.991700 1.478774
V2    V     V_3+5 0.496870 0.564190 0.008300 1.478187
C5    C     C_2   0.213953 0.727617 0.003147 -0.129711
C6    C     C_2   0.786027 0.227660 0.996721 -0.129715
C7    C     C_2   0.180347 0.886778 0.996378 -0.301486
C8    C     C_2   0.819662 0.386773 0.003681 -0.301617
H1    H     H_    0.190784 0.596728 0.008528 0.140917
H2    H     H_    0.809163 0.096824 0.991120 0.140939
H3    H     H_    0.201995 0.019112 0.989910 0.133748
H4    H     H_    0.798050 0.519044 0.010387 0.133834
C9    C     C_2   0.281849 0.714646 0.003000 -0.129061
C10   C     C_2   0.718146 0.214657 0.996943 -0.128820
C11   C     C_2   0.319933 0.861429 0.003461 -0.280446
C12   C     C_2   0.680057 0.361427 0.996494 -0.280659
H5    H     H_    0.300983 0.575680 0.003145 0.148222
H6    H     H_    0.699023 0.075691 0.996807 0.148329
H7    H     H_    0.302048 0.001231 0.004146 0.137943
H8    H     H_    0.697930 0.501224 0.995757 0.137925
C13   C     C_R   0.927331 0.889138 0.724217 -0.027178
C14   C     C_R   0.072674 0.389063 0.275789 -0.027141
C15   C     C_R   0.574076 0.852925 0.274984 -0.113699
C16   C     C_R   0.425929 0.353042 0.725011 -0.113669
C17   C     C_R   0.937210 0.937384 0.569274 -0.158432
C18   C     C_R   0.062755 0.436580 0.430765 -0.158413
C19   C     C_R   0.965050 0.924718 0.665441 -0.173514
C20   C     C_R   0.034934 0.424263 0.334577 -0.173488
C21   C     C_R   0.861582 0.866269 0.686943 -0.210095
C22   C     C_R   0.138427 0.366302 0.313059 -0.210079
C23   C     C_R   0.831608 0.885926 0.589746 0.081965
C24   C     C_R   0.168383 0.385715 0.410271 0.081980
C25   C     C_R   0.871027 0.920153 0.531148 0.139979
C26   C     C_R   0.128943 0.419380 0.468897 0.140020
C27   C     C_R   0.764061 0.876827 0.549190 0.052994
C28   C     C_R   0.235944 0.376939 0.450813 0.052965
C29   C     C_R   0.737506 0.889577 0.449803 0.071040
C30   C     C_R   0.262474 0.388938 0.550219 0.071134
C31   C     C_R   0.778779 0.931666 0.395570 -0.116429
C32   C     C_R   0.221165 0.430097 0.604525 -0.116399
C33   C     C_R   0.844086 0.944040 0.435347 -0.234226
C34   C     C_R   0.155864 0.442645 0.564742 -0.234233
C35   C     C_R   0.722093 0.863539 0.604895 -0.181244
C36   C     C_R   0.277939 0.364890 0.395087 -0.181237
C37   C     C_R   0.656645 0.863120 0.565227 -0.168263
C38   C     C_R   0.343389 0.364996 0.434762 -0.168230
C39   C     C_R   0.630201 0.866245 0.468500 0.075983
C40   C     C_R   0.369819 0.367450 0.531499 0.075999
C41   C     C_R   0.670150 0.870773 0.408805 -0.029542
C42   C     C_R   0.329851 0.370581 0.591186 -0.029473
C43   C     C_R   0.563721 0.862944 0.431112 -0.161331
C44   C     C_R   0.436304 0.365054 0.568918 -0.161333
C45   C     C_R   0.535851 0.859971 0.334820 -0.280894
C46   C     C_R   0.464157 0.361645 0.665214 -0.280785
C47   C     C_R   0.640526 0.852709 0.310974 0.531905
C48   C     C_R   0.359480 0.351847 0.688979 0.531831
H9    H     H_    0.873729 0.976742 0.390710 0.131867
H10   H     H_    0.126199 0.474826 0.609424 0.131832
H11   H     H_    0.484459 0.859013 0.306935 0.130126
H12   H     H_    0.515546 0.361559 0.693132 0.130111
H13   H     H_    0.626334 0.857859 0.610987 0.119429
H14   H     H_    0.373716 0.360811 0.388994 0.119416
H15   H     H_    0.967308 0.965338 0.524756 0.120200
H16   H     H_    0.032629 0.464130 0.475302 0.120166
H17   H     H_    0.015917 0.944534 0.694196 0.111538
H18   H     H_    0.984053 0.443967 0.305824 0.111504
H19   H     H_    0.835410 0.837050 0.736143 0.095370
H20   H     H_    0.164641 0.337289 0.263863 0.095358
H21   H     H_    0.761932 0.966811 0.322555 0.207495
H22   H     H_    0.237997 0.464536 0.677631 0.207342
H23   H     H_    0.738070 0.860280 0.680148 0.118049
H24   H     H_    0.261968 0.362418 0.319820 0.118065
H25   H     H_    0.533194 0.862683 0.476587 0.132792
H26   H     H_    0.466842 0.365969 0.523461 0.132779
O11   O     O_R   0.036450 0.233070 0.130130 -0.538742
O12   O     O_R   0.963550 0.733070 0.869870 -0.538753
O13   O     O_R   0.912470 0.560570 0.006790 -0.544810
O14   O     O_R   0.087530 0.060570 0.993210 -0.544819
C49   C     C_R   0.886984 0.391925 0.002569 0.730073
C50   C     C_R   0.113017 0.891921 0.997437 0.730035
O15   O     O_R   0.032920 0.562940 0.138050 -0.538561
O16   O     O_R   0.967080 0.062940 0.861950 -0.538574
O17   O     O_R   0.084790 0.730500 0.002090 -0.537313
O18   O     O_R   0.915210 0.230500 0.997910 -0.537296
C51   C     C_R   0.044727 0.394553 0.174414 0.685001
C52   C     C_R   0.955280 0.894565 0.825588 0.684996
O19   O     O_3   0.016820 0.396170 0.955260 -0.378340
O20   O     O_3   0.983180 0.896170 0.044740 -0.378314
V3    V     V_3+5 0.996880 0.672090 0.008300 1.420965
V4    V     V_3+5 0.003120 0.172090 0.991700 1.420950
F1    F     F_    0.674298 0.818837 0.249685 -0.722225
F2    F     F_    0.325741 0.316482 0.750155 -0.722127

loop_
_geom_bond_atom_site_label_1
_geom_bond_atom_site_label_2
_ccdc_geom_bond_type
C43   C45   A    
C22   H20   S    
C17   C25   A    
O18   V4    S    
C14   C22   A    
C33   H9    S    
C2    O7    A    
O12   V3    S    
C47   F1    S    
C27   C29   A    
C18   H16   S    
O5    C3    A    
C13   C19   A    
C14   C20   A    
C19   H17   S    
C16   C46   A    
C37   C39   A    
C15   C45   A    
C38   C40   A    
C1    C16   S    
C14   C51   S    
C2    C15   S    
C40   C42   A    
C13   C52   S    
C37   H13   S    
O14   V4    S    
C7    C50   S    
C49   O18   A    
C46   H12   S    
C8    H4    S    
C24   C26   A    
C29   C31   A    
C6    C10   S    
C30   C32   A    
O13   C49   A    
C31   H21   S    
C28   C30   A    
C17   H15   S    
O2    C4    A    
O6    V2    S    
C43   H25   S    
C21   C23   A    
C22   C24   A    
C44   H26   S    
C32   C34   A    
C36   H24   S    
C9    H5    S    
C8    C49   S    
C39   C41   A    
C29   C41   A    
C4    C11   S    
C11   H7    S    
C12   H8    S    
O4    C2    A    
O15   V3    S    
C45   H11   S    
C50   O17   A    
C5    H1    S    
C31   C33   A    
C44   C46   A    
O4    V2    S    
C7    H3    S    
O11   V4    S    
C41   C47   A    
O14   C50   A    
C34   H10   S    
C15   C47   A    
O6    C4    A    
C26   C34   A    
O1    V2    S    
C32   H22   S    
O2    V1    S    
C23   C25   A    
C10   H6    S    
C35   C37   A    
C30   C42   A    
C20   H18   S    
C35   H23   S    
O15   C51   A    
O3    V1    S    
C38   H14   S    
C27   C35   A    
C28   C36   A    
O13   V3    S    
C6    H2    S    
C10   C12   D    
C48   F2    S    
O3    C1    A    
C21   H19   S    
C16   C48   A    
C9    C11   D    
C39   C43   A    
C42   C48   A    
C40   C44   A    
C13   C21   A    
O7    V1    S    
C5    C9    S    
C1    O8    A    
C17   C19   A    
O8    V2    S    
C18   C20   A    
C3    C12   S    
O5    V1    S    
O20   V3    S    
C5    C7    D    
C36   C38   A    
C6    C8    D    
C18   C26   A    
C25   C33   A    
O17   V3    S    
O19   V4    S    
O16   V4    S    
O9    V2    S    
O16   C52   A    
O10   V1    S    
O1    C3    A    
C23   C27   A    
O12   C52   A    
C24   C28   A    
O11   C51   A    
