data_mof_unit_61174.cif
_audit_creation_date              2012-12-10T17:54:05-0500
_audit_creation_method            fapswitch 2.2
_symmetry_space_group_name_H-M    P1
_symmetry_Int_Tables_number       1
_space_group_crystal_system       triclinic
_cell_length_a                    18.9042
_cell_length_b                    18.770881
_cell_length_c                    18.840873
_cell_angle_alpha                 109.404474
_cell_angle_beta                  109.270416
_cell_angle_gamma                 109.543501
_cell_volume                      5158.96345076

loop_
_atom_site_label
_atom_site_type_symbol
_atom_type_description
_atom_site_fract_x
_atom_site_fract_y
_atom_site_fract_z
_atom_type_partial_charge
C1    C     C_R   0.881663 0.380975 0.000348 0.787205
C2    C     C_R   0.813660 0.312922 0.997728 -0.074590
C3    C     C_R   0.813680 0.234729 0.985327 -0.201931
C4    C     C_R   0.749644 0.170587 0.986077 -0.215010
C5    C     C_R   0.683766 0.183145 0.996430 -0.066035
C6    C     C_R   0.678855 0.256183 0.998119 0.110235
C7    C     C_3   0.669296 0.321730 0.060205 -0.081588
C8    C     C_3   0.740619 0.392496 0.061870 -0.485166
C9    C     C_R   0.172310 0.482359 0.244533 -0.050413
C10   C     C_R   0.184864 0.501725 0.183472 -0.063779
C11   C     C_R   0.265158 0.521674 0.187033 -0.195200
C12   C     C_R   0.883602 0.501468 0.881470 0.848471
C13   C     C_R   0.329933 0.522225 0.251850 -0.195540
C14   C     C_R   0.313848 0.500282 0.311952 -0.072423
C15   C     C_R   0.233347 0.479934 0.304975 -0.026926
C16   C     C_3   0.177925 0.451608 0.342542 -0.005141
C17   C     C_3   0.107577 0.453919 0.272777 0.307184
C18   C     C_R   0.255764 0.756320 0.074518 0.121995
C19   C     C_R   0.183841 0.684557 0.998595 -0.088988
C20   C     C_R   0.177604 0.677331 0.919504 -0.206899
C21   C     C_R   0.242272 0.742434 0.919502 -0.208195
C22   C     C_R   0.315113 0.813579 0.998566 -0.086795
C23   C     C_R   0.118608 0.618658 0.000008 0.797656
C24   C     C_R   0.319290 0.816833 0.074487 0.125221
C25   C     C_3   0.371670 0.869169 0.170775 -0.476373
C26   C     C_3   0.299559 0.799441 0.170793 -0.471342
C27   C     C_R   0.497700 0.381115 0.379247 0.798081
C28   C     C_R   0.614507 0.501344 0.616819 0.843141
C29   C     C_R   0.496119 0.618608 0.614823 0.795433
C30   C     C_R   0.379027 0.499896 0.378536 0.796288
C31   C     C_R   0.500450 0.881249 0.881862 0.794757
C32   C     C_R   0.618495 0.118739 0.999727 0.826369
C33   C     C_R   0.499031 0.118640 0.118321 0.813944
C34   C     C_R   0.117823 0.500182 0.117828 0.786304
C35   C     C_R   0.381496 0.881156 0.999964 0.796523
C36   C     C_R   0.455602 0.292846 0.227423 0.097726
C37   C     C_R   0.496866 0.313350 0.313507 -0.061962
C38   C     C_R   0.527219 0.259932 0.333512 -0.209806
C39   C     C_R   0.527160 0.194976 0.269440 -0.207755
C40   C     C_R   0.494784 0.181944 0.184598 -0.093301
C41   C     C_R   0.454254 0.227991 0.163915 0.146342
C42   C     C_3   0.466209 0.278434 0.117893 -0.457635
C43   C     C_3   0.467912 0.349847 0.188047 -0.495891
C44   C     C_R   0.571808 0.759182 0.749752 0.130933
C45   C     C_2   0.754183 0.574399 0.749112 -0.156484
C46   C     C_R   0.495716 0.684560 0.681205 -0.092355
C47   C     C_R   0.417830 0.674330 0.680118 -0.209439
C48   C     C_R   0.418955 0.739316 0.745963 -0.203337
C49   C     C_R   0.498228 0.813432 0.815081 -0.084398
C50   C     C_R   0.573154 0.819687 0.814594 0.123422
C51   C     C_3   0.668821 0.876097 0.861491 -0.485554
C52   C     C_3   0.667445 0.806412 0.788016 -0.467480
C53   C     C_2   0.678202 0.502395 0.687289 -0.313793
C54   C     C_2   0.815085 0.574294 0.822297 -0.155913
C55   C     C_2   0.820873 0.502682 0.812223 -0.315850
C56   C     C_R   0.743362 0.320552 0.999818 0.067852
Cu1   Cu    Cu3+1 0.999590 0.561790 0.061400 0.932638
Cu2   Cu    Cu3+1 0.000410 0.438210 0.938600 0.947897
Cu3   Cu    Cu3+1 0.558560 0.561730 0.496790 0.942847
Cu4   Cu    Cu3+1 0.434970 0.438120 0.496790 0.943208
Cu5   Cu    Cu3+1 0.438600 0.999980 0.938570 0.949402
Cu6   Cu    Cu3+1 0.561400 0.999920 0.061330 0.953294
H1    H     H_    0.769964 0.635523 0.748904 0.158568
H2    H     H_    0.801745 0.435406 0.125262 0.210111
H3    H     H_    0.277919 0.537440 0.140627 0.140681
H4    H     H_    0.161709 0.385478 0.333859 0.149825
H5    H     H_    0.122612 0.622552 0.858303 0.157072
H6    H     H_    0.235981 0.736633 0.858289 0.154063
H7    H     H_    0.434184 0.869968 0.195977 0.206459
H8    H     H_    0.658175 0.443883 0.692610 0.153280
H9    H     H_    0.376048 0.933977 0.196442 0.195279
H10   H     H_    0.262767 0.824176 0.197084 0.208057
H11   H     H_    0.554191 0.270917 0.399094 0.141546
H12   H     H_    0.554375 0.156889 0.286774 0.163231
H13   H     H_    0.528898 0.298028 0.118689 0.206554
H14   H     H_    0.408598 0.246385 0.053058 0.200523
H15   H     H_    0.411288 0.358938 0.163657 0.196936
H16   H     H_    0.356547 0.617270 0.628264 0.155802
H17   H     H_    0.858906 0.635063 0.883479 0.161881
H18   H     H_    0.688660 0.939333 0.862321 0.190554
H19   H     H_    0.697462 0.770143 0.809298 0.192108
H20   H     H_    0.865280 0.225132 0.979334 0.153996
O1    O     O_R   0.909480 0.462010 0.051860 -0.590813
O2    O     O_R   0.445180 0.357580 0.407200 -0.583945
O3    O     O_R   0.638540 0.552110 0.586390 -0.580119
O4    O     O_R   0.534170 0.447730 0.586390 -0.586367
O5    O     O_R   0.548350 0.642270 0.586380 -0.586158
O6    O     O_R   0.443970 0.537890 0.586380 -0.591351
O7    O     O_R   0.459360 0.552110 0.407190 -0.589402
O8    O     O_R   0.354990 0.447740 0.407190 -0.594933
O9    O     O_R   0.448700 0.909820 0.858480 -0.587913
O10   O     O_R   0.552410 0.909770 0.962140 -0.586411
O11   O     O_R   0.538310 0.090150 0.948110 -0.590294
O12   O     O_R   0.910180 0.357650 0.948150 -0.586722
O13   O     O_R   0.642020 0.090090 0.051780 -0.579628
O14   O     O_R   0.447590 0.090130 0.037760 -0.585869
O15   O     O_R   0.551300 0.090080 0.141420 -0.586355
O16   O     O_R   0.357980 0.909810 0.948120 -0.588463
O17   O     O_R   0.461690 0.909750 0.051790 -0.586889
O18   O     O_R   0.910060 0.552180 0.962250 -0.579633
O19   O     O_R   0.910760 0.447820 0.858550 -0.586036
O20   O     O_R   0.089820 0.642350 0.051850 -0.585794
O21   O     O_R   0.090520 0.537990 0.948140 -0.586842
O22   O     O_R   0.089240 0.552180 0.141450 -0.597151
O23   O     O_R   0.089940 0.447820 0.037750 -0.584599
O24   O     O_R   0.549550 0.461960 0.407200 -0.585969
H21   H     H_    0.391479 0.538226 0.253965 0.153196
N1    N     N_3   0.211689 0.517073 0.432087 -0.555471
H22   H     H_    0.255378 0.506819 0.472723 0.220886
H23   H     H_    0.247145 0.579859 0.443305 0.217828
N2    N     N_3   0.031556 0.367636 0.207601 -0.566540
H24   H     H_    0.996215 0.372043 0.154877 0.200603
H25   H     H_    0.051293 0.323503 0.183929 0.197130
N3    N     N_3   0.083930 0.519386 0.307041 -0.518435
H26   H     H_    0.137495 0.582018 0.340554 0.212205
H27   H     H_    0.038053 0.516420 0.254746 0.222859
H28   H     H_    0.320267 0.759529 0.195366 0.194874
H29   H     H_    0.531748 0.410865 0.229722 0.211537
H30   H     H_    0.358535 0.731268 0.743439 0.152443
H31   H     H_    0.700263 0.880587 0.925356 0.207598
H32   H     H_    0.687234 0.829725 0.746981 0.206327
H33   H     H_    0.783784 0.444700 0.748648 0.154429
H34   H     H_    0.752369 0.112281 0.980197 0.144641
H35   H     H_    0.604982 0.316638 0.030855 0.160715
N4    N     N_3   0.694038 0.323267 0.143313 -0.588622
H36   H     H_    0.755595 0.329847 0.169023 0.250501
H37   H     H_    0.698046 0.378579 0.186609 0.226889
H38   H     H_    0.717022 0.427462 0.031466 0.184447

loop_
_geom_bond_atom_site_label_1
_geom_bond_atom_site_label_2
_ccdc_geom_bond_type
C26   H10   S    
C41   C42   S    
C20   H5    S    
C19   C20   A    
C18   C26   S    
C26   H28   S    
C7    H35   S    
C13   H21   S    
C8    C56   S    
N3    H26   S    
Cu4   O6    S    
Cu5   O14   S    
C7    C8    S    
C22   C35   S    
C42   H13   S    
C18   C24   A    
C1    O1    A    
C36   C37   A    
C31   C49   S    
C1    C2    S    
C38   C39   A    
Cu5   O11   S    
C23   O20   A    
C15   C16   S    
C11   C13   A    
N1    H22   S    
C27   O2    A    
C18   C19   A    
Cu3   O7    S    
C39   H12   S    
C51   H18   S    
C29   O6    A    
C54   C55   D    
C8    H38   S    
C23   O21   A    
Cu5   O16   S    
Cu6   O13   S    
C1    O12   A    
Cu6   O10   S    
Cu1   O1    S    
C25   H9    S    
C35   O16   A    
C9    C10   A    
C30   O8    A    
C5    C32   S    
C44   C52   S    
C32   O11   A    
C55   H33   S    
C45   C53   D    
Cu3   Cu4   S    
C13   C14   A    
C36   C41   A    
Cu5   Cu6   S    
C14   C30   S    
C30   O7    A    
C35   O17   A    
C53   H8    S    
C17   N2    S    
C44   C46   A    
C17   N3    S    
C50   C51   S    
C48   H30   S    
C33   C40   S    
C29   O5    A    
C51   C52   S    
Cu3   O24   S    
C24   C25   S    
N2    H25   S    
C39   C40   A    
Cu4   O4    S    
C16   C17   S    
C27   O24   A    
C25   C26   S    
Cu1   O18   S    
C45   H1    S    
C34   O22   A    
C4    H34   S    
C19   C23   S    
Cu3   O3    S    
C37   C38   A    
Cu1   O20   S    
Cu6   O15   S    
C52   H32   S    
C47   C48   A    
C3    H20   S    
C51   H31   S    
C10   C34   S    
Cu2   O19   S    
C7    N4    S    
C8    H2    S    
C9    C17   S    
C40   C41   A    
C45   C54   S    
C49   C50   A    
C31   O9    A    
C21   H6    S    
C28   O4    A    
N4    H36   S    
C22   C24   A    
C25   H7    S    
C42   C43   S    
C3    C4    A    
C33   O14   A    
C54   H17   S    
C44   C50   A    
Cu1   O22   S    
C46   C47   A    
C48   C49   A    
N2    H24   S    
C34   O23   A    
C6    C56   A    
C4    C5    A    
N3    H27   S    
C28   C53   S    
C6    C7    S    
Cu4   O8    S    
C43   H15   S    
C42   H14   S    
C29   C46   S    
Cu2   O23   S    
C2    C3    A    
C9    C15   A    
C12   O19   A    
C2    C56   A    
Cu4   O2    S    
Cu1   Cu2   S    
C5    C6    A    
C27   C37   S    
N1    H23   S    
C33   O15   A    
Cu2   O12   S    
C52   H19   S    
Cu3   O5    S    
C12   O18   A    
C12   C55   S    
C10   C11   A    
C16   N1    S    
C43   H29   S    
Cu6   O17   S    
Cu5   O9    S    
C32   O13   A    
C16   H4    S    
C20   C21   A    
C31   O10   A    
C28   O3    A    
N4    H37   S    
C14   C15   A    
C36   C43   S    
Cu2   O21   S    
C47   H16   S    
C21   C22   A    
C11   H3    S    
C38   H11   S    
