data_mof_unit_36073.cif
_audit_creation_date              2012-10-26T17:12:42-0400
_audit_creation_method            fapswitch 2.2
_symmetry_space_group_name_H-M    P1
_symmetry_Int_Tables_number       1
_space_group_crystal_system       triclinic
_cell_length_a                    27.950462
_cell_length_b                    18.664057
_cell_length_c                    16.796543
_cell_angle_alpha                 90.209994
_cell_angle_beta                  62.711505
_cell_angle_gamma                 90.188291
_cell_volume                      7787.01575973

loop_
_atom_site_label
_atom_site_type_symbol
_atom_type_description
_atom_site_fract_x
_atom_site_fract_y
_atom_site_fract_z
_atom_type_partial_charge
C1    C     C_R   0.291714 0.721966 0.331655 0.556316
C2    C     C_R   0.589058 0.999647 0.537533 0.014918
C3    C     C_R   0.680619 0.736752 0.914898 0.003979
C4    C     C_R   0.108225 0.799965 0.039983 -0.115507
C5    C     C_R   0.881036 0.177474 0.958401 -0.107056
C6    C     C_R   0.878643 0.824875 0.958101 -0.109645
C7    C     C_R   0.112792 0.182541 0.049800 -0.115553
C8    C     C_R   0.608178 0.299900 0.039999 -0.115513
C9    C     C_R   0.381078 0.677529 0.958370 -0.107055
C10   C     C_R   0.378638 0.324885 0.958101 -0.109636
C11   C     C_R   0.612791 0.682548 0.049802 -0.115561
C12   C     C_R   0.132027 0.765350 0.086799 0.291017
C13   C     C_R   0.910617 0.500293 0.463761 0.012413
C14   C     C_R   0.851399 0.188281 0.912150 0.303293
C15   C     C_R   0.848436 0.811331 0.912363 0.297971
C16   C     C_R   0.141189 0.201516 0.096520 0.285374
C17   C     C_R   0.631955 0.265229 0.086818 0.290786
C18   C     C_R   0.351452 0.688370 0.912103 0.303243
C19   C     C_R   0.348429 0.311353 0.912365 0.297955
C20   C     C_R   0.641190 0.701518 0.096521 0.285375
C21   C     C_R   0.274609 0.784460 0.766926 -0.105995
C22   C     C_R   0.723209 0.224880 0.237001 -0.118521
C23   C     C_R   0.720843 0.789947 0.241742 -0.110557
C24   C     C_R   0.089016 0.499643 0.537719 0.014963
C25   C     C_R   0.237471 0.313380 0.793240 -0.130989
C26   C     C_R   0.774581 0.284409 0.766981 -0.106009
C27   C     C_R   0.223255 0.725061 0.236931 -0.118806
C28   C     C_R   0.220844 0.289937 0.241742 -0.110558
C29   C     C_R   0.737478 0.813373 0.793236 -0.130981
C30   C     C_R   0.302617 0.770167 0.815503 0.277379
C31   C     C_R   0.695452 0.251048 0.192207 0.281322
C32   C     C_R   0.689336 0.782599 0.197513 0.291755
C33   C     C_R   0.269412 0.331877 0.835688 0.291070
C34   C     C_R   0.802575 0.270096 0.815574 0.277386
C35   C     C_R   0.583310 0.870211 0.546620 -0.132770
C36   C     C_R   0.195554 0.751394 0.192116 0.281521
C37   C     C_R   0.189336 0.282585 0.197516 0.291790
C38   C     C_R   0.769423 0.831862 0.835678 0.291065
C39   C     C_R   0.927824 0.900515 0.064763 0.544035
C40   C     C_R   0.071897 0.100159 0.935539 0.548238
C41   C     C_R   0.071323 0.899798 0.935328 0.547572
C42   C     C_R   0.927625 0.099398 0.065140 0.548598
C43   C     C_R   0.427823 0.400516 0.064764 0.544033
C44   C     C_R   0.571896 0.600160 0.935539 0.548230
C45   C     C_R   0.571319 0.399793 0.935333 0.547574
C46   C     C_R   0.416583 0.129726 0.454030 -0.127430
C47   C     C_R   0.427628 0.599401 0.065137 0.548599
C48   C     C_R   0.039742 0.629482 0.531429 0.005673
C49   C     C_R   0.960329 0.370465 0.468954 0.001414
C50   C     C_R   0.957549 0.630071 0.479517 -0.000904
C51   C     C_R   0.042484 0.369830 0.521021 -0.010411
C52   C     C_R   0.539828 0.129492 0.531106 0.005743
C53   C     C_R   0.460374 0.870465 0.468755 0.001390
C54   C     C_R   0.457632 0.130074 0.479203 -0.000954
C55   C     C_R   0.542534 0.869835 0.520811 -0.010421
C56   C     C_R   0.017278 0.694435 0.523417 -0.133132
C57   C     C_R   0.418336 0.871347 0.445784 -0.121671
C58   C     C_R   0.982975 0.305471 0.476529 -0.105763
C59   C     C_R   0.977848 0.694863 0.494365 -0.129490
C60   C     C_R   0.022755 0.305048 0.504862 -0.114119
C61   C     C_R   0.517405 0.194449 0.522994 -0.132674
C62   C     C_R   0.483020 0.805472 0.476330 -0.105795
C63   C     C_R   0.477967 0.194871 0.493960 -0.129220
C64   C     C_R   0.522803 0.805052 0.504655 -0.114071
C65   C     C_R   0.977861 0.564908 0.491829 0.010434
C66   C     C_R   0.021854 0.434986 0.509460 0.014515
C67   C     C_R   0.020576 0.564681 0.514466 0.013565
C68   C     C_R   0.581710 0.128670 0.554386 -0.128588
C69   C     C_R   0.979201 0.435211 0.486669 0.012826
C70   C     C_R   0.477936 0.064913 0.491544 0.010387
C71   C     C_R   0.521911 0.934991 0.509230 0.014516
C72   C     C_R   0.520651 0.064687 0.514179 0.013537
C73   C     C_R   0.479257 0.935214 0.486442 0.012833
C74   C     C_R   0.456452 0.000167 0.479104 -0.019380
C75   C     C_R   0.543249 0.999742 0.522052 -0.014082
C76   C     C_R   0.956394 0.500164 0.479340 -0.019415
C77   C     C_R   0.043190 0.499736 0.522290 -0.014094
C78   C     C_R   0.388237 0.934569 0.454550 -0.007275
C79   C     C_R   0.083277 0.370206 0.546793 -0.132782
C80   C     C_R   0.611648 0.065403 0.546053 -0.006081
C81   C     C_R   0.612252 0.933838 0.543160 -0.012125
C82   C     C_R   0.387537 0.066126 0.457752 -0.006281
C83   C     C_R   0.888212 0.434570 0.454682 -0.007255
C84   C     C_R   0.111616 0.565399 0.546214 -0.006086
C85   C     C_R   0.112225 0.433834 0.543301 -0.012110
C86   C     C_R   0.887503 0.566127 0.457918 -0.006290
C87   C     C_R   0.336434 0.934570 0.456729 -0.027281
C88   C     C_R   0.663531 0.065415 0.543534 -0.026930
C89   C     C_R   0.663769 0.934303 0.542331 -0.027376
C90   C     C_R   0.916532 0.629728 0.454272 -0.127419
C91   C     C_R   0.336159 0.065673 0.458065 -0.026504
C92   C     C_R   0.836429 0.434572 0.456784 -0.027298
C93   C     C_R   0.163522 0.565415 0.543599 -0.026950
C94   C     C_R   0.163762 0.434300 0.542391 -0.027384
C95   C     C_R   0.836149 0.565673 0.458136 -0.026486
C96   C     C_R   0.312100 0.000038 0.456940 -0.169936
C97   C     C_R   0.687887 0.999941 0.543246 -0.171022
C98   C     C_R   0.812104 0.500039 0.456962 -0.169954
C99   C     C_R   0.187892 0.499940 0.543266 -0.171013
C100  C     C_3   0.081458 0.665656 0.148355 0.007589
C101  C     C_R   0.918309 0.371349 0.445938 -0.121673
C102  C     C_3   0.038325 0.634123 0.235779 -0.242845
C103  C     C_3   0.014732 0.565259 0.218829 -0.493580
C104  C     C_3   0.846271 0.095854 0.825978 0.012648
C105  C     C_3   0.864585 0.032835 0.864953 -0.263355
C106  C     C_3   0.821277 0.010818 0.957831 -0.414337
C107  C     C_3   0.878676 0.728474 0.798380 0.005883
C108  C     C_3   0.933949 0.698508 0.778268 -0.270626
C109  C     C_3   0.938221 0.619433 0.752821 -0.480655
C110  C     C_3   0.162166 0.113582 0.170451 0.018632
C111  C     C_3   0.145758 0.042662 0.143032 -0.274521
C112  C     C_R   0.708076 0.278058 0.668259 0.555688
C113  C     C_R   0.081660 0.628663 0.554624 -0.128690
C114  C     C_3   0.189053 0.985598 0.121103 -0.484448
C115  C     C_3   0.581434 0.165473 0.148219 0.007756
C116  C     C_3   0.538237 0.133922 0.235567 -0.242800
C117  C     C_3   0.514729 0.065021 0.218518 -0.493631
C118  C     C_3   0.346323 0.595954 0.825918 0.012662
C119  C     C_3   0.364654 0.532922 0.864848 -0.263359
C120  C     C_3   0.321362 0.510881 0.957727 -0.414289
C121  C     C_3   0.378685 0.228511 0.798364 0.005853
C122  C     C_3   0.434019 0.198627 0.778006 -0.270604
C123  C     C_3   0.438321 0.119558 0.752526 -0.480692
C124  C     C_R   0.218440 0.766662 0.953491 -0.078493
C125  C     C_3   0.662185 0.613630 0.170491 0.018702
C126  C     C_3   0.645937 0.542721 0.142780 -0.274514
C127  C     C_3   0.689283 0.485743 0.120907 -0.484800
C128  C     C_3   0.370547 0.849913 0.783650 0.008860
C129  C     C_3   0.431124 0.855189 0.751565 -0.239110
C130  C     C_3   0.449002 0.932520 0.750976 -0.490703
C131  C     C_3   0.649602 0.343758 0.290470 0.005878
C132  C     C_3   0.614669 0.331502 0.390825 -0.260368
C133  C     C_3   0.618490 0.394381 0.445927 -0.472737
C134  C     C_3   0.618496 0.859656 0.234668 0.014902
C135  C     C_R   0.773524 0.223064 0.050373 -0.078532
C136  C     C_3   0.636235 0.917948 0.280809 -0.284846
C137  C     C_3   0.611174 0.990281 0.280814 -0.476335
C138  C     C_3   0.324665 0.411930 0.717628 0.018227
C139  C     C_3   0.358954 0.356621 0.646158 -0.260902
C140  C     C_3   0.374603 0.384459 0.552108 -0.464735
C141  C     C_3   0.870507 0.349854 0.783691 0.008860
C142  C     C_3   0.931064 0.355090 0.751849 -0.239065
C143  C     C_3   0.948960 0.432417 0.751200 -0.490686
C144  C     C_3   0.149644 0.843751 0.291144 0.005603
C145  C     C_3   0.114425 0.830792 0.391268 -0.260370
C146  C     C_R   0.768839 0.793915 0.054527 -0.081094
C147  C     C_3   0.118124 0.893026 0.447331 -0.472589
C148  C     C_3   0.118490 0.359640 0.234725 0.014874
C149  C     C_3   0.136180 0.417891 0.280982 -0.284808
C150  C     C_3   0.111109 0.490228 0.281043 -0.476385
C151  C     C_3   0.824687 0.911898 0.717606 0.018208
C152  C     C_3   0.858961 0.856581 0.646135 -0.260915
C153  C     C_3   0.874600 0.884415 0.552087 -0.464706
C154  C     C_R   0.208004 0.261178 0.963533 -0.077641
C155  C     C_R   0.718383 0.266551 0.953543 -0.078450
C156  C     C_R   0.273591 0.723208 0.050314 -0.078550
C157  C     C_R   0.268836 0.293915 0.054529 -0.081096
C158  C     C_R   0.708007 0.761176 0.963531 -0.077634
C159  C     C_R   0.274195 0.750883 0.907428 0.004252
C160  C     C_R   0.703528 0.731808 0.671847 0.552891
C161  C     C_R   0.718264 0.243929 0.097627 0.021044
C162  C     C_R   0.714330 0.773549 0.103331 -0.000563
C163  C     C_R   0.257531 0.298387 0.918406 0.028127
C164  C     C_R   0.774141 0.250780 0.907488 0.004294
C165  C     C_R   0.218349 0.744145 0.097560 0.021318
C166  C     C_R   0.214330 0.273539 0.103333 -0.000504
C167  C     C_R   0.757537 0.798377 0.918401 0.028104
C168  C     C_R   0.299970 0.721008 0.955420 0.004350
C169  C     C_R   0.689180 0.258980 0.047970 0.015242
C170  C     C_R   0.687076 0.746264 0.055979 -0.000069
C171  C     C_R   0.292033 0.277649 0.331311 0.554343
C172  C     C_R   0.291669 0.303354 0.960642 0.020042
C173  C     C_R   0.799910 0.220895 0.955478 0.004404
C174  C     C_R   0.189253 0.759142 0.047919 0.015398
C175  C     C_R   0.187074 0.246261 0.055980 -0.000052
C176  C     C_R   0.791674 0.803343 0.960638 0.020043
C177  C     C_R   0.137860 0.813789 0.948469 -0.033161
C178  C     C_R   0.856576 0.178880 0.052119 -0.037374
C179  C     C_R   0.854573 0.826746 0.052374 -0.038609
C180  C     C_R   0.134476 0.192482 0.956402 -0.034741
C181  C     C_R   0.637827 0.313739 0.948492 -0.033151
C182  C     C_R   0.791709 0.221957 0.331661 0.556262
C183  C     C_R   0.356611 0.678937 0.052090 -0.037382
C184  C     C_R   0.354571 0.326749 0.052374 -0.038596
C185  C     C_R   0.634476 0.692484 0.956403 -0.034772
C186  C     C_R   0.114614 0.845767 0.897843 -0.026797
C187  C     C_R   0.882740 0.152169 0.101883 -0.025783
C188  C     C_R   0.882795 0.848361 0.101009 -0.028277
C189  C     C_R   0.112956 0.158838 0.902528 -0.025402
C190  C     C_R   0.614600 0.345748 0.897855 -0.026796
C191  C     C_R   0.382752 0.652186 0.101872 -0.025781
C192  C     C_R   0.382794 0.348362 0.101008 -0.028272
C193  C     C_R   0.208079 0.778063 0.668254 0.555740
C194  C     C_R   0.612955 0.658840 0.902529 -0.025411
C195  C     C_R   0.137759 0.832071 0.806161 -0.158992
C196  C     C_R   0.860754 0.168194 0.192717 -0.157913
C197  C     C_R   0.862173 0.829239 0.190931 -0.158785
C198  C     C_R   0.135214 0.175952 0.811418 -0.159806
C199  C     C_R   0.637752 0.332063 0.806169 -0.158993
C200  C     C_R   0.360754 0.668191 0.192715 -0.157931
C201  C     C_R   0.362173 0.329237 0.190930 -0.158788
C202  C     C_R   0.635213 0.675953 0.811419 -0.159800
C203  C     C_R   0.188189 0.799877 0.762323 -0.022401
C204  C     C_R   0.203528 0.231808 0.671847 0.552884
C205  C     C_R   0.810078 0.199478 0.237811 -0.019738
C206  C     C_R   0.810574 0.800393 0.237430 -0.020985
C207  C     C_R   0.178062 0.224110 0.771254 -0.025030
C208  C     C_R   0.688177 0.299856 0.762339 -0.022422
C209  C     C_R   0.310089 0.699507 0.237795 -0.019735
C210  C     C_R   0.310574 0.300391 0.237430 -0.020986
C211  C     C_R   0.678062 0.724110 0.771254 -0.025026
C212  C     C_R   0.218412 0.789759 0.809848 -0.033694
C213  C     C_R   0.778354 0.209252 0.192055 -0.031720
C214  C     C_R   0.777152 0.796544 0.194066 -0.037233
C215  C     C_R   0.792033 0.777650 0.331312 0.554352
C216  C     C_R   0.199439 0.257428 0.824942 -0.028392
C217  C     C_R   0.718385 0.289710 0.809884 -0.033689
C218  C     C_R   0.278389 0.709350 0.192011 -0.031661
C219  C     C_R   0.277153 0.296540 0.194066 -0.037226
C220  C     C_R   0.699442 0.757426 0.824940 -0.028390
C221  C     C_R   0.196421 0.631740 0.527959 0.553793
C222  C     C_R   0.803570 0.368260 0.472102 0.553471
C223  C     C_R   0.803393 0.631674 0.472747 0.563757
C224  C     C_R   0.196583 0.368317 0.527381 0.546186
C225  C     C_R   0.696424 0.131738 0.527940 0.553759
C226  C     C_R   0.410658 0.000293 0.463576 0.012433
C227  C     C_R   0.303572 0.868258 0.472089 0.553528
C228  C     C_R   0.303397 0.131676 0.472726 0.563742
C229  C     C_R   0.696586 0.868319 0.527365 0.546193
C230  C     C_R   0.191516 0.789766 0.904067 -0.000353
C231  C     C_R   0.802875 0.204098 0.098131 -0.001986
C232  C     C_R   0.800336 0.805261 0.100184 -0.002235
C233  C     C_R   0.180617 0.236753 0.914899 0.003980
C234  C     C_R   0.691477 0.289695 0.904105 -0.000344
C235  C     C_R   0.302923 0.704203 0.098086 -0.001968
C236  C     C_R   0.300334 0.305261 0.100185 -0.002222
Cu1   Cu    Cu3+1 0.209920 0.785290 0.495070 0.862311
Cu2   Cu    Cu3+1 0.504760 0.500000 0.075850 0.913199
Cu3   Cu    Cu3+1 0.995240 0.000000 0.924150 0.896874
Cu4   Cu    Cu3+1 0.004760 0.000000 0.075850 0.913219
Cu5   Cu    Cu3+1 0.790080 0.214710 0.504930 0.909481
Cu6   Cu    Cu3+1 0.790080 0.785290 0.504930 0.858952
Cu7   Cu    Cu3+1 0.209920 0.214710 0.495070 0.907318
Cu8   Cu    Cu3+1 0.709920 0.285290 0.495070 0.862852
Cu9   Cu    Cu3+1 0.290080 0.714710 0.504930 0.909464
Cu10  Cu    Cu3+1 0.290080 0.285290 0.504930 0.858976
Cu11  Cu    Cu3+1 0.709920 0.714710 0.495070 0.907328
Cu12  Cu    Cu3+1 0.495240 0.500000 0.924150 0.896838
H1    H     H_    0.538914 0.754224 0.512133 0.119242
H2    H     H_    0.727678 0.000073 0.539301 0.154560
H3    H     H_    0.698427 0.478674 0.178126 0.131707
H4    H     H_    0.349559 0.866972 0.855346 0.119492
H5    H     H_    0.359120 0.886387 0.742810 0.129388
H6    H     H_    0.442113 0.822778 0.796134 0.171024
H7    H     H_    0.452560 0.832907 0.682871 0.195554
H8    H     H_    0.439435 0.965230 0.705018 0.158411
H9    H     H_    0.493166 0.934330 0.727312 0.158509
H10   H     H_    0.428504 0.955546 0.819569 0.140561
H11   H     H_    0.633030 0.390503 0.270746 0.147706
H12   H     H_    0.691524 0.358378 0.276430 0.118137
H13   H     H_    0.772405 0.499898 0.460540 0.156272
H14   H     H_    0.572077 0.324713 0.404421 0.169591
H15   H     H_    0.627449 0.281969 0.412123 0.172219
H16   H     H_    0.660590 0.401100 0.434919 0.168068
H17   H     H_    0.592270 0.384034 0.518206 0.137131
H18   H     H_    0.605037 0.444570 0.426993 0.137310
H19   H     H_    0.573833 0.859936 0.265015 0.165619
H20   H     H_    0.633598 0.872288 0.162309 0.119442
H21   H     H_    0.624516 0.901891 0.350807 0.190644
H22   H     H_    0.680685 0.924318 0.245275 0.150946
H23   H     H_    0.625296 0.009083 0.210969 0.142255
H24   H     H_    0.227699 0.500072 0.539252 0.154575
H25   H     H_    0.623363 0.030232 0.317282 0.164683
H26   H     H_    0.566614 0.986161 0.314671 0.159367
H27   H     H_    0.350757 0.459306 0.707901 0.129470
H28   H     H_    0.290779 0.433619 0.707972 0.106217
H29   H     H_    0.396211 0.345502 0.652116 0.185232
H30   H     H_    0.336891 0.305373 0.655388 0.175378
H31   H     H_    0.338012 0.396768 0.544682 0.175355
H32   H     H_    0.398208 0.343108 0.501829 0.133716
H33   H     H_    0.399539 0.433667 0.538845 0.130999
H34   H     H_    0.849426 0.367012 0.855348 0.119401
H35   H     H_    0.590335 0.819988 0.570582 0.153556
H36   H     H_    0.859190 0.386269 0.742661 0.129474
H37   H     H_    0.941936 0.322736 0.796603 0.170958
H38   H     H_    0.952589 0.332719 0.683209 0.195528
H39   H     H_    0.939481 0.465082 0.705107 0.158445
H40   H     H_    0.993111 0.434205 0.727671 0.158462
H41   H     H_    0.928399 0.455512 0.819752 0.140559
H42   H     H_    0.133236 0.890874 0.271793 0.147411
H43   H     H_    0.191518 0.858115 0.277616 0.118476
H44   H     H_    0.071894 0.824322 0.404389 0.169815
H45   H     H_    0.127011 0.780891 0.412151 0.172189
H46   H     H_    0.409630 0.179897 0.429852 0.148642
H47   H     H_    0.160161 0.899426 0.436764 0.168805
H48   H     H_    0.091718 0.882157 0.519414 0.136844
H49   H     H_    0.104825 0.943559 0.428864 0.137101
H50   H     H_    0.073829 0.359902 0.265018 0.165605
H51   H     H_    0.133621 0.372329 0.162374 0.119420
H52   H     H_    0.124434 0.401775 0.350971 0.190672
H53   H     H_    0.180630 0.424284 0.245507 0.150936
H54   H     H_    0.125252 0.509083 0.211214 0.142266
H55   H     H_    0.123269 0.530147 0.317584 0.164591
H56   H     H_    0.066550 0.486089 0.314857 0.159384
H57   H     H_    0.410788 0.822007 0.420023 0.150599
H58   H     H_    0.850790 0.959262 0.707870 0.129470
H59   H     H_    0.790802 0.933602 0.707956 0.106216
H60   H     H_    0.896222 0.845454 0.652078 0.185188
H61   H     H_    0.836892 0.805336 0.655380 0.175397
H62   H     H_    0.838005 0.896741 0.544682 0.175370
H63   H     H_    0.898189 0.843057 0.501807 0.133709
H64   H     H_    0.899548 0.933613 0.538807 0.130999
H65   H     H_    0.589267 0.178103 0.579960 0.146805
H66   H     H_    0.090322 0.319982 0.570728 0.153536
H67   H     H_    0.909605 0.679906 0.430078 0.148668
H68   H     H_    0.910782 0.322013 0.420144 0.150605
H69   H     H_    0.462187 0.245715 0.485864 0.101476
H70   H     H_    0.089248 0.678093 0.580164 0.146822
H71   H     H_    0.117196 0.848706 0.768136 0.156655
H72   H     H_    0.882650 0.154038 0.229468 0.156283
H73   H     H_    0.885683 0.839785 0.226120 0.153945
H74   H     H_    0.120174 0.149210 0.770020 0.157893
H75   H     H_    0.617201 0.348722 0.768134 0.156662
H76   H     H_    0.382632 0.653995 0.229482 0.156292
H77   H     H_    0.385684 0.339783 0.226118 0.153941
H78   H     H_    0.620173 0.649212 0.770021 0.157894
H79   H     H_    0.065038 0.807819 0.073419 0.140672
H80   H     H_    0.468750 0.754925 0.463226 0.118468
H81   H     H_    0.923061 0.165143 0.918404 0.157631
H82   H     H_    0.921775 0.829560 0.918428 0.150742
H83   H     H_    0.074253 0.158313 0.089885 0.170267
H84   H     H_    0.564993 0.307771 0.073417 0.140698
H85   H     H_    0.423098 0.665166 0.918384 0.157636
H86   H     H_    0.421771 0.329571 0.918425 0.150744
H87   H     H_    0.574252 0.658318 0.089885 0.170306
H88   H     H_    0.297857 0.797177 0.696631 0.156878
H89   H     H_    0.700006 0.217792 0.308155 0.158456
H90   H     H_    0.699712 0.797252 0.313484 0.163417
H91   H     H_    0.531302 0.244906 0.536970 0.094605
H92   H     H_    0.240474 0.344037 0.737403 0.136816
H93   H     H_    0.797838 0.297142 0.696693 0.156840
H94   H     H_    0.200034 0.717919 0.308065 0.158226
H95   H     H_    0.199712 0.297239 0.313484 0.163411
H96   H     H_    0.740482 0.844034 0.737399 0.136822
H97   H     H_    0.116256 0.628138 0.118987 0.125410
H98   H     H_    0.063791 0.671448 0.101140 0.115152
H99   H     H_    0.056089 0.622933 0.281599 0.185376
H100  H     H_    0.005364 0.673699 0.268984 0.176782
H101  H     H_    0.992674 0.577038 0.179710 0.149452
H102  H     H_    0.038870 0.254220 0.512327 0.119216
H103  H     H_    0.986213 0.541099 0.283611 0.162004
H104  H     H_    0.047049 0.525874 0.181330 0.139485
H105  H     H_    0.857587 0.083099 0.754957 0.136006
H106  H     H_    0.801611 0.101662 0.859180 0.128214
H107  H     H_    0.874192 0.985574 0.820133 0.170480
H108  H     H_    0.902304 0.046690 0.868134 0.191538
H109  H     H_    0.808440 0.057085 0.004524 0.151711
H110  H     H_    0.837399 0.968993 0.985667 0.172276
H111  H     H_    0.785660 0.988750 0.953259 0.162892
H112  H     H_    0.873340 0.723485 0.737019 0.148016
H113  H     H_    0.962049 0.745708 0.486319 0.101439
H114  H     H_    0.846310 0.695064 0.850555 0.114689
H115  H     H_    0.965782 0.729081 0.722264 0.169269
H116  H     H_    0.940592 0.704482 0.838296 0.153695
H117  H     H_    0.908032 0.587798 0.809597 0.139542
H118  H     H_    0.979045 0.599375 0.736553 0.157353
H119  H     H_    0.931155 0.611776 0.693452 0.164504
H120  H     H_    0.161017 0.106002 0.236875 0.155691
H121  H     H_    0.204835 0.126804 0.123246 0.118767
H122  H     H_    0.107238 0.023544 0.198539 0.159926
H123  H     H_    0.139700 0.050374 0.082801 0.184214
H124  H     H_    0.968711 0.254925 0.463408 0.118459
H125  H     H_    0.226441 0.001409 0.060834 0.147125
H126  H     H_    0.174790 0.933718 0.107051 0.168840
H127  H     H_    0.198356 0.978634 0.178165 0.131751
H128  H     H_    0.616256 0.127988 0.118956 0.125449
H129  H     H_    0.563856 0.171231 0.100875 0.115127
H130  H     H_    0.555921 0.122776 0.281511 0.185549
H131  H     H_    0.505245 0.173470 0.268677 0.176748
H132  H     H_    0.492698 0.076769 0.179347 0.149460
H133  H     H_    0.486201 0.040819 0.283265 0.161980
H134  H     H_    0.547089 0.025687 0.181033 0.139480
H135  H     H_    0.031138 0.744885 0.537476 0.094770
H136  H     H_    0.357625 0.583217 0.754897 0.136019
H137  H     H_    0.301662 0.601756 0.859145 0.128197
H138  H     H_    0.374254 0.485672 0.820011 0.170349
H139  H     H_    0.402379 0.546773 0.868008 0.191519
H140  H     H_    0.308528 0.557136 0.004438 0.151707
H141  H     H_    0.337498 0.469048 0.985531 0.172324
H142  H     H_    0.285740 0.488814 0.953169 0.162919
H143  H     H_    0.373240 0.223507 0.737107 0.147988
H144  H     H_    0.346395 0.195055 0.850609 0.114646
H145  H     H_    0.465774 0.229244 0.721943 0.169257
H146  H     H_    0.272384 0.999897 0.460586 0.156296
H147  H     H_    0.440763 0.204617 0.837933 0.153730
H148  H     H_    0.408190 0.087885 0.809328 0.139565
H149  H     H_    0.479174 0.099548 0.736139 0.157362
H150  H     H_    0.431191 0.111894 0.693221 0.164457
H151  H     H_    0.660926 0.605968 0.236983 0.155684
H152  H     H_    0.704862 0.626962 0.123468 0.118861
H153  H     H_    0.607390 0.523490 0.198122 0.159842
H154  H     H_    0.639995 0.550488 0.082447 0.184151
H155  H     H_    0.726731 0.501706 0.060839 0.147199
H156  H     H_    0.675157 0.433879 0.106542 0.168249
O1    O     O_R   0.255040 0.869590 0.478480 -0.510383
O2    O     O_R   0.817950 0.203450 0.375560 -0.509054
O3    O     O_R   0.817950 0.796550 0.375560 -0.510747
O4    O     O_R   0.182050 0.203450 0.624440 -0.506356
O5    O     O_R   0.682050 0.296550 0.624440 -0.513045
O6    O     O_R   0.317950 0.703450 0.375560 -0.509035
O7    O     O_R   0.317950 0.296550 0.375560 -0.510759
O8    O     O_R   0.682050 0.703450 0.624440 -0.506346
O9    O     O_R   0.250530 0.763330 0.367210 -0.525398
O10   O     O_R   0.749470 0.236670 0.632790 -0.509513
O11   O     O_R   0.749470 0.763330 0.632790 -0.523169
O12   O     O_R   0.744960 0.130410 0.521520 -0.504968
O13   O     O_R   0.250530 0.236670 0.367210 -0.513259
O14   O     O_R   0.750530 0.263330 0.367210 -0.525289
O15   O     O_R   0.249470 0.736670 0.632790 -0.509502
O16   O     O_R   0.249470 0.263330 0.632790 -0.523160
O17   O     O_R   0.750530 0.736670 0.367210 -0.513257
O18   O     O_R   0.177260 0.690030 0.513710 -0.529300
O19   O     O_R   0.822740 0.309970 0.486290 -0.522271
O20   O     O_R   0.822740 0.690030 0.486290 -0.518185
O21   O     O_R   0.177260 0.309970 0.513710 -0.527831
O22   O     O_R   0.677260 0.190030 0.513710 -0.529396
O23   O     O_R   0.744960 0.869590 0.521520 -0.520674
O24   O     O_R   0.322740 0.809970 0.486290 -0.522232
O25   O     O_R   0.322740 0.190030 0.486290 -0.518153
O26   O     O_R   0.677260 0.809970 0.513710 -0.527839
O27   O     O_R   0.051640 0.926880 0.885090 -0.510462
O28   O     O_R   0.948360 0.073120 0.114910 -0.505324
O29   O     O_R   0.948360 0.926880 0.114910 -0.505997
O30   O     O_R   0.051640 0.073120 0.885090 -0.506097
O31   O     O_R   0.551640 0.426880 0.885090 -0.510463
O32   O     O_R   0.448360 0.573120 0.114910 -0.505329
O33   O     O_R   0.448360 0.426880 0.114910 -0.506004
O34   O     O_R   0.255040 0.130410 0.478480 -0.500736
O35   O     O_R   0.551640 0.573120 0.885090 -0.506102
O36   O     O_R   0.940620 0.926560 0.986760 -0.520497
O37   O     O_R   0.059380 0.073440 0.013240 -0.526226
O38   O     O_R   0.059380 0.926560 0.013240 -0.507687
O39   O     O_R   0.940620 0.073440 0.986760 -0.527150
O40   O     O_R   0.440620 0.426560 0.986760 -0.520507
O41   O     O_R   0.559380 0.573440 0.013240 -0.526180
O42   O     O_R   0.559380 0.426560 0.013240 -0.507691
O43   O     O_R   0.440620 0.573440 0.986760 -0.527149
O44   O     O_3   0.098189 0.732474 0.166729 -0.511579
O45   O     O_R   0.755040 0.369590 0.478480 -0.510148
O46   O     O_3   0.872691 0.160827 0.826028 -0.522738
O47   O     O_3   0.876032 0.802226 0.820410 -0.548137
O48   O     O_3   0.125693 0.169459 0.179101 -0.526512
O49   O     O_3   0.598084 0.232314 0.166692 -0.511551
O50   O     O_3   0.372745 0.660923 0.825978 -0.522730
O51   O     O_3   0.376022 0.302262 0.820411 -0.548135
O52   O     O_3   0.625687 0.669464 0.179106 -0.526548
O53   O     O_3   0.357848 0.778536 0.772583 -0.521309
O54   O     O_3   0.645901 0.283493 0.241945 -0.514651
O55   O     O_3   0.634142 0.790208 0.247686 -0.524892
O56   O     O_R   0.244960 0.630410 0.521520 -0.504953
O57   O     O_3   0.307879 0.386994 0.806227 -0.548181
O58   O     O_3   0.857807 0.278464 0.772683 -0.521317
O59   O     O_3   0.146055 0.784041 0.241718 -0.514765
O60   O     O_3   0.134141 0.290181 0.247692 -0.524876
O61   O     O_3   0.807900 0.886965 0.806205 -0.548211
O62   O     O_R   0.244960 0.369590 0.521520 -0.520679
O63   O     O_R   0.755040 0.630410 0.478480 -0.500726
O64   O     O_R   0.182050 0.796550 0.624440 -0.513084

loop_
_geom_bond_atom_site_label_1
_geom_bond_atom_site_label_2
_ccdc_geom_bond_type
C78   C226  A    
C133  H16   S    
C20   C170  A    
C31   C161  A    
C126  C127  S    
C16   O48   S    
C44   O41   A    
Cu9   O56   S    
C10   C184  A    
C148  H50   S    
C4    C177  A    
C215  O3    A    
C107  H112  S    
C211  C220  A    
C47   O32   A    
C171  O7    A    
C50   C59   A    
C135  C173  A    
C52   C61   A    
C110  O48   S    
Cu5   O10   S    
C195  H71   S    
C195  C203  A    
C54   C63   A    
C196  H72   S    
C156  C235  A    
C58   C60   A    
C171  O13   A    
C99   H24   S    
C208  C217  A    
C228  O34   A    
C108  C109  S    
C21   H88   S    
C61   C63   A    
C110  C111  S    
C62   C64   A    
C227  O24   A    
C91   C96   A    
C143  H41   S    
C151  H58   S    
C146  C176  A    
Cu7   O13   S    
C3    C158  A    
C4    C12   A    
C24   C85   A    
C88   C97   A    
C206  C214  A    
Cu8   O22   S    
C143  H40   S    
C49   C69   A    
C109  H118  S    
C182  O14   A    
C216  C233  A    
C197  C206  A    
C102  H99   S    
C104  C105  S    
C107  H114  S    
C190  C199  A    
C111  H122  S    
C144  H43   S    
C5    H81   S    
C38   C167  A    
C11   C20   A    
C114  H125  S    
C148  O60   S    
Cu7   O34   S    
C86   C90   A    
C71   C73   A    
C104  O46   S    
C23   H90   S    
C179  C188  A    
C122  H147  S    
C82   C91   A    
C51   C66   A    
C52   C72   A    
C181  C190  A    
C155  C169  A    
Cu2   O41   S    
Cu3   O39   S    
C54   C70   A    
C150  H55   S    
C126  H154  S    
Cu1   Cu9   S    
C164  C173  A    
C34   O58   S    
C163  C172  A    
C115  O49   S    
C116  H130  S    
C132  H15   S    
C16   C175  A    
C229  O23   A    
C149  H53   S    
Cu5   O12   S    
C158  C167  A    
C149  H52   S    
Cu12  O40   S    
C79   C85   A    
C12   C174  A    
C21   C30   A    
C134  H19   S    
C66   C77   A    
C31   O54   S    
C6    C179  A    
C57   C78   A    
C139  H29   S    
C202  H78   S    
C144  C145  S    
C200  H76   S    
C25   H92   S    
C139  C140  S    
C133  H17   S    
C19   C172  A    
C222  O45   A    
C200  C209  A    
C193  C203  S    
C56   C59   A    
C15   O47   S    
C41   O27   A    
C80   C88   A    
C8    C17   A    
C118  H136  S    
Cu3   O27   S    
C207  C216  A    
C39   O29   A    
C6    H82   S    
C84   C93   A    
C48   C67   A    
C141  H34   S    
C86   C95   A    
C131  H12   S    
C22   H89   S    
C24   C77   A    
C27   C218  A    
C138  H28   S    
C221  O56   A    
C193  O64   A    
C103  H103  S    
C55   C71   A    
C2    C75   A    
C153  H63   S    
C36   O59   S    
C42   C187  S    
Cu3   O30   S    
C91   C228  S    
Cu1   O64   S    
C140  H32   S    
C67   C77   A    
C202  C211  A    
C198  H74   S    
C160  O11   A    
C128  C129  S    
C137  H23   S    
C82   C226  A    
C110  H121  S    
C229  O26   A    
C156  C165  A    
C33   C163  A    
C218  C235  A    
C14   C173  A    
C34   C164  A    
C180  C189  A    
C105  H107  S    
C124  C174  A    
C147  H48   S    
C156  C168  A    
C115  C116  S    
C69   C76   A    
C85   C94   A    
C30   O53   S    
C46   C82   A    
C181  C234  A    
Cu12  O31   S    
C3    C220  A    
C32   C162  A    
C29   C38   A    
Cu1   O1    S    
C107  C108  S    
C79   H66   S    
C213  C231  A    
Cu2   O32   S    
C161  C169  A    
C1    O9    A    
Cu10  O7    S    
C87   C96   A    
C94   C224  S    
C135  C161  A    
Cu8   O5    S    
C72   C75   A    
C3    C185  A    
C123  H150  S    
C130  H10   S    
C50   C90   A    
C128  O53   S    
C121  H144  S    
C47   O43   A    
C30   C159  A    
C154  C163  A    
C204  O16   A    
C70   C72   A    
C40   C189  S    
C1    C209  S    
C147  H49   S    
C191  C200  A    
C177  C230  A    
C158  C170  A    
C111  H123  S    
C144  H42   S    
C165  C174  A    
C95   C223  S    
C210  C219  A    
C127  H155  S    
C222  O19   A    
C141  H36   S    
C70   C74   A    
C145  H44   S    
C199  H75   S    
C151  C152  S    
Cu7   Cu10  S    
C107  O47   S    
C103  H101  S    
C215  O17   A    
C39   C188  S    
Cu3   O36   S    
C43   C192  S    
Cu12  O35   S    
C125  H152  S    
C119  H138  S    
C132  H14   S    
C129  C130  S    
C56   H135  S    
C228  O25   A    
C160  C211  S    
C141  O58   S    
C83   C101  A    
C198  C207  A    
C136  C137  S    
C2    C81   A    
C17   O49   S    
Cu9   O6    S    
C117  H134  S    
C21   C212  A    
C138  H27   S    
Cu7   O21   S    
Cu5   Cu8   S    
C223  O20   A    
C74   C226  A    
Cu9   O15   S    
C193  O15   A    
C28   C37   A    
Cu8   O14   S    
C199  C208  A    
C138  O57   S    
C35   H35   S    
C68   H65   S    
C102  C103  S    
C50   C65   A    
C51   C79   A    
C5    C178  A    
C142  H37   S    
C9    C18   A    
C45   O31   A    
C152  C153  S    
C22   C213  A    
Cu2   Cu12  S    
C7    H83   S    
C51   C60   A    
C46   H46   S    
C123  H148  S    
Cu10  O25   S    
C25   C33   A    
C206  C215  S    
C8    C181  A    
C27   H94   S    
C143  H39   S    
C113  H70   S    
C109  H117  S    
C187  C196  A    
C73   C74   A    
Cu3   Cu4   S    
C106  H109  S    
C102  H100  S    
C185  C194  A    
C214  C232  A    
C108  H115  S    
C62   H80   S    
C9    H85   S    
C146  C162  A    
C166  C175  A    
C114  H126  S    
C65   C76   A    
C11   H87   S    
C15   C176  A    
C40   O30   A    
C43   O40   A    
C120  H141  S    
C112  O5    A    
C49   C101  A    
Cu6   O23   S    
C224  O62   A    
C194  C202  A    
C137  H26   S    
Cu4   O37   S    
C184  C236  A    
C151  O61   S    
Cu4   O28   S    
Cu2   O42   S    
C29   C220  A    
C225  O22   A    
C129  H7    S    
C65   C67   A    
C152  H60   S    
C150  H56   S    
C192  C201  A    
C184  C192  A    
C136  H21   S    
C93   C99   A    
C81   C89   A    
C205  C213  A    
C118  H137  S    
C42   O28   A    
C26   C217  A    
Cu8   O45   S    
C145  C147  S    
C224  O21   A    
C38   O61   S    
C134  H20   S    
C1    O6    A    
C115  H128  S    
C171  C210  S    
C53   C57   A    
C155  C234  A    
Cu5   O2    S    
C42   O39   A    
C9    C183  A    
C101  H68   S    
C162  C170  A    
C204  C207  S    
C10   C19   A    
C46   C54   A    
C10   H86   S    
C100  H97   S    
Cu7   O4    S    
Cu9   O24   S    
C33   O57   S    
C5    C14   A    
C37   C166  A    
C112  O10   A    
C131  H11   S    
C178  C187  A    
Cu6   O3    S    
C7    C16   A    
C180  C233  A    
C28   C219  A    
C87   C227  S    
C109  H119  S    
C125  C126  S    
Cu1   O18   S    
C131  C132  S    
C8    H84   S    
C153  H62   S    
C131  O54   S    
C121  O51   S    
C29   H96   S    
C152  H61   S    
C63   H69   S    
C151  H59   S    
C39   O36   A    
C201  H77   S    
C217  C234  A    
C119  H139  S    
C119  C120  S    
C157  C236  A    
C97   H2    S    
C27   C36   A    
C105  C106  S    
C13   C83   A    
Cu6   Cu11  S    
Cu1   O9    S    
C23   C32   A    
C182  C205  S    
C14   O46   S    
C178  C231  A    
C149  C150  S    
C58   H124  S    
C227  O1    A    
C100  O44   S    
C147  H47   S    
C188  C197  A    
C154  C233  A    
C150  H54   S    
C126  H153  S    
C116  C117  S    
C111  C114  S    
Cu11  O26   S    
C47   C191  S    
C12   O44   S    
C138  C139  S    
C177  C186  A    
C64   H1    S    
C148  H51   S    
C182  O2    A    
C142  C143  S    
C179  C232  A    
C43   O33   A    
Cu2   O33   S    
C48   C113  A    
C23   C214  A    
C189  C198  A    
C68   C80   A    
C225  O12   A    
C104  H106  S    
C84   C113  A    
Cu11  O17   S    
C139  H30   S    
C140  H33   S    
Cu10  O16   S    
C123  H149  S    
C28   H95   S    
C197  H73   S    
C35   C81   A    
C95   C98   A    
C92   C98   A    
C133  H18   S    
C146  C232  A    
C121  H143  S    
C83   C92   A    
C44   O35   A    
C128  H4    S    
C154  C175  A    
C209  C218  A    
C157  C172  A    
C45   O42   A    
C37   O60   S    
C17   C169  A    
C66   C69   A    
C118  O50   S    
C124  C159  A    
C159  C168  A    
C7    C180  A    
Cu12  O43   S    
C196  C205  A    
C118  C119  S    
C36   C165  A    
C6    C15   A    
C26   C34   A    
C122  H145  S    
C132  C133  S    
C13   C86   A    
C41   C186  S    
C103  H104  S    
C19   O51   S    
C52   C68   A    
C153  H64   S    
C32   O55   S    
C120  H140  S    
C140  H31   S    
C125  H151  S    
C26   H93   S    
C221  O18   A    
C120  H142  S    
C110  H120  S    
C41   O38   A    
C22   C31   A    
C35   C55   A    
C186  C195  A    
C148  C149  S    
C112  C208  S    
C105  H108  S    
C18   C168  A    
C134  C136  S    
C117  H133  S    
C4    H79   S    
C49   C58   A    
C89   C97   A    
C60   H102  S    
Cu5   O19   S    
Cu6   O20   S    
C115  H129  S    
C116  H131  S    
C212  C230  A    
C53   C62   A    
C45   C190  S    
Cu11  O63   S    
C88   C225  S    
C13   C76   A    
C223  O63   A    
C55   C64   A    
C100  C102  S    
C128  H5    S    
C121  C122  S    
C100  H98   S    
C134  O55   S    
C57   H57   S    
C59   H113  S    
C142  H38   S    
C117  H132  S    
C96   H146  S    
C203  C212  A    
C78   C87   A    
C201  C210  A    
C130  H9    S    
C48   C56   A    
C20   O52   S    
C11   C185  A    
C219  C236  A    
C25   C216  A    
C53   C73   A    
C106  H110  S    
C125  O52   S    
Cu4   O29   S    
C183  C191  A    
C157  C166  A    
C18   O50   S    
C93   C221  S    
C108  H116  S    
Cu11  O8    S    
C40   O37   A    
C155  C164  A    
C44   C194  S    
C114  H127  S    
C127  H156  S    
C144  O59   S    
C92   C222  S    
C24   C84   A    
C145  H45   S    
C141  C142  S    
C71   C75   A    
C98   H13   S    
C94   C99   A    
C137  H25   S    
Cu10  O62   S    
C127  H3    S    
Cu4   O38   S    
Cu6   O11   S    
C2    C80   A    
C90   H67   S    
C204  O4    A    
C104  H105  S    
C129  H6    S    
C61   H91   S    
C183  C235  A    
C106  H111  S    
C136  H22   S    
C89   C229  S    
C122  C123  S    
C160  O8    A    
C124  C230  A    
C167  C176  A    
C135  C231  A    
C130  H8    S    
