data_mof_unit_67530.cif
_audit_creation_date              2013-03-05T15:41:21-0500
_audit_creation_method            fapswitch 2.2
_symmetry_space_group_name_H-M    P1
_symmetry_Int_Tables_number       1
_space_group_crystal_system       triclinic
_cell_length_a                    10.816041
_cell_length_b                    8.967746
_cell_length_c                    7.706424
_cell_angle_alpha                 103.690677
_cell_angle_beta                  95.44493
_cell_angle_gamma                 94.828932
_cell_volume                      718.565905956

loop_
_atom_site_label
_atom_site_type_symbol
_atom_site_description
_atom_site_fract_x
_atom_site_fract_y
_atom_site_fract_z
_atom_type_partial_charge
O1    O     O_R   0.509190 0.286130 0.619780 -0.536690
O2    O     O_R   0.490810 0.713870 0.380220 -0.512599
O3    O     O_R   0.485310 0.256770 0.308360 -0.638918
O4    O     O_R   0.514690 0.743230 0.691640 -0.591069
C1    C     C_R   0.490878 0.200274 0.452761 0.767601
C2    C     C_R   0.501476 0.798857 0.546144 0.787626
O5    O     O_R   0.328790 0.514640 0.655680 -0.538527
O6    O     O_R   0.671210 0.485360 0.344320 -0.591253
O7    O     O_R   0.304910 0.485280 0.344260 -0.628457
O8    O     O_R   0.695090 0.514720 0.655740 -0.637626
C3    C     C_R   0.258865 0.496501 0.500205 0.807045
C4    C     C_R   0.739275 0.501017 0.501278 0.777281
Cu1   Cu    Cu3+1 0.514140 0.517380 0.684380 0.966417
Cu2   Cu    Cu3+1 0.485860 0.482620 0.315620 0.946015
N1    N     N_2   0.464560 0.456420 0.038510 -0.248226
N2    N     N_2   0.535440 0.543580 0.961490 -0.209830
C5    C     C_3   0.040420 0.428103 0.626204 0.596040
C6    C     C_3   0.954330 0.574075 0.390503 0.577571
C7    C     C_3   0.940805 0.353777 0.467245 -0.300782
C8    C     C_3   0.054865 0.645573 0.550933 -0.356908
H1    H     H_    0.893845 0.234909 0.442053 0.155009
H2    H     H_    0.108865 0.761571 0.591981 0.154199
C9    C     C_3   0.875576 0.502092 0.508064 -0.063374
C10   C     C_3   0.119484 0.495764 0.503496 -0.098773
C11   C     C_3   0.972414 0.575141 0.672167 -0.322738
C12   C     C_3   0.018591 0.423843 0.342225 -0.303825
H3    H     H_    0.947588 0.638686 0.804121 0.160928
H4    H     H_    0.030533 0.349480 0.211540 0.146876
C13   C     C_2   0.476424 0.030310 0.425958 0.196139
C14   C     C_2   0.500232 0.966419 0.570114 0.184026
O9    O     O_3   0.094636 0.346878 0.742887 -0.606564
C15   C     C_3   0.101708 0.433898 0.921605 0.059272
H5    H     H_    0.141917 0.362898 0.006336 0.156124
H6    H     H_    0.006304 0.453442 0.958973 0.150338
C16   C     C_3   0.189322 0.586449 0.963385 -0.319602
H7    H     H_    0.286443 0.567589 0.962919 0.261987
H8    H     H_    0.175432 0.656857 0.865838 0.204922
C17   C     C_3   0.175452 0.684016 0.144545 -0.933150
H9    H     H_    0.105712 0.761569 0.125165 0.261184
H10   H     H_    0.265506 0.743657 0.215235 0.305402
H11   H     H_    0.142626 0.614809 0.230136 0.281489
O10   O     O_3   0.899450 0.649279 0.266351 -0.643149
C18   C     C_3   0.927441 0.812021 0.322825 0.071901
H12   H     H_    0.906854 0.855944 0.201988 0.147088
H13   H     H_    0.028263 0.847584 0.363892 0.135099
C19   C     C_3   0.850308 0.891396 0.469504 -0.318904
H14   H     H_    0.789806 0.967368 0.414034 0.202622
H15   H     H_    0.787280 0.805975 0.511507 0.222960
C20   C     C_3   0.934505 0.990783 0.634735 -0.927598
H16   H     H_    0.022589 0.041984 0.598692 0.285194
H17   H     H_    0.956497 0.920590 0.731740 0.265510
H18   H     H_    0.887327 0.088839 0.701978 0.257343
C21   C     C_2   0.380339 0.325349 0.947751 0.632079
H19   H     H_    0.342715 0.257055 0.029441 0.032093
O11   O     O_2   0.337689 0.296919 0.791373 -0.506737
C22   C     C_2   0.647364 0.622347 0.059014 0.725724
H20   H     H_    0.733226 0.572600 0.032244 0.042898
O12   O     O_2   0.649457 0.751743 0.154781 -0.571714
O13   O     O_3   0.449064 0.931258 0.253402 -0.603564
C23   C     C_3   0.369557 0.979837 0.124148 0.116736
H21   H     H_    0.341105 0.876259 0.011728 0.192178
H22   H     H_    0.424156 0.054910 0.058554 0.180801
C24   C     C_3   0.249093 0.046079 0.190968 -0.414413
H23   H     H_    0.214507 0.988558 0.291957 0.214866
H24   H     H_    0.266819 0.169664 0.261531 0.225893
C25   C     C_3   0.145393 0.031049 0.035471 -0.953236
H25   H     H_    0.169153 0.106195 0.946330 0.279678
H26   H     H_    0.057731 0.062948 0.090616 0.256177
H27   H     H_    0.128417 0.912725 0.948130 0.255547
O14   O     O_3   0.508080 0.052852 0.746501 -0.627490
C26   C     C_3   0.632520 0.117305 0.811508 0.068949
H28   H     H_    0.627879 0.237168 0.890456 0.188986
H29   H     H_    0.691225 0.128473 0.703323 0.101495
C27   C     C_3   0.693981 0.028705 0.936303 -0.318290
H30   H     H_    0.623680 0.984843 0.012918 0.283444
H31   H     H_    0.734442 0.928529 0.856333 0.213916
C28   C     C_3   0.795688 0.134627 0.069686 -0.957878
H32   H     H_    0.865316 0.187420 0.998968 0.253264
H33   H     H_    0.843583 0.068573 0.153895 0.247759
H34   H     H_    0.753557 0.227825 0.158895 0.278193

loop_
_geom_bond_atom_site_label_1
_geom_bond_atom_site_label_2
_geom_bond_distance
_ccdc_geom_bond_type
C25   H26   1.107256 S    
C24   H24   1.104497 S    
C16   H7    1.078164 S    
C6    C12   1.551139 S    
C18   H12   1.104965 S    
C21   H19   1.061216 S    
O5    C3    1.322535 A    
C19   C20   1.533350 S    
C27   H31   1.110700 S    
C23   C24   1.558379 S    
O1    C1    1.321194 A    
N1    C21   1.417834 S    
C7    H1    1.106415 S    
C10   C12   1.547950 S    
C6    O10   1.409833 S    
C17   H9    1.091365 S    
C25   H27   1.103789 S    
C8    C11   1.552336 S    
N1    N2    1.325164 D    
C3    C10   1.509653 S    
C22   H20   1.080094 S    
C23   H22   1.099237 S    
O4    Cu1   2.012347 S    
C7    C12   1.543461 S    
C13   O13   1.402452 S    
C20   H17   1.107197 S    
C27   C28   1.521943 S    
O14   C26   1.414430 S    
C28   H33   1.100098 S    
C25   H25   1.102523 S    
C24   C25   1.534676 S    
O13   C23   1.423871 S    
Cu1   Cu2   2.768814 S    
O2    C2    1.313423 A    
C14   O14   1.387086 S    
C1    C13   1.481555 S    
C21   O11   1.208045 D    
C19   H15   1.107994 S    
C5    C10   1.526900 S    
C27   H30   1.107375 S    
C6    C9    1.514518 S    
C15   C16   1.545491 S    
C8    C10   1.549540 S    
C16   C17   1.490227 S    
C17   H11   1.071189 S    
O4    C2    1.331485 A    
C26   H29   1.112457 S    
C28   H32   1.108292 S    
C23   H21   1.108338 S    
C15   H6    1.114177 S    
C7    C9    1.538760 S    
O7    Cu2   1.991762 S    
N2    C22   1.400482 S    
C13   C14   1.378623 D    
C18   H13   1.104189 S    
O9    C15   1.404607 S    
C4    C9    1.469335 S    
O6    C4    1.325896 A    
C20   H18   1.100997 S    
O7    C3    1.329359 A    
O3    Cu2   2.012347 S    
O8    C4    1.307304 A    
C2    C14   1.471314 S    
C8    H2    1.109133 S    
C5    O9    1.401750 S    
O1    Cu1   2.009692 S    
O10   C18   1.418083 S    
C28   H34   1.109235 S    
C19   H14   1.111292 S    
O6    Cu2   1.993376 S    
C16   H8    1.097985 S    
O3    C1    1.325880 A    
O8    Cu1   1.991762 S    
C26   C27   1.525589 S    
C11   H3    1.110940 S    
C12   H4    1.094056 S    
C5    C11   1.548180 S    
C15   H5    1.100203 S    
C26   H28   1.110589 S    
C17   H10   1.097836 S    
C5    C7    1.532280 S    
C22   O12   1.216024 D    
C6    C8    1.540884 S    
C9    C11   1.538325 S    
O2    Cu2   2.009694 S    
C18   C19   1.542242 S    
C24   H23   1.106574 S    
O5    Cu1   1.993374 S    
C20   H16   1.110219 S    
Cu1   N2    2.080568 S    
Cu2   N1    2.080568 S    
