data_mof_unit_23666.cif
_audit_creation_date              2012-12-10T17:18:17-0500
_audit_creation_method            fapswitch 2.2
_symmetry_space_group_name_H-M    P1
_symmetry_Int_Tables_number       1
_space_group_crystal_system       triclinic
_cell_length_a                    10.197466
_cell_length_b                    10.76818
_cell_length_c                    14.887826
_cell_angle_alpha                 90.490394
_cell_angle_beta                  81.530029
_cell_angle_gamma                 95.260338
_cell_volume                      1610.14378787

loop_
_atom_site_label
_atom_site_type_symbol
_atom_type_description
_atom_site_fract_x
_atom_site_fract_y
_atom_site_fract_z
_atom_type_partial_charge
C1    C     C_R   0.555831 0.732617 0.497152 0.933697
C2    C     C_R   0.444267 0.267448 0.508991 0.935509
C3    C     C_R   0.576931 0.723924 0.946561 -0.061214
C4    C     C_R   0.423075 0.276072 0.053358 -0.061249
C5    C     C_2   0.587420 0.864963 0.505601 -0.353208
C6    C     C_2   0.413051 0.135404 0.524045 -0.357232
C7    C     C_2   0.488770 0.934046 0.536759 -0.140709
C8    C     C_2   0.512220 0.066900 0.534273 -0.142567
C9    C     C_2   0.927348 0.511047 0.507040 -0.042828
C10   C     C_2   0.072636 0.488921 0.492992 -0.040989
C11   C     C_R   0.500564 0.500046 0.672573 0.873816
C12   C     C_R   0.499437 0.499958 0.327416 0.883166
C13   C     C_R   0.459928 0.390375 0.190781 -0.220743
C14   C     C_R   0.539979 0.609648 0.809166 -0.221866
C15   C     C_R   0.498219 0.500267 0.232409 -0.048070
C16   C     C_R   0.501790 0.499732 0.767546 -0.044169
C17   C     C_R   0.536550 0.610198 0.184457 -0.227280
C18   C     C_R   0.463600 0.389765 0.815464 -0.228625
C19   C     C_R   0.537510 0.612526 0.090842 0.068459
C20   C     C_R   0.462611 0.387446 0.909077 0.068266
C21   C     C_R   0.499451 0.500096 0.046872 0.029905
C22   C     C_R   0.500603 0.499890 0.953057 0.029860
C23   C     C_R   0.460318 0.387853 0.097194 0.066216
C24   C     C_R   0.539667 0.612149 0.902739 0.065948
C25   C     C_R   0.575777 0.724129 0.040811 -0.060233
C26   C     C_R   0.424361 0.275840 0.959094 -0.060231
H1    H     H_    0.431019 0.307422 0.232348 0.147462
H2    H     H_    0.568780 0.692619 0.767596 0.147486
H3    H     H_    0.565367 0.693133 0.221266 0.141883
H4    H     H_    0.434882 0.306814 0.778630 0.142036
H5    H     H_    0.614177 0.107736 0.532830 0.192310
H6    H     H_    0.386999 0.893498 0.556821 0.190988
H7    H     H_    0.311422 0.094025 0.525263 0.159908
H8    H     H_    0.688839 0.906060 0.485363 0.159116
H9    H     H_    0.123741 0.617499 0.582781 0.163938
H10   H     H_    0.876275 0.382535 0.417196 0.165889
N1    N     N_2   0.842700 0.448880 0.462930 -0.217466
N2    N     N_2   0.157300 0.551120 0.537070 -0.216804
O1    O     O_R   0.431060 0.692470 0.507460 -0.615212
O2    O     O_R   0.568940 0.307530 0.492540 -0.615244
O3    O     O_R   0.651120 0.659650 0.483670 -0.607268
O4    O     O_R   0.348880 0.340350 0.516330 -0.607537
O5    O     O_R   0.389960 0.516440 0.644050 -0.610494
O6    O     O_R   0.610040 0.483560 0.355950 -0.606335
O7    O     O_R   0.610030 0.483620 0.620260 -0.608242
O8    O     O_R   0.389970 0.516380 0.379740 -0.604013
Zn1   Zn    Zn3+2 0.353060 0.521920 0.515880 0.962676
Zn2   Zn    Zn3+2 0.646940 0.478080 0.484120 0.962792
C27   C     C_1   0.613990 0.839530 0.085607 0.188849
N3    N     N_1   0.644451 0.931443 0.121182 -0.186789
C28   C     C_1   0.386295 0.160420 0.914257 0.189050
N4    N     N_1   0.355961 0.068509 0.878632 -0.187238
C29   C     C_1   0.616514 0.839052 0.895346 0.192431
N5    N     N_1   0.648078 0.930715 0.854628 -0.184691
C30   C     C_1   0.383388 0.160954 0.104558 0.192473
N6    N     N_1   0.351732 0.069285 0.145250 -0.184113
C31   C     C_1   0.120035 0.395872 0.428800 0.275994
N7    N     N_1   0.157088 0.321108 0.377224 -0.221536
C32   C     C_1   0.879937 0.604064 0.571260 0.275899
N8    N     N_1   0.842878 0.678803 0.622857 -0.221830

loop_
_geom_bond_atom_site_label_1
_geom_bond_atom_site_label_2
_ccdc_geom_bond_type
C1    O3    A    
C4    C26   A    
C30   N6    T    
C6    H7    S    
C11   O5    A    
C18   H4    S    
C14   C16   A    
C17   H3    S    
C11   C16   S    
C26   C28   S    
C12   C15   S    
C3    C25   A    
C10   N2    D    
C14   H2    S    
C5    H8    S    
C10   C31   S    
C9    N1    D    
C31   N7    T    
C32   N8    T    
C12   O6    A    
C21   C22   A    
N1    Zn2   S    
C3    C29   S    
N2    Zn1   S    
C2    C6    S    
C20   C26   A    
C2    O4    A    
C1    C5    S    
C12   O8    A    
H10   N1    S    
C19   C21   A    
O3    Zn2   S    
C20   C22   A    
C18   C20   A    
O4    Zn1   S    
C13   C15   A    
C4    C30   S    
C19   C25   A    
C22   C24   A    
C11   O7    A    
C1    O1    A    
C28   N4    T    
C2    O2    A    
C7    C8    S    
H9    N2    S    
C13   C23   A    
C16   C18   A    
C27   N3    T    
C9    C10   S    
O7    Zn2   S    
C14   C24   A    
C5    C7    D    
C4    C23   A    
O2    Zn2   S    
O8    Zn1   S    
C13   H1    S    
C6    C8    D    
C7    H6    S    
C17   C19   A    
C15   C17   A    
O1    Zn1   S    
O5    Zn1   S    
C21   C23   A    
C8    H5    S    
O6    Zn2   S    
C29   N5    T    
C3    C24   A    
C9    C32   S    
C25   C27   S    
