data_mof_unit_46941.cif
_audit_creation_date              2012-10-26T19:39:39-0400
_audit_creation_method            fapswitch 2.2
_symmetry_space_group_name_H-M    P1
_symmetry_Int_Tables_number       1
_space_group_crystal_system       triclinic
_cell_length_a                    10.92322
_cell_length_b                    8.699063
_cell_length_c                    7.439347
_cell_angle_alpha                 103.058152
_cell_angle_beta                  91.943599
_cell_angle_gamma                 92.846604
_cell_volume                      687.030221753

loop_
_atom_site_label
_atom_site_type_symbol
_atom_type_description
_atom_site_fract_x
_atom_site_fract_y
_atom_site_fract_z
_atom_type_partial_charge
C1    C     C_R   0.500618 0.200210 0.453978 0.572324
C2    C     C_2   0.495233 0.032734 0.434328 -0.127531
C3    C     C_2   0.543141 0.964921 0.564013 0.185124
C4    C     C_R   0.265530 0.502555 0.508141 0.540565
C5    C     C_R   0.512933 0.799589 0.545115 0.535000
C6    C     C_R   0.733494 0.501835 0.493173 0.609308
C7    C     C_2   0.927056 0.390053 0.407506 0.103069
C8    C     C_2   0.862966 0.515666 0.472551 0.057399
C9    C     C_2   0.060132 0.411581 0.396220 -0.159329
C10   C     C_2   0.134067 0.500107 0.533890 0.208898
Cu1   Cu    Cu3+1 0.513740 0.517380 0.684380 1.143444
Cu2   Cu    Cu3+1 0.486260 0.482620 0.315620 1.038797
H1    H     H_    0.904759 0.634133 0.496182 0.136543
H2    H     H_    0.390807 0.242662 0.939731 0.250618
H3    H     H_    0.099716 0.343408 0.273249 0.125623
H4    H     H_    0.438707 0.963937 0.317776 0.106096
H5    H     H_    0.598353 0.617397 0.049015 0.214677
H6    H     H_    0.884337 0.197567 0.202130 0.265505
H7    H     H_    0.908075 0.159242 0.412381 0.273534
H8    H     H_    0.156774 0.659981 0.041548 0.361934
H9    H     H_    0.722734 0.887711 0.889773 0.359611
H10   H     H_    0.292337 0.384464 0.983224 0.258023
N1    N     N_2   0.465540 0.456420 0.038510 -0.054437
N2    N     N_2   0.534460 0.543580 0.961490 -0.166854
N3    N     N_3   0.866995 0.235987 0.342013 -0.551889
N4    N     N_3   0.376668 0.357301 0.926192 -0.390428
O1    O     O_R   0.508930 0.286130 0.619780 -0.435927
O2    O     O_2   0.983609 0.489029 0.815237 -0.267915
O3    O     O_3   0.197310 0.625495 0.923144 -0.504387
O4    O     O_2   0.734980 0.180619 0.674779 -0.215849
O5    O     O_2   0.599818 0.128808 0.912446 -0.288894
O6    O     O_3   0.752098 0.917491 0.777050 -0.494935
O7    O     O_R   0.485720 0.256780 0.308360 -0.490242
O8    O     O_R   0.333540 0.514670 0.655670 -0.424258
O9    O     O_R   0.310330 0.485320 0.344250 -0.551188
O10   O     O_R   0.514280 0.743220 0.691640 -0.488421
O11   O     O_R   0.491070 0.713870 0.380220 -0.551516
O12   O     O_R   0.689670 0.514680 0.655750 -0.448666
O13   O     O_R   0.666460 0.485330 0.344330 -0.508619
O14   O     O_2   0.034868 0.750169 0.754794 -0.277320
S1    S     S_3+6 0.083098 0.592195 0.759294 0.005860
S2    S     S_3+6 0.658611 0.055350 0.736373 0.046652

loop_
_geom_bond_atom_site_label_1
_geom_bond_atom_site_label_2
_ccdc_geom_bond_type
Cu1   O12   S    
N1    N2    D    
C6    O12   A    
C3    S2    S    
C8    H1    S    
O5    S2    D    
C5    O11   A    
C2    H4    S    
C9    C10   D    
O2    S1    D    
C7    N3    S    
Cu1   O1    S    
Cu1   Cu2   S    
Cu2   O13   S    
C2    C3    D    
C9    H3    S    
C4    O9    A    
C1    O7    A    
C7    C8    D    
H2    N4    S    
Cu2   O9    S    
Cu2   N1    S    
H6    N3    S    
Cu1   O10   S    
H8    O3    S    
H7    N3    S    
H9    O6    S    
C4    O8    A    
H5    N2    S    
C4    C10   S    
C5    O10   A    
C3    C5    S    
Cu1   N2    S    
C7    C9    S    
C1    C2    S    
H10   N4    S    
N1    N4    S    
Cu2   O11   S    
C1    O1    A    
O6    S2    S    
C6    O13   A    
O14   S1    D    
C6    C8    S    
O3    S1    S    
Cu2   O7    S    
Cu1   O8    S    
O4    S2    D    
C10   S1    S    
