data_mof_unit_29690.cif
_audit_creation_date              2012-12-11T14:08:08-0500
_audit_creation_method            fapswitch 2.2
_symmetry_space_group_name_H-M    P1
_symmetry_Int_Tables_number       1
_space_group_crystal_system       triclinic
_cell_length_a                    10.908621
_cell_length_b                    10.957163
_cell_length_c                    18.64011
_cell_angle_alpha                 90.007454
_cell_angle_beta                  89.960754
_cell_angle_gamma                 59.827841
_cell_volume                      1926.15345883

loop_
_atom_site_label
_atom_site_type_symbol
_atom_type_description
_atom_site_fract_x
_atom_site_fract_y
_atom_site_fract_z
_atom_type_partial_charge
C1    C     C_R   0.233933 0.646566 0.608011 0.553942
C2    C     C_3   0.769790 0.497909 0.800319 -0.277492
C3    C     C_3   0.683838 0.659145 0.817789 0.058071
C4    C     C_3   0.642584 0.612854 0.684807 0.020360
C5    C     C_3   0.710272 0.708020 0.687609 -0.228374
C6    C     C_3   0.740014 0.471143 0.723489 -0.264361
C7    C     C_2   0.679313 0.147789 0.668887 -0.117637
C8    C     C_2   0.692979 0.160516 0.825755 -0.129791
C9    C     C_2   0.806770 0.107034 0.782082 -0.174729
C10   C     C_2   0.790718 0.137556 0.704650 -0.183130
C11   C     C_2   0.171042 0.667024 0.679164 -0.079816
C12   C     C_R   0.625510 0.584591 0.609332 0.561189
C13   C     C_2   0.183765 0.663493 0.836558 -0.158899
C14   C     C_2   0.153214 0.580558 0.795917 -0.186225
C15   C     C_2   0.186273 0.557143 0.718781 0.234743
C16   C     C_2   0.674707 0.688173 0.333829 -0.109190
C17   C     C_2   0.706089 0.709809 0.179706 -0.107280
C18   C     C_2   0.815693 0.649638 0.225292 -0.169936
C19   C     C_2   0.798647 0.617422 0.299357 -0.149953
C20   C     C_2   0.677829 0.124984 0.338143 -0.105398
C21   C     C_2   0.685656 0.080714 0.185928 -0.092579
C22   C     C_2   0.616619 0.040365 0.230145 -0.174469
C23   C     C_R   0.629530 0.225455 0.601435 0.540875
C24   C     C_2   0.596084 0.082586 0.305236 -0.150965
C25   C     C_2   0.189318 0.662057 0.326128 -0.126165
C26   C     C_2   0.186740 0.641252 0.172815 -0.053712
C27   C     C_2   0.251585 0.700896 0.205990 0.250630
C28   C     C_2   0.283360 0.668556 0.281835 -0.142691
C29   C     C_R   0.703736 0.101083 0.896965 0.554469
C30   C     C_R   0.717092 0.683470 0.891258 0.575631
C31   C     C_R   0.117019 0.706983 0.906707 0.566294
C32   C     C_R   0.702681 0.041637 0.111712 0.542978
C33   C     C_R   0.733948 0.718481 0.104841 0.556146
C34   C     C_R   0.223087 0.649274 0.400751 0.549621
C35   C     C_R   0.100956 0.704467 0.110259 0.559745
C36   C     C_R   0.645823 0.627728 0.396316 0.559832
C37   C     C_R   0.621899 0.220783 0.398324 0.556580
C38   C     C_3   0.523155 0.708298 0.805252 0.163295
C39   C     C_3   0.497798 0.686406 0.725163 -0.211087
C40   C     C_3   0.736806 0.732988 0.765475 -0.239446
Cr1   Cr    Cr6+3 0.393010 0.398050 0.501480 1.052624
Cr2   Cr    Cr6+3 0.398820 0.707980 0.501630 1.005714
Cr3   Cr    Cr6+3 0.708140 0.393940 0.496850 1.015182
Cr4   Cr    Cr6+3 0.937950 0.938450 0.008940 1.049703
Cr5   Cr    Cr6+3 0.626180 0.937030 0.994750 1.041722
Cr6   Cr    Cr6+3 0.937790 0.625760 0.001410 1.009054
H1    H     H_    0.842875 0.408068 0.694982 0.158094
H2    H     H_    0.852614 0.689333 0.772973 0.120291
H3    H     H_    0.812879 0.657347 0.657999 0.158945
H4    H     H_    0.912719 0.037503 0.802763 0.159001
H5    H     H_    0.865461 0.161129 0.678571 0.147355
H6    H     H_    0.587766 0.231069 0.804800 0.092355
H7    H     H_    0.610416 0.115948 0.694806 0.098629
H8    H     H_    0.096603 0.531663 0.818519 0.152151
H9    H     H_    0.239605 0.713695 0.814608 0.122634
H10   H     H_    0.504781 0.631596 0.835824 0.127947
H11   H     H_    0.130843 0.770563 0.703353 0.057518
H12   H     H_    0.923212 0.607953 0.205631 0.134988
H13   H     H_    0.887570 0.524829 0.323275 0.154339
H14   H     H_    0.597510 0.748152 0.196368 0.121082
H15   H     H_    0.588627 0.786285 0.312754 0.085779
H16   H     H_    0.561958 0.988105 0.209428 0.124928
H17   H     H_    0.500246 0.095795 0.330363 0.153328
H18   H     H_    0.734304 0.140546 0.204159 0.118656
H19   H     H_    0.779250 0.102894 0.316386 0.097570
H20   H     H_    0.449755 0.617780 0.722496 0.070223
H21   H     H_    0.379473 0.662380 0.302672 0.147636
H22   H     H_    0.178669 0.556028 0.198115 0.048807
H23   H     H_    0.091084 0.669591 0.308070 0.070961
H24   H     H_    0.420581 0.785990 0.698272 0.153608
H25   H     H_    0.687722 0.847566 0.776660 0.119710
H26   H     H_    0.639975 0.811119 0.661144 0.125088
H27   H     H_    0.885930 0.456230 0.805491 0.148294
H28   H     H_    0.741983 0.437456 0.838545 0.125253
H29   H     H_    0.685884 0.408410 0.724938 0.125813
O1    O     O_R   0.507110 0.256280 0.580300 -0.494677
O2    O     O_R   0.524640 0.695370 0.425100 -0.503197
O3    O     O_R   0.735890 0.504390 0.415980 -0.504916
O4    O     O_R   0.690560 0.277820 0.422350 -0.497654
O5    O     O_3   0.499990 0.499990 0.499980 -0.273332
O6    O     O_R   0.089190 0.825870 0.932320 -0.490259
O7    O     O_R   0.819070 0.053960 0.931440 -0.485827
O8    O     O_R   0.607070 0.076440 0.916460 -0.528926
O9    O     O_R   0.647110 0.806550 0.917690 -0.460592
O10   O     O_R   0.837080 0.593860 0.915300 -0.537438
O11   O     O_R   0.064770 0.636080 0.932550 -0.503157
O12   O     O_R   0.280830 0.527190 0.577940 -0.431418
O13   O     O_R   0.068250 0.829200 0.092940 -0.463415
O14   O     O_R   0.799650 0.057040 0.080330 -0.494566
O15   O     O_R   0.586130 0.079760 0.077080 -0.501889
O16   O     O_R   0.627700 0.809630 0.066580 -0.493877
O17   O     O_R   0.816140 0.597180 0.075920 -0.487206
O18   O     O_R   0.045360 0.639170 0.081440 -0.541010
O19   O     O_3   0.833980 0.833750 0.001700 -0.305589
O20   O     O_R   0.261360 0.738990 0.584270 -0.544561
O21   O     O_R   0.532590 0.694780 0.574370 -0.509358
O22   O     O_R   0.744470 0.503750 0.577000 -0.518966
O23   O     O_R   0.698520 0.277230 0.571620 -0.519170
O24   O     O_R   0.498530 0.256920 0.419280 -0.515333
O25   O     O_R   0.272880 0.527780 0.428680 -0.489530
O26   O     O_R   0.252780 0.739630 0.423250 -0.514864
O27   O     O_3   0.422275 0.841286 0.835201 -0.553221
C41   C     C_3   0.410104 0.961209 0.799987 -0.103356
H30   H     H_    0.457856 0.009449 0.833772 0.167341
H31   H     H_    0.457351 0.942913 0.745839 0.078179
H32   H     H_    0.295803 0.040098 0.794338 0.116738
O28   O     O_3   0.219563 0.430323 0.684662 -0.523250
C42   C     C_3   0.270954 0.314677 0.732112 -0.115203
H33   H     H_    0.182057 0.316244 0.762014 0.099169
H34   H     H_    0.352136 0.310978 0.769453 0.106130
H35   H     H_    0.322723 0.216114 0.699993 0.132263
O29   O     O_3   0.287716 0.788353 0.168234 -0.526831
C43   C     C_3   0.269047 0.903137 0.210721 -0.093549
H36   H     H_    0.354249 0.868750 0.251477 0.091910
H37   H     H_    0.162646 0.957994 0.236697 0.122945
H38   H     H_    0.276329 0.980768 0.175432 0.145400

loop_
_geom_bond_atom_site_label_1
_geom_bond_atom_site_label_2
_ccdc_geom_bond_type
C1    O12   A    
C7    C10   D    
Cr2   O5    S    
C40   H25   S    
C1    C11   S    
Cr3   O23   S    
C23   O1    A    
Cr1   O5    S    
C6    H29   S    
Cr5   O8    S    
Cr3   O3    S    
C37   O4    A    
C26   C27   D    
Cr2   O21   S    
C8    C29   S    
C27   C28   S    
C29   O8    A    
C5    H26   S    
Cr4   O7    S    
C36   O2    A    
C33   O16   A    
C38   C39   S    
Cr6   O17   S    
Cr5   O19   S    
Cr3   O4    S    
C42   H33   S    
C18   C19   S    
C15   O28   S    
C21   H18   S    
C11   C15   D    
C18   H12   S    
C32   O15   A    
C20   C24   D    
C3    C38   S    
C8    C9    D    
C34   O25   A    
O28   C42   S    
Cr1   O24   S    
C4    C12   S    
C9    C10   S    
C8    H6    S    
C2    H28   S    
C25   C34   S    
C43   H38   S    
C31   O11   A    
C13   C14   D    
C5    H3    S    
C2    C6    S    
C17   C33   S    
C10   H5    S    
O29   C43   S    
C35   O18   A    
Cr1   O12   S    
C21   C32   S    
C34   O26   A    
C6    H1    S    
Cr2   O20   S    
C20   H19   S    
C28   H21   S    
C4    C6    S    
Cr4   O6    S    
C33   O17   A    
C19   H13   S    
Cr3   O5    S    
C43   H37   S    
C25   C28   D    
C3    C30   S    
C22   H16   S    
C35   O13   A    
C32   O14   A    
Cr6   O19   S    
C4    C39   S    
C1    O20   A    
C17   C18   D    
Cr1   O25   S    
C41   H31   S    
C30   O10   A    
Cr5   O15   S    
C12   O22   A    
C2    H27   S    
C11   H11   S    
C14   H8    S    
C3    C40   S    
C24   H17   S    
C39   H20   S    
C22   C24   S    
Cr5   O9    S    
C25   H23   S    
C16   H15   S    
C7    H7    S    
Cr2   O26   S    
C37   O24   A    
C43   H36   S    
C40   H2    S    
C13   C31   S    
C9    H4    S    
Cr3   O22   S    
C4    C5    S    
C27   O29   S    
C31   O6    A    
C42   H35   S    
C26   H22   S    
Cr6   O10   S    
C2    C3    S    
C29   O7    A    
C38   O27   S    
C36   O3    A    
C16   C36   S    
Cr1   O1    S    
C20   C37   S    
Cr6   O18   S    
C16   C19   D    
C7    C23   S    
C39   H24   S    
C42   H34   S    
C41   H32   S    
Cr4   O13   S    
C30   O9    A    
O27   C41   S    
Cr5   O16   S    
Cr4   O19   S    
C17   H14   S    
C26   C35   S    
C23   O23   A    
C38   H10   S    
Cr2   O2    S    
C5    C40   S    
C41   H30   S    
C14   C15   S    
C12   O21   A    
C13   H9    S    
C21   C22   D    
Cr4   O14   S    
Cr6   O11   S    
