data_mof_unit_27194.cif
_audit_creation_date              2012-12-11T14:11:06-0500
_audit_creation_method            fapswitch 2.2
_symmetry_space_group_name_H-M    P1
_symmetry_Int_Tables_number       1
_space_group_crystal_system       triclinic
_cell_length_a                    19.739779
_cell_length_b                    17.171501
_cell_length_c                    15.468111
_cell_angle_alpha                 90.000177
_cell_angle_beta                  52.454058
_cell_angle_gamma                 89.999967
_cell_volume                      4157.06723473

loop_
_atom_site_label
_atom_site_type_symbol
_atom_type_description
_atom_site_fract_x
_atom_site_fract_y
_atom_site_fract_z
_atom_type_partial_charge
C1    C     C_R   0.374177 0.197141 0.995289 -0.121278
C2    C     C_R   0.625822 0.802859 0.004712 -0.121284
C3    C     C_R   0.660855 0.175090 0.951118 -0.115545
C4    C     C_R   0.339146 0.824909 0.048880 -0.115539
C5    C     C_R   0.839146 0.675091 0.048880 -0.115540
C6    C     C_R   0.160854 0.324909 0.951118 -0.115538
C7    C     C_R   0.125821 0.697142 0.004713 -0.121280
C8    C     C_R   0.874178 0.302858 0.995287 -0.121273
C9    C     C_3   0.207447 0.190242 0.586880 -0.169855
C10   C     C_3   0.792500 0.809735 0.413145 -0.169841
C11   C     C_3   0.703016 0.240919 0.434099 -0.170167
C12   C     C_3   0.297143 0.758977 0.565826 -0.170181
C13   C     C_3   0.797127 0.741011 0.565839 -0.170167
C14   C     C_3   0.202916 0.259014 0.434146 -0.170173
C15   C     C_3   0.292479 0.690281 0.413156 -0.169849
C16   C     C_3   0.707327 0.309822 0.586947 -0.169860
C17   C     C_2   0.190377 0.743471 0.094762 -0.212610
C18   C     C_2   0.809622 0.256529 0.905238 -0.212602
C19   C     C_2   0.713461 0.687108 0.045624 -0.202896
C20   C     C_2   0.286539 0.312892 0.954376 -0.202892
C21   C     C_2   0.786540 0.187106 0.954374 -0.202887
C22   C     C_2   0.213461 0.812893 0.045624 -0.202890
C23   C     C_2   0.309616 0.243467 0.905246 -0.212590
C24   C     C_2   0.690382 0.756532 0.094757 -0.212612
C25   C     C_R   0.390338 0.802521 0.213207 -0.140521
C26   C     C_R   0.609644 0.197485 0.786805 -0.140491
C27   C     C_R   0.650291 0.826848 0.779219 -0.128299
C28   C     C_R   0.349713 0.173156 0.220781 -0.128295
C29   C     C_R   0.849721 0.326836 0.220781 -0.128279
C30   C     C_R   0.150287 0.673156 0.779218 -0.128310
C31   C     C_R   0.109657 0.302519 0.786796 -0.140511
C32   C     C_R   0.890333 0.697478 0.213209 -0.140519
C33   C     C_R   0.329892 0.913335 0.951163 -0.160883
C34   C     C_R   0.670109 0.086665 0.048836 -0.160878
C35   C     C_R   0.634556 0.889849 0.102878 -0.162228
C36   C     C_R   0.365443 0.110150 0.897122 -0.162227
C37   C     C_R   0.865444 0.389848 0.897121 -0.162227
C38   C     C_R   0.134555 0.610152 0.102880 -0.162229
C39   C     C_R   0.170108 0.413334 0.048837 -0.160877
C40   C     C_R   0.829892 0.586665 0.951162 -0.160883
C41   C     C_R   0.357048 0.080322 0.316997 -0.143301
C42   C     C_R   0.642956 0.919683 0.683004 -0.143299
C43   C     C_R   0.600909 0.106188 0.691059 -0.152332
C44   C     C_R   0.399079 0.893818 0.308947 -0.152307
C45   C     C_R   0.899075 0.606181 0.308949 -0.152300
C46   C     C_R   0.100919 0.393817 0.691055 -0.152314
C47   C     C_R   0.142950 0.580323 0.683002 -0.143297
C48   C     C_R   0.857054 0.419671 0.317000 -0.143326
C49   C     C_R   0.346840 0.185888 0.933038 0.157476
C50   C     C_R   0.653158 0.814111 0.066964 0.157477
C51   C     C_R   0.712613 0.147836 0.976704 0.154594
C52   C     C_R   0.287388 0.852164 0.023293 0.154595
C53   C     C_R   0.787388 0.647837 0.023293 0.154597
C54   C     C_R   0.212612 0.352163 0.976706 0.154594
C55   C     C_R   0.153157 0.685890 0.066966 0.157474
C56   C     C_R   0.846843 0.314110 0.933034 0.157472
C57   C     C_R   0.375715 0.818570 0.310065 0.042430
C58   C     C_R   0.624255 0.181441 0.689952 0.042423
C59   C     C_R   0.691705 0.859331 0.677048 0.031505
C60   C     C_R   0.308302 0.140677 0.322953 0.031516
C61   C     C_R   0.808317 0.359308 0.322955 0.031533
C62   C     C_R   0.191697 0.640675 0.677046 0.031511
C63   C     C_R   0.124278 0.318567 0.689940 0.042427
C64   C     C_R   0.875708 0.681429 0.310068 0.042425
C65   C     C_3   0.170070 0.153087 0.533064 -0.152995
C66   C     C_3   0.829902 0.846930 0.466911 -0.153010
C67   C     C_3   0.740569 0.204495 0.487575 -0.151799
C68   C     C_3   0.259526 0.795559 0.512516 -0.151889
C69   C     C_3   0.759506 0.704451 0.512519 -0.151884
C70   C     C_3   0.240511 0.295534 0.487514 -0.151863
C71   C     C_3   0.329877 0.653065 0.466911 -0.153020
C72   C     C_3   0.669995 0.346883 0.533020 -0.152940
C73   C     C_3   0.714233 0.780791 0.524634 -0.138854
C74   C     C_3   0.285744 0.219175 0.475416 -0.138884
C75   C     C_3   0.376324 0.730596 0.453046 -0.144982
C76   C     C_3   0.623709 0.269259 0.546807 -0.145026
C77   C     C_3   0.123689 0.230654 0.546900 -0.144999
C78   C     C_3   0.876324 0.769383 0.453059 -0.144980
C79   C     C_3   0.785706 0.280909 0.475527 -0.138931
C80   C     C_3   0.214229 0.719236 0.524644 -0.138856
C81   C     C_3   0.752014 0.817225 0.577365 0.186286
C82   C     C_3   0.247989 0.182781 0.422636 0.186284
C83   C     C_3   0.337414 0.766502 0.401692 0.186471
C84   C     C_3   0.662555 0.233508 0.598329 0.186468
C85   C     C_3   0.162578 0.266499 0.598314 0.186467
C86   C     C_3   0.837409 0.733498 0.401695 0.186470
C87   C     C_3   0.747994 0.317209 0.422638 0.186287
C88   C     C_3   0.252006 0.682780 0.577364 0.186290
H1    H     H_    0.381389 0.251945 0.023100 0.078777
H2    H     H_    0.618610 0.748055 0.976901 0.078780
H3    H     H_    0.670869 0.224620 0.901853 0.086506
H4    H     H_    0.329133 0.775377 0.098141 0.086499
H5    H     H_    0.829132 0.724622 0.098144 0.086499
H6    H     H_    0.170869 0.275380 0.901853 0.086500
H7    H     H_    0.118610 0.751945 0.976901 0.078780
H8    H     H_    0.881390 0.248054 0.023098 0.078776
H9    H     H_    0.345329 0.046274 0.383638 0.098632
H10   H     H_    0.654675 0.953732 0.616364 0.098640
H11   H     H_    0.595911 0.078656 0.632258 0.091406
H12   H     H_    0.404079 0.921349 0.367747 0.091391
H13   H     H_    0.904074 0.578650 0.367750 0.091392
H14   H     H_    0.095920 0.421349 0.632254 0.091396
H15   H     H_    0.154668 0.546274 0.616362 0.098634
H16   H     H_    0.845334 0.453721 0.383640 0.098634
H17   H     H_    0.646727 0.785867 0.555655 0.111717
H18   H     H_    0.353236 0.214070 0.444433 0.111719
H19   H     H_    0.444130 0.736757 0.420221 0.112365
H20   H     H_    0.555942 0.262979 0.579504 0.112334
H21   H     H_    0.055899 0.236864 0.579681 0.112356
H22   H     H_    0.944128 0.763202 0.420242 0.112357
H23   H     H_    0.853173 0.286084 0.444631 0.111701
H24   H     H_    0.146721 0.714178 0.555675 0.111724
H25   H     H_    0.142643 0.093718 0.548492 0.110727
H26   H     H_    0.857312 0.906313 0.451459 0.110713
H27   H     H_    0.768970 0.145414 0.470823 0.109347
H28   H     H_    0.231215 0.854684 0.529335 0.109328
H29   H     H_    0.731176 0.645333 0.529336 0.109331
H30   H     H_    0.268859 0.354639 0.470720 0.109338
H31   H     H_    0.357267 0.593675 0.451460 0.110715
H32   H     H_    0.642515 0.406229 0.548405 0.110730
H33   H     H_    0.209021 0.162852 0.650631 0.102425
H34   H     H_    0.790884 0.837105 0.349413 0.102418
H35   H     H_    0.701725 0.213735 0.370012 0.105354
H36   H     H_    0.298574 0.786069 0.629848 0.105389
H37   H     H_    0.798543 0.713907 0.629869 0.105377
H38   H     H_    0.201538 0.286141 0.370101 0.105377
H39   H     H_    0.290848 0.662923 0.349432 0.102426
H40   H     H_    0.708809 0.337267 0.650747 0.102419
H41   H     H_    0.211666 0.723115 0.140924 0.123716
H42   H     H_    0.788332 0.276887 0.859077 0.123718
H43   H     H_    0.690191 0.665962 0.002047 0.122528
H44   H     H_    0.309810 0.334037 0.997951 0.122527
H45   H     H_    0.809805 0.165963 0.997958 0.122524
H46   H     H_    0.190197 0.834036 0.002038 0.122526
H47   H     H_    0.288322 0.223108 0.859092 0.123715
H48   H     H_    0.711675 0.776891 0.140913 0.123717
N1    N     N_R   0.408680 0.130810 0.995780 -0.041652
N2    N     N_R   0.591320 0.869190 0.004220 -0.041652
N3    N     N_R   0.591320 0.130810 0.004220 -0.047019
N4    N     N_R   0.408680 0.869190 0.995780 -0.047018
N5    N     N_R   0.908680 0.630810 0.995780 -0.047018
N6    N     N_R   0.091320 0.369190 0.004220 -0.047018
N7    N     N_R   0.091320 0.630810 0.004220 -0.041652
N8    N     N_R   0.908680 0.369190 0.995780 -0.041654
N9    N     N_R   0.421410 0.867210 0.153620 -0.035753
N10   N     N_R   0.578590 0.132790 0.846380 -0.035757
N11   N     N_R   0.578590 0.867210 0.846380 -0.041217
N12   N     N_R   0.421410 0.132790 0.153620 -0.041216
N13   N     N_R   0.921410 0.367210 0.153620 -0.041213
N14   N     N_R   0.078590 0.632790 0.846380 -0.041215
N15   N     N_R   0.078590 0.367210 0.846380 -0.035755
N16   N     N_R   0.921410 0.632790 0.153620 -0.035754
N17   N     N_R   0.403840 0.921910 0.935760 -0.042454
N18   N     N_R   0.596160 0.078090 0.064240 -0.042454
N19   N     N_R   0.596160 0.921910 0.064240 -0.037233
N20   N     N_R   0.403840 0.078090 0.935760 -0.037232
N21   N     N_R   0.903840 0.421910 0.935760 -0.037234
N22   N     N_R   0.096160 0.578090 0.064240 -0.037234
N23   N     N_R   0.096160 0.421910 0.064240 -0.042454
N24   N     N_R   0.903840 0.578090 0.935760 -0.042454
N25   N     N_R   0.426250 0.076100 0.213650 -0.039742
N26   N     N_R   0.573750 0.923900 0.786350 -0.039744
N27   N     N_R   0.573750 0.076100 0.786350 -0.033057
N28   N     N_R   0.426250 0.923900 0.213650 -0.033056
N29   N     N_R   0.926250 0.576100 0.213650 -0.033057
N30   N     N_R   0.073750 0.423900 0.786350 -0.033057
N31   N     N_R   0.073750 0.576100 0.786350 -0.039742
N32   N     N_R   0.926250 0.423900 0.213650 -0.039738
Ni1   Ni    Ni4+2 0.500000 0.131570 0.000000 0.205907
Ni2   Ni    Ni4+2 0.500000 0.868430 0.000000 0.205907
Ni3   Ni    Ni4+2 0.000000 0.631570 0.000000 0.205907
Ni4   Ni    Ni4+2 0.000000 0.368430 0.000000 0.205909
Ni5   Ni    Ni4+2 0.488900 1.000000 0.862310 0.206703
Ni6   Ni    Ni4+2 0.511100 1.000000 0.137690 0.206706
Ni7   Ni    Ni4+2 0.988900 0.500000 0.862310 0.206704
Ni8   Ni    Ni4+2 0.011100 0.500000 0.137690 0.206706
H49   H     H_    0.388448 0.746004 0.183963 0.084444
H50   H     H_    0.611530 0.254000 0.816055 0.084430
H51   H     H_    0.668767 0.775592 0.800652 0.091930
H52   H     H_    0.331238 0.224412 0.199346 0.091922
H53   H     H_    0.831248 0.275581 0.199341 0.091906
H54   H     H_    0.168762 0.724413 0.800651 0.091932
H55   H     H_    0.111546 0.246003 0.816042 0.084439
H56   H     H_    0.888444 0.753995 0.183965 0.084444
H57   H     H_    0.309673 0.947135 0.911558 0.096636
H58   H     H_    0.690327 0.052865 0.088441 0.096634
H59   H     H_    0.638084 0.915909 0.163710 0.088874
H60   H     H_    0.361915 0.084090 0.836291 0.088871
H61   H     H_    0.861916 0.415908 0.836289 0.088874
H62   H     H_    0.138084 0.584093 0.163712 0.088873
H63   H     H_    0.190327 0.447134 0.088442 0.096635
H64   H     H_    0.809673 0.552865 0.911558 0.096636

loop_
_geom_bond_atom_site_label_1
_geom_bond_atom_site_label_2
_ccdc_geom_bond_type
N2    N19   A    
C68   C80   S    
C78   C86   S    
C37   H61   S    
C75   H19   S    
C41   N25   A    
N2    Ni2   S    
N13   Ni4   S    
C14   C70   S    
C8    H8    S    
C7    C55   A    
N6    N23   A    
C72   C76   S    
C75   C83   S    
C16   C72   S    
C76   C84   S    
C47   C62   A    
C7    N7    A    
N16   N29   A    
C65   C82   S    
N26   Ni5   S    
C33   C52   A    
C12   C68   S    
C34   C51   A    
C29   H53   S    
C22   H46   S    
N12   N25   A    
N17   Ni5   S    
N6    Ni4   S    
C35   N19   A    
C11   C76   S    
C42   H10   S    
C10   C73   S    
C33   N17   A    
C68   C83   S    
C23   C49   S    
C39   C54   A    
C4    N4    A    
C48   H16   S    
C13   C81   S    
N5    Ni3   S    
C47   N31   A    
C3    H3    S    
C1    C49   A    
C14   C77   S    
C37   N21   A    
C34   H58   S    
C67   H27   S    
C61   C87   S    
C43   C58   A    
C9    C85   S    
N9    Ni2   S    
C37   C56   A    
C5    N5    A    
C21   H45   S    
C38   C55   A    
N14   Ni3   S    
C11   C87   S    
C6    H6    S    
C68   H28   S    
C40   H64   S    
C70   C74   S    
C9    H33   S    
C57   C83   S    
C69   C73   S    
C6    N6    A    
C2    C50   A    
C17   C55   S    
N1    Ni1   S    
N11   Ni2   S    
C18   C56   S    
N4    N17   A    
C13   H37   S    
C19   C53   S    
C26   H50   S    
C77   C85   S    
C67   C84   S    
C76   H20   S    
C15   H39   S    
C63   C85   S    
C24   C50   S    
C30   H54   S    
C8    C56   A    
N13   N32   A    
C25   C57   A    
C20   H44   S    
C46   N30   A    
C79   C87   S    
C11   C67   S    
C10   C66   S    
C19   H43   S    
C66   C78   S    
C38   H62   S    
C29   C61   A    
N20   Ni5   S    
C64   C86   S    
C47   H15   S    
N18   Ni6   S    
C17   H41   S    
C2    N2    A    
C31   C63   A    
C65   C77   S    
C32   C64   A    
C20   C54   S    
N10   Ni1   S    
C26   C58   A    
N16   Ni3   S    
C3    C51   A    
C15   C83   S    
N3    N18   A    
C26   N10   A    
C62   C88   S    
N21   Ni7   S    
C16   C84   S    
N15   Ni4   S    
N1    N20   A    
C36   H60   S    
C33   H57   S    
C77   H21   S    
C58   C84   S    
C74   H18   S    
C39   H63   S    
N5    N24   A    
C73   H17   S    
C15   C80   S    
C32   N16   A    
C20   C23   D    
C44   C57   A    
C12   C88   S    
C80   H24   S    
C35   C50   A    
N12   Ni1   S    
N30   Ni7   S    
C67   C79   S    
C23   H47   S    
C78   H22   S    
C70   C85   S    
N28   Ni6   S    
C28   H52   S    
C38   N22   A    
C28   C60   A    
C45   H13   S    
C15   C71   S    
C73   C81   S    
N19   Ni6   S    
N22   Ni8   S    
C4    C52   A    
C48   N32   A    
C6    C54   A    
C34   N18   A    
C72   H32   S    
C30   C62   A    
N24   Ni7   S    
C41   H9    S    
C18   H42   S    
C3    N3    A    
C9    C74   S    
C14   C82   S    
N27   Ni5   S    
C21   C51   S    
C72   C87   S    
C1    N1    A    
C36   N20   A    
N7    N22   A    
N31   Ni7   S    
C74   C82   S    
C5    C53   A    
N32   Ni8   S    
C18   C21   D    
C13   C78   S    
C10   C86   S    
C1    H1    S    
C2    H2    S    
C66   H26   S    
C39   N23   A    
C28   N12   A    
C65   H25   S    
C32   H56   S    
C11   H35   S    
C59   C81   S    
C41   C60   A    
C27   H51   S    
C10   H34   S    
N11   N26   A    
C42   C59   A    
C5    H5    S    
C42   N26   A    
N4    Ni2   S    
N9    N28   A    
C79   H23   S    
N15   N30   A    
C7    H7    S    
N10   N27   A    
N8    Ni4   S    
C45   C64   A    
N29   Ni8   S    
C17   C22   D    
C14   H38   S    
C71   H31   S    
C46   C63   A    
N23   Ni8   S    
C16   C79   S    
C60   C82   S    
C19   C24   D    
N7    Ni3   S    
C80   C88   S    
C27   N11   A    
C27   C59   A    
C43   H11   S    
C66   C81   S    
C71   C75   S    
N25   Ni6   S    
C44   H12   S    
C24   H48   S    
C48   C61   A    
C13   C69   S    
C70   H30   S    
N14   N31   A    
C69   H29   S    
C31   N15   A    
N3    Ni1   S    
C22   C52   S    
C31   H55   S    
C16   H40   S    
C40   N24   A    
C9    C65   S    
C30   N14   A    
C69   C86   S    
C29   N13   A    
C71   C88   S    
C8    N8    A    
C35   H59   S    
C40   C53   A    
C12   C75   S    
C25   N9    A    
C44   N28   A    
C4    H4    S    
N8    N21   A    
C25   H49   S    
C45   N29   A    
C12   H36   S    
C36   C49   A    
C46   H14   S    
C43   N27   A    
