data_mof_unit_13106.cif
_audit_creation_date              2012-12-11T15:18:01-0500
_audit_creation_method            fapswitch 2.2
_symmetry_space_group_name_H-M    P1
_symmetry_Int_Tables_number       1
_space_group_crystal_system       triclinic
_cell_length_a                    15.737552
_cell_length_b                    15.73748
_cell_length_c                    34.589792
_cell_angle_alpha                 90.000384
_cell_angle_beta                  89.999488
_cell_angle_gamma                 120.000183
_cell_volume                      7419.08164827

loop_
_atom_site_label
_atom_site_type_symbol
_atom_type_description
_atom_site_fract_x
_atom_site_fract_y
_atom_site_fract_z
_atom_type_partial_charge
C1    C     C_R   0.577398 0.441944 0.554459 0.537527
C2    C     C_R   0.501289 0.993252 0.211160 0.336072
C3    C     C_3   0.512578 0.659590 0.568640 -0.431680
C4    C     C_3   0.360722 0.956775 0.577080 -0.247162
C5    C     C_3   0.340535 0.852969 0.568607 -0.431692
C6    C     C_3   0.403728 0.043095 0.077114 -0.247124
C7    C     C_3   0.487214 0.147012 0.068701 -0.431673
C8    C     C_3   0.639288 0.596089 0.077086 -0.247152
C9    C     C_3   0.659542 0.512504 0.068636 -0.431689
C10   C     C_3   0.956873 0.360662 0.077108 -0.247142
C11   C     C_3   0.852995 0.340312 0.068674 -0.431677
C12   C     C_R   0.491975 0.498650 0.211151 0.336064
C13   C     C_R   0.006734 0.508047 0.211159 0.336072
C14   C     C_R   0.000076 0.435509 0.853293 -0.061214
C15   C     C_R   0.564505 0.564535 0.853301 -0.061216
C16   C     C_R   0.435441 0.999931 0.853294 -0.061215
C17   C     C_R   0.435472 0.999973 0.353313 -0.061217
C18   C     C_R   0.564548 0.564502 0.353299 -0.061214
C19   C     C_R   0.000007 0.435487 0.353309 -0.061215
C20   C     C_R   0.029563 0.444569 0.891849 0.089015
C21   C     C_R   0.558057 0.135455 0.554459 0.537532
C22   C     C_R   0.555437 0.584972 0.891856 0.089011
C23   C     C_R   0.415014 0.970443 0.891851 0.089015
C24   C     C_R   0.444551 0.029497 0.391866 0.089010
C25   C     C_R   0.584980 0.555436 0.391854 0.089013
C26   C     C_R   0.970488 0.415042 0.391862 0.089009
C27   C     C_R   0.090887 0.620264 0.888087 -0.149464
C28   C     C_R   0.379740 0.470622 0.888087 -0.149466
C29   C     C_R   0.529372 0.909106 0.888085 -0.149464
C30   C     C_R   0.620252 0.090877 0.388086 -0.149468
C31   C     C_R   0.470627 0.379739 0.388086 -0.149465
C32   C     C_R   0.864543 0.422601 0.554459 0.537533
C33   C     C_R   0.909130 0.529382 0.388088 -0.149466
C34   C     C_R   0.061291 0.610213 0.849676 -0.127761
C35   C     C_R   0.389797 0.451068 0.849678 -0.127762
C36   C     C_R   0.548917 0.938702 0.849674 -0.127763
C37   C     C_R   0.610184 0.061248 0.349679 -0.127764
C38   C     C_R   0.451078 0.389795 0.349676 -0.127764
C39   C     C_R   0.938755 0.548944 0.349681 -0.127762
C40   C     C_R   0.020292 0.518601 0.831443 0.002250
C41   C     C_R   0.481416 0.501666 0.831448 0.002246
C42   C     C_R   0.498310 0.979708 0.831442 0.002248
C43   C     C_R   0.441943 0.577398 0.054459 0.537541
C44   C     C_R   0.518557 0.020200 0.331455 0.002243
C45   C     C_R   0.501680 0.481413 0.331446 0.002249
C46   C     C_R   0.979788 0.498354 0.331454 0.002245
C47   C     C_R   0.080537 0.539034 0.909022 0.025510
C48   C     C_R   0.460968 0.541495 0.909024 0.025510
C49   C     C_R   0.458499 0.919463 0.909022 0.025511
C50   C     C_R   0.539027 0.080515 0.409027 0.025509
C51   C     C_R   0.541499 0.460967 0.409023 0.025509
C52   C     C_R   0.919483 0.458510 0.409026 0.025507
C53   C     C_R   0.577879 0.442463 0.445567 0.545461
C54   C     C_R   0.135454 0.558056 0.054459 0.537537
C55   C     C_R   0.557536 0.135414 0.445567 0.545459
C56   C     C_R   0.864586 0.422122 0.445567 0.545461
C57   C     C_R   0.442463 0.577878 0.945567 0.545459
C58   C     C_R   0.135416 0.557537 0.945566 0.545462
C59   C     C_R   0.422121 0.864584 0.945566 0.545459
C60   C     C_R   0.915951 0.456720 0.591711 0.001901
C61   C     C_R   0.543266 0.459245 0.591707 0.001859
C62   C     C_R   0.540757 0.084028 0.591707 0.001880
C63   C     C_R   0.456738 0.915995 0.091705 0.001833
C64   C     C_R   0.459242 0.543269 0.091707 0.001868
C65   C     C_R   0.422603 0.864548 0.054458 0.537536
C66   C     C_R   0.084017 0.540752 0.091707 0.001847
C67   C     C_R   0.990132 0.437112 0.604629 0.050666
C68   C     C_R   0.562972 0.553059 0.604638 0.050677
C69   C     C_R   0.446955 0.009879 0.604630 0.050668
C70   C     C_R   0.436953 0.990041 0.104648 0.050678
C71   C     C_R   0.553048 0.562947 0.104634 0.050667
C72   C     C_R   0.009943 0.446931 0.104645 0.050677
C73   C     C_R   0.017578 0.452315 0.644142 0.109498
C74   C     C_R   0.547799 0.565297 0.644155 0.109503
C75   C     C_R   0.434712 0.982443 0.644144 0.109502
C76   C     C_R   0.993356 0.501382 0.711148 0.336053
C77   C     C_R   0.452084 0.017411 0.144170 0.109500
C78   C     C_R   0.565292 0.547774 0.144150 0.109505
C79   C     C_R   0.982555 0.434695 0.144165 0.109500
C80   C     C_R   0.975643 0.492345 0.669323 0.028837
C81   C     C_R   0.507678 0.483309 0.669325 0.028830
C82   C     C_R   0.516686 0.024341 0.669320 0.028830
C83   C     C_R   0.492275 0.975595 0.169330 0.028818
C84   C     C_R   0.483312 0.507679 0.169324 0.028823
C85   C     C_R   0.024399 0.516694 0.169329 0.028823
C86   C     C_R   0.911377 0.521262 0.654763 -0.144638
C87   C     C_R   0.498653 0.491967 0.711153 0.336064
C88   C     C_R   0.478641 0.390112 0.654749 -0.144642
C89   C     C_R   0.609877 0.088557 0.654754 -0.144639
C90   C     C_R   0.521409 0.911521 0.154741 -0.144640
C91   C     C_R   0.390117 0.478672 0.154753 -0.144638
C92   C     C_R   0.088513 0.609896 0.154746 -0.144642
C93   C     C_R   0.881219 0.502864 0.616683 -0.154034
C94   C     C_R   0.497023 0.378352 0.616666 -0.154050
C95   C     C_R   0.621640 0.118714 0.616673 -0.154038
C96   C     C_R   0.503049 0.881401 0.116655 -0.154048
C97   C     C_R   0.378355 0.497055 0.116671 -0.154034
C98   C     C_R   0.508015 0.006638 0.711147 0.336058
C99   C     C_R   0.118639 0.621653 0.116661 -0.154047
C100  C     C_R   0.006423 0.511016 0.789268 0.344019
C101  C     C_R   0.489008 0.495379 0.789273 0.344026
C102  C     C_R   0.504593 0.993577 0.789267 0.344022
C103  C     C_R   0.510951 0.006305 0.289281 0.344034
C104  C     C_R   0.495394 0.489004 0.289272 0.344028
C105  C     C_R   0.993679 0.504645 0.289280 0.344033
C106  C     C_3   0.043269 0.404033 0.577075 -0.247182
C107  C     C_3   0.147029 0.487715 0.568581 -0.431695
C108  C     C_3   0.596145 0.639314 0.577097 -0.247148
Cr1   Cr    Cr6+3 0.522350 0.263930 0.500020 1.011465
Cr2   Cr    Cr6+3 0.736070 0.258420 0.500020 1.011472
Cr3   Cr    Cr6+3 0.741580 0.477650 0.500020 1.011467
Cr4   Cr    Cr6+3 0.263930 0.522350 0.000020 1.011461
Cr5   Cr    Cr6+3 0.258420 0.736070 0.000020 1.011454
Cr6   Cr    Cr6+3 0.477650 0.741580 0.000020 1.011460
H1    H     H_    0.825783 0.520103 0.607377 0.148575
H2    H     H_    0.553199 0.879655 0.173527 0.148466
H3    H     H_    0.326481 0.446958 0.173550 0.148471
H4    H     H_    0.120402 0.673547 0.173535 0.148467
H5    H     H_    0.965047 0.363530 0.839995 0.160444
H6    H     H_    0.636487 0.601475 0.840007 0.160448
H7    H     H_    0.398495 0.034964 0.839998 0.160444
H8    H     H_    0.363484 0.964911 0.340024 0.160449
H9    H     H_    0.601490 0.636484 0.340005 0.160444
H10   H     H_    0.035058 0.398553 0.340017 0.160449
H11   H     H_    0.128335 0.693274 0.900469 0.138270
H12   H     H_    0.479697 0.305658 0.607351 0.148589
H13   H     H_    0.306726 0.435069 0.900466 0.138269
H14   H     H_    0.564931 0.871653 0.900466 0.138272
H15   H     H_    0.693271 0.128358 0.400460 0.138274
H16   H     H_    0.435072 0.306725 0.400465 0.138276
H17   H     H_    0.871660 0.564929 0.400465 0.138271
H18   H     H_    0.076172 0.675398 0.833689 0.150250
H19   H     H_    0.324614 0.400769 0.833690 0.150255
H20   H     H_    0.599216 0.923816 0.833686 0.150250
H21   H     H_    0.675366 0.076139 0.333688 0.150255
H22   H     H_    0.400780 0.324611 0.333688 0.150248
H23   H     H_    0.694325 0.174118 0.607364 0.148584
H24   H     H_    0.923871 0.599241 0.333691 0.150255
H25   H     H_    0.144087 0.550721 0.555544 0.144707
H26   H     H_    0.191996 0.512632 0.595296 0.184396
H27   H     H_    0.183401 0.462253 0.547821 0.134442
H28   H     H_    0.046533 0.340780 0.589681 0.172944
H29   H     H_    0.005744 0.378958 0.548906 0.156988
H30   H     H_    0.449479 0.593709 0.555610 0.144701
H31   H     H_    0.487768 0.679704 0.595368 0.184447
H32   H     H_    0.538110 0.721443 0.547886 0.134432
H33   H     H_    0.659489 0.705761 0.589698 0.172918
H34   H     H_    0.520443 0.826088 0.107331 0.148600
H35   H     H_    0.621117 0.626818 0.548913 0.157002
H36   H     H_    0.406451 0.855821 0.555580 0.144704
H37   H     H_    0.320430 0.808018 0.595327 0.184422
H38   H     H_    0.278702 0.816633 0.547844 0.134431
H39   H     H_    0.294243 0.953601 0.589683 0.172924
H40   H     H_    0.373204 0.994271 0.548904 0.156991
H41   H     H_    0.511878 0.191896 0.095441 0.184483
H42   H     H_    0.550418 0.144372 0.055702 0.144696
H43   H     H_    0.461661 0.183292 0.047935 0.134418
H44   H     H_    0.378865 0.005689 0.048914 0.156997
H45   H     H_    0.305666 0.479752 0.107359 0.148585
H46   H     H_    0.340301 0.046062 0.089705 0.172890
H47   H     H_    0.679732 0.487756 0.095360 0.184449
H48   H     H_    0.593627 0.449375 0.055638 0.144708
H49   H     H_    0.721338 0.537993 0.047855 0.134424
H50   H     H_    0.626780 0.621044 0.048901 0.156983
H51   H     H_    0.705746 0.659435 0.089679 0.172903
H52   H     H_    0.808091 0.320148 0.095408 0.184467
H53   H     H_    0.855710 0.406175 0.055658 0.144697
H54   H     H_    0.816694 0.278468 0.047913 0.134431
H55   H     H_    0.994309 0.373178 0.048917 0.157001
H56   H     H_    0.173978 0.694354 0.107340 0.148594
H57   H     H_    0.953835 0.294241 0.089705 0.172904
H58   H     H_    0.073800 0.355631 0.916129 0.255922
H59   H     H_    0.978521 0.356957 0.939198 0.238993
H60   H     H_    0.644380 0.718146 0.916136 0.255924
H61   H     H_    0.643035 0.621535 0.939208 0.238987
H62   H     H_    0.378453 0.021490 0.939201 0.238989
H63   H     H_    0.281842 0.926215 0.916132 0.255923
H64   H     H_    0.355601 0.073715 0.416148 0.255927
H65   H     H_    0.356976 0.978471 0.439225 0.238982
H66   H     H_    0.718151 0.644379 0.416136 0.255925
H67   H     H_    0.879410 0.552919 0.673566 0.148467
H68   H     H_    0.621539 0.643036 0.439207 0.238990
H69   H     H_    0.021511 0.378479 0.439218 0.238989
H70   H     H_    0.926257 0.281867 0.416141 0.255926
H71   H     H_    0.054292 0.369030 0.677283 0.262582
H72   H     H_    0.144122 0.488398 0.672562 0.242493
H73   H     H_    0.631214 0.685237 0.677307 0.262586
H74   H     H_    0.511888 0.655859 0.672600 0.242510
H75   H     H_    0.344199 0.855927 0.672572 0.242490
H76   H     H_    0.314739 0.945813 0.677291 0.262588
H77   H     H_    0.368540 0.053753 0.177330 0.262581
H78   H     H_    0.446907 0.326469 0.673543 0.148466
H79   H     H_    0.487828 0.143809 0.172640 0.242522
H80   H     H_    0.685247 0.631164 0.177298 0.262584
H81   H     H_    0.655834 0.511829 0.172588 0.242498
H82   H     H_    0.856121 0.344089 0.172623 0.242520
H83   H     H_    0.946122 0.314783 0.177322 0.262582
H84   H     H_    0.673508 0.120492 0.673553 0.148470
N1    N     N_R   0.993047 0.429854 0.770177 -0.226797
N2    N     N_R   0.424763 0.985813 0.231867 -0.228111
N3    N     N_R   0.561126 0.575146 0.231851 -0.228099
N4    N     N_R   0.014138 0.438935 0.231862 -0.228109
N5    N     N_R   0.005966 0.582269 0.730184 -0.219989
N6    N     N_R   0.417738 0.423723 0.730185 -0.219993
N7    N     N_R   0.576278 0.994002 0.730181 -0.219999
N8    N     N_R   0.582233 0.005985 0.230186 -0.220009
N9    N     N_R   0.423719 0.417744 0.230184 -0.220007
N10   N     N_R   0.994033 0.576275 0.230188 -0.220001
N11   N     N_R   0.013322 0.587380 0.768507 -0.220563
N12   N     N_R   0.570199 0.563130 0.770187 -0.226801
N13   N     N_R   0.412623 0.425959 0.768508 -0.220566
N14   N     N_R   0.574037 0.986649 0.768504 -0.220567
N15   N     N_R   0.587355 0.013333 0.268510 -0.220575
N16   N     N_R   0.425959 0.412629 0.268507 -0.220569
N17   N     N_R   0.986684 0.574044 0.268512 -0.220568
N18   N     N_3   0.008647 0.356948 0.912255 -0.630645
N19   N     N_3   0.643056 0.651672 0.912264 -0.630648
N20   N     N_3   0.348315 0.991365 0.912258 -0.630648
N21   N     N_3   0.356937 0.008570 0.412279 -0.630649
N22   N     N_3   0.651678 0.643055 0.412263 -0.630647
N23   N     N_R   0.436821 0.006979 0.770179 -0.226799
N24   N     N_3   0.991405 0.348344 0.412272 -0.630647
N25   N     N_3   0.088590 0.427755 0.658026 -0.639592
N26   N     N_3   0.572488 0.660893 0.658056 -0.639591
N27   N     N_3   0.339126 0.911479 0.658035 -0.639596
N28   N     N_3   0.427272 0.088218 0.158085 -0.639591
N29   N     N_3   0.660884 0.572437 0.158046 -0.639598
N30   N     N_3   0.911698 0.339088 0.158073 -0.639590
N31   N     N_R   0.429730 0.992799 0.270200 -0.226804
N32   N     N_R   0.563158 0.570186 0.270184 -0.226799
N33   N     N_R   0.007150 0.436911 0.270196 -0.226802
N34   N     N_R   0.986054 0.424899 0.731844 -0.228093
N35   N     N_R   0.575158 0.561101 0.731854 -0.228108
N36   N     N_R   0.438855 0.013969 0.731846 -0.228099
O1    O     O_R   0.498680 0.159540 0.541860 -0.527742
O2    O     O_R   0.358060 0.532760 0.040030 -0.501716
O3    O     O_R   0.174700 0.641940 0.040030 -0.501717
O4    O     O_R   0.467240 0.825300 0.040030 -0.501719
O5    O     O_R   0.498590 0.161190 0.456930 -0.529001
O6    O     O_R   0.838810 0.337400 0.456930 -0.529000
O7    O     O_R   0.662600 0.501410 0.456930 -0.529003
O8    O     O_R   0.161190 0.498590 0.956930 -0.529006
O9    O     O_R   0.337400 0.838810 0.956930 -0.529006
O10   O     O_R   0.501410 0.662600 0.956930 -0.529004
O11   O     O_R   0.532680 0.359580 0.461300 -0.503412
O12   O     O_R   0.840460 0.339140 0.541860 -0.527735
O13   O     O_R   0.640420 0.173100 0.461300 -0.503413
O14   O     O_R   0.826900 0.467320 0.461300 -0.503414
O15   O     O_R   0.359580 0.532680 0.961300 -0.503417
O16   O     O_R   0.173100 0.640420 0.961300 -0.503416
O17   O     O_R   0.467320 0.826900 0.961300 -0.503416
O18   O     O_3   0.666667 0.333333 0.499990 -0.234435
O19   O     O_3   0.333333 0.666667 0.999990 -0.234420
O20   O     O_R   0.660860 0.501320 0.541860 -0.527748
O21   O     O_R   0.159540 0.498680 0.041860 -0.527748
O22   O     O_R   0.339140 0.840460 0.041860 -0.527751
O23   O     O_R   0.501320 0.660860 0.041860 -0.527740
O24   O     O_R   0.532760 0.358060 0.540030 -0.501715
O25   O     O_R   0.641940 0.174700 0.540030 -0.501715
O26   O     O_R   0.825300 0.467240 0.540030 -0.501714

loop_
_geom_bond_atom_site_label_1
_geom_bond_atom_site_label_2
_ccdc_geom_bond_type
Cr2   O13   S    
C66   C99   A    
Cr6   O10   S    
H72   N25   S    
H82   N30   S    
Cr1   O18   S    
H68   N22   S    
C87   N35   A    
C105  N17   A    
N23   N36   A    
H76   N27   S    
C82   C98   S    
C54   O21   A    
C79   N30   S    
C36   C42   A    
C61   C68   A    
C43   O23   A    
H63   N20   S    
C16   H7    S    
C35   H19   S    
C63   C65   S    
C87   N6    A    
C19   C46   A    
C48   C57   S    
C99   H56   S    
C29   C49   A    
C101  N13   A    
C10   H55   S    
H70   N24   S    
C89   H84   S    
C56   O14   A    
C29   C36   A    
C33   C39   A    
C5    H38   S    
C34   C40   A    
C97   H45   S    
C86   C93   A    
C53   O7    A    
H79   N28   S    
C31   H16   S    
C43   O2    A    
Cr2   O6    S    
C64   C71   A    
H73   N26   S    
C77   C83   A    
C68   C74   A    
C65   O22   A    
C74   N26   S    
C100  N11   A    
C107  H26   S    
C15   H6    S    
C12   C84   S    
C59   O9    A    
C93   H1    S    
N12   N35   A    
Cr1   O24   S    
C58   O8    A    
C19   C26   A    
C92   H4    S    
C38   C45   A    
C80   C86   A    
C14   H5    S    
C85   C92   A    
C15   C22   A    
C66   C72   A    
C7    H42   S    
C29   H14   S    
C28   C35   A    
C41   C101  S    
C8    C9    S    
Cr5   O9    S    
C76   N34   A    
C86   H67   S    
C37   H21   S    
C98   N7    A    
C88   H78   S    
C2    N8    A    
C84   C91   A    
C90   H2    S    
C107  H27   S    
C8    H51   S    
C103  N15   A    
C20   N18   S    
C28   H13   S    
C18   H9    S    
Cr6   O4    S    
C108  H33   S    
C60   C93   A    
C33   H17   S    
Cr3   O20   S    
Cr4   O8    S    
C4    H40   S    
C30   C50   A    
C39   H24   S    
C34   H18   S    
C77   N28   S    
Cr3   O7    S    
Cr5   O22   S    
C55   O13   A    
C62   C95   A    
C70   C77   A    
C11   H53   S    
H61   N19   S    
C28   C48   A    
C2    C83   S    
C21   O1    A    
C18   C25   A    
C42   C102  S    
C4    C69   S    
C6    H44   S    
C44   C103  S    
C43   C64   S    
C106  H28   S    
C94   H12   S    
C27   C34   A    
C24   C50   A    
C96   H34   S    
C88   C94   A    
C19   H10   S    
C76   N5    A    
C17   C24   A    
C95   H23   S    
C73   N25   S    
Cr2   O12   S    
C81   C88   A    
C12   N9    A    
C14   C20   A    
H64   N21   S    
Cr4   O15   S    
H59   N18   S    
Cr5   O19   S    
C60   C67   A    
C106  H29   S    
C8    H50   S    
C106  C107  S    
C61   C94   A    
Cr3   O14   S    
Cr4   O21   S    
H74   N26   S    
N7    N14   A    
Cr2   O18   S    
C10   H57   S    
Cr4   O2    S    
C14   C40   A    
C63   C96   A    
N9    N16   A    
Cr5   O16   S    
C30   C37   A    
C36   H20   S    
C33   C52   A    
H80   N29   S    
C89   C95   A    
N1    N34   A    
C25   C51   A    
C26   N24   S    
Cr6   O19   S    
C45   C104  S    
C26   C52   A    
C11   H52   S    
C104  N32   A    
C98   N36   A    
C63   C70   A    
C32   O26   A    
C91   H3    S    
C13   N10   A    
C67   C106  S    
H60   N19   S    
C12   N3    A    
C91   C97   A    
C5    H37   S    
C9    H47   S    
C82   C89   A    
C15   C41   A    
C21   C62   S    
C81   C87   S    
C72   C79   A    
C39   C46   A    
C67   C73   A    
Cr1   O1    S    
N8    N15   A    
C64   C97   A    
C22   N19   S    
C22   C48   A    
C3    H31   S    
C16   C23   A    
C38   H22   S    
C59   O17   A    
C24   N21   S    
C3    C108  S    
C2    N2    A    
C65   O4    A    
H66   N22   S    
C75   N27   S    
N2    N31   A    
C32   C60   S    
C74   C81   A    
C57   O15   A    
C57   O10   A    
C18   C45   A    
C16   C42   A    
Cr3   O26   S    
C79   C85   A    
C102  N23   A    
C1    O20   A    
C1    O24   A    
C58   O16   A    
C27   C47   A    
C78   N29   S    
C6    C70   S    
C83   C90   A    
C32   O12   A    
N3    N32   A    
C8    C71   S    
H65   N21   S    
C13   N4    A    
C56   O6    A    
C21   O25   A    
C3    H30   S    
C76   C80   S    
C54   O3    A    
C31   C51   A    
C4    C5    S    
C1    C61   S    
C40   C100  S    
C6    H46   S    
C103  N31   A    
C75   C82   A    
C90   C96   A    
C6    C7    S    
C54   C66   S    
C101  N12   A    
N10   N17   A    
C30   H15   S    
C50   C55   S    
C49   C59   S    
C31   C38   A    
H81   N29   S    
C55   O5    A    
C37   C44   A    
H83   N30   S    
Cr3   O18   S    
C17   C44   A    
C104  N16   A    
Cr2   O25   S    
C47   C58   S    
C27   H11   S    
C46   C105  S    
C102  N14   A    
Cr4   O19   S    
C11   H54   S    
C69   C75   A    
H69   N24   S    
Cr6   O17   S    
N6    N13   A    
Cr5   O3    S    
C73   C80   A    
C9    H49   S    
C4    H39   S    
C107  H25   S    
C9    H48   S    
C35   C41   A    
Cr6   O23   S    
C53   O11   A    
C23   N20   S    
C20   C47   A    
C23   C49   A    
C10   C11   S    
C5    H36   S    
Cr1   O11   S    
C108  H35   S    
C100  N1    A    
C78   C84   A    
C17   H8    S    
C7    H41   S    
C62   C69   A    
C3    H32   S    
C7    H43   S    
H71   N25   S    
Cr1   O5    S    
C13   C85   S    
C105  N33   A    
N5    N11   A    
C25   N22   S    
H62   N20   S    
H77   N28   S    
C68   C108  S    
C51   C53   S    
H58   N18   S    
H75   N27   S    
C71   C78   A    
C52   C56   S    
C92   C99   A    
N4    N33   A    
C10   C72   S    
