data_mof_unit_66629.cif
_audit_creation_date              2012-12-11T16:54:01-0500
_audit_creation_method            fapswitch 2.2
_symmetry_space_group_name_H-M    P1
_symmetry_Int_Tables_number       1
_space_group_crystal_system       triclinic
_cell_length_a                    8.34052
_cell_length_b                    12.690079
_cell_length_c                    16.378512
_cell_angle_alpha                 95.194766
_cell_angle_beta                  92.673042
_cell_angle_gamma                 97.610924
_cell_volume                      1708.18193729

loop_
_atom_site_label
_atom_site_type_symbol
_atom_type_description
_atom_site_fract_x
_atom_site_fract_y
_atom_site_fract_z
_atom_type_partial_charge
Ba1   Ba    Ba6+2 0.162890 0.552530 0.460820 1.713916
Ba2   Ba    Ba6+2 0.647290 0.447460 0.539110 1.748517
C1    C     C_3   0.314431 0.789408 0.129303 0.265325
C2    C     C_R   0.738540 0.817956 0.481691 -0.347753
C3    C     C_R   0.713331 0.991600 0.437994 0.577626
C4    C     C_3   0.881970 0.817951 0.212195 0.897251
C5    C     C_R   0.659378 0.881723 0.435070 0.022287
C6    C     C_R   0.884980 0.854704 0.522102 0.037570
C7    C     C_R   0.941098 0.967341 0.531718 -0.085615
C8    C     C_R   0.851526 0.038756 0.490119 -0.052945
C9    C     C_R   0.916542 0.150867 0.494088 0.138287
C10   C     C_R   0.154620 0.116633 0.574811 0.041079
C11   C     C_R   0.088447 0.009194 0.576061 -0.044996
C12   C     C_3   0.387239 0.755388 0.208915 0.393579
C13   C     C_R   0.628615 0.525958 0.264624 -0.233327
C14   C     C_R   0.469952 0.482897 0.241127 0.041653
C15   C     C_R   0.415349 0.472210 0.157989 -0.194884
C16   C     C_3   0.932171 0.919906 0.171775 -0.137851
C17   C     C_R   0.521243 0.507094 0.097998 0.249448
C18   C     C_R   0.681930 0.550504 0.123354 -0.053862
C19   C     C_R   0.734135 0.561298 0.206859 0.049353
C20   C     C_R   0.384992 0.516254 0.851292 0.603028
C21   C     C_R   0.331553 0.514555 0.768882 -0.053289
C22   C     C_R   0.281557 0.467127 0.907602 0.199236
C23   C     C_3   0.545583 0.775489 0.652351 0.344335
C24   C     C_R   0.178406 0.463425 0.740876 -0.401237
C25   C     C_R   0.071951 0.419287 0.795329 0.024147
C26   C     C_R   0.123454 0.420624 0.878607 -0.089364
C27   C     C_3   0.760550 0.305361 0.291038 0.315391
C28   C     C_3   0.731476 0.269495 0.199718 -0.329428
C29   C     C_3   0.992986 0.699894 0.720574 0.166226
C30   C     C_3   0.940936 0.752772 0.802028 0.879533
C31   C     C_3   0.287930 0.212800 0.341593 0.233261
C32   C     C_3   0.300044 0.100624 0.301037 0.335420
C33   C     C_3   0.526580 0.893320 0.661418 -0.288919
C34   C     C_3   0.895889 0.162873 0.743166 0.362864
C35   C     C_3   0.896381 0.063488 0.789442 0.404556
C36   C     C_3   0.408265 0.214923 0.765913 0.265815
C37   C     C_3   0.438230 0.179975 0.850999 -0.221213
C38   C     C_R   0.065668 0.186488 0.537205 -0.261735
F1    F     F_    0.775162 0.750807 0.799838 -0.647038
F2    F     F_    0.639509 0.047439 0.384937 -0.695401
F3    F     F_    0.533185 0.570535 0.876225 -0.576921
F4    F     F_    0.734932 0.773765 0.175212 -0.705427
H1    H     H_    0.288389 0.710461 0.239683 0.027129
H2    H     H_    0.234594 0.849881 0.144408 0.054510
H3    H     H_    0.245827 0.092051 0.237231 0.019780
H4    H     H_    0.428194 0.088011 0.297320 0.108086
H5    H     H_    0.473577 0.699351 0.192930 0.071611
H6    H     H_    0.241373 0.718717 0.094338 0.034895
H7    H     H_    0.676273 0.767315 0.652463 0.006059
H8    H     H_    0.484998 0.740913 0.592216 0.004404
H9    H     H_    0.548746 0.926273 0.726479 0.168162
H10   H     H_    0.612336 0.938520 0.623159 0.023792
H11   H     H_    0.401293 0.903272 0.641561 0.119230
H12   H     H_    0.636990 0.198421 0.190100 0.133727
H13   H     H_    0.918181 0.904113 0.103938 0.181023
H14   H     H_    0.840191 0.138120 0.680205 -0.070298
H15   H     H_    0.023428 0.197774 0.738052 -0.110235
H16   H     H_    0.772738 0.019195 0.786625 0.028286
H17   H     H_    0.977001 0.010897 0.759190 -0.086731
H18   H     H_    0.285226 0.238299 0.761418 -0.030458
H19   H     H_    0.497807 0.285344 0.758071 0.091232
H20   H     H_    0.426141 0.246169 0.898533 0.100509
H21   H     H_    0.561557 0.157571 0.857772 0.188104
H22   H     H_    0.871869 0.839941 0.278625 0.045363
H23   H     H_    0.690137 0.334021 0.166433 0.042565
H24   H     H_    0.349948 0.109162 0.860205 0.187865
H25   H     H_    0.158981 0.957348 0.606353 0.090540
H26   H     H_    0.118972 0.268948 0.536843 0.039742
H27   H     H_    0.692396 0.733671 0.479013 0.097042
H28   H     H_    0.764750 0.578457 0.078467 0.148728
H29   H     H_    0.293005 0.434452 0.140465 0.139860
H30   H     H_    0.039720 0.387333 0.921135 0.155843
H31   H     H_    0.671581 0.530816 0.328454 0.077572
H32   H     H_    0.138456 0.463304 0.677016 0.087621
H33   H     H_    0.855394 0.981307 0.191904 0.134748
H34   H     H_    0.845376 0.248627 0.173984 0.127962
H35   H     H_    0.058790 0.953260 0.189068 0.077242
H36   H     H_    0.645522 0.324954 0.315422 -0.012339
H37   H     H_    0.854834 0.376660 0.299553 0.021660
H38   H     H_    0.972137 0.731363 0.021186 0.353422
H39   H     H_    0.147187 0.832314 0.353023 0.354929
H40   H     H_    0.501016 0.000132 0.135287 0.320384
H41   H     H_    0.850069 0.134183 0.008231 0.364879
H42   H     H_    0.107807 0.667072 0.731286 -0.017333
H43   H     H_    0.899642 0.634570 0.693979 0.069854
H44   H     H_    0.996868 0.837652 0.810362 0.048715
H45   H     H_    0.163601 0.219249 0.361148 0.036738
H46   H     H_    0.376072 0.232323 0.395308 0.062409
N1    N     N_2   0.473021 0.501284 0.012636 -0.110041
N2    N     N_2   0.326755 0.468521 0.993401 -0.209132
O1    O     O_2   0.158840 0.763480 0.539220 -0.475295
O2    O     O_2   0.738016 0.429150 0.790478 -0.401783
O3    O     O_3   0.804836 0.234929 0.783741 -0.586541
O4    O     O_3   0.888900 0.629060 0.541050 -0.499666
O5    O     O_3   0.432390 0.444990 0.403690 -0.501399
O6    O     O_2   0.627510 0.552390 0.696520 -0.432248
O7    O     O_3   0.477028 0.727358 0.718936 -0.531372
O8    O     O_2   0.486113 0.112581 0.553227 -0.431277
O9    O     O_3   0.425148 0.130281 0.707034 -0.613442
O10   O     O_3   0.391330 0.697380 0.393380 -0.484411
O11   O     O_2   0.639440 0.733551 0.324808 -0.549584
O12   O     O_3   0.321624 0.280008 0.280666 -0.679288
O13   O     O_3   0.023058 0.781966 0.669430 -0.677425
O14   O     O_3   0.460873 0.845080 0.261472 -0.512178
O15   O     O_2   0.182780 0.447540 0.303450 -0.451531
O16   O     O_3   0.969510 0.643060 0.352850 -0.482469
O17   O     O_2   0.058953 0.555370 0.209532 -0.508849
O18   O     O_2   0.908924 0.587573 0.895008 -0.281867
O19   O     O_2   0.181446 0.689091 0.892743 -0.329112
O20   O     O_3   0.965661 0.775424 0.974539 -0.417482
O21   O     O_2   0.272181 0.007064 0.438949 -0.344815
O22   O     O_2   0.022608 0.025745 0.356653 -0.402326
O23   O     O_3   0.996569 0.746823 0.200561 -0.660448
O24   O     O_3   0.187616 0.878612 0.310764 -0.561386
O25   O     O_2   0.562663 0.764607 0.032518 -0.134980
O26   O     O_2   0.372555 0.883760 0.991646 -0.193571
O27   O     O_3   0.577488 0.951862 0.114762 -0.475184
O28   O     O_2   0.028080 0.999758 0.926637 -0.226211
O29   O     O_2   0.093899 0.188677 0.905808 -0.367059
O30   O     O_3   0.806192 0.122789 0.950380 -0.486034
O31   O     O_2   0.651450 0.236450 0.460750 -0.434165
O32   O     O_3   0.921400 0.370930 0.458880 -0.523266
O33   O     O_3   0.418970 0.302610 0.606550 -0.504250
O34   O     O_3   0.812470 0.221505 0.329961 -0.560699
O35   O     O_3   0.377910 0.555000 0.596240 -0.507220
O36   O     O_3   0.840790 0.356930 0.647080 -0.507679
P1    P     P_3+3 0.983580 0.746680 0.563420 0.973546
P2    P     P_3+3 0.350740 0.415080 0.315970 0.982236
P3    P     P_3+3 0.937102 0.626850 0.244053 0.990441
P4    P     P_3+3 0.826720 0.253310 0.436510 1.072024
P5    P     P_3+3 0.865145 0.362723 0.754546 1.032114
P6    P     P_3+3 0.515066 0.803881 0.357829 1.063307
P7    P     P_3+3 0.453592 0.588458 0.697637 1.114740
P8    P     P_3+3 0.369254 0.164867 0.609756 0.977787
S1    S     S_3+6 0.003195 0.696075 0.891885 -0.004938
S2    S     S_3+6 0.193104 0.002242 0.354826 -0.169188
S3    S     S_3+6 0.459980 0.846577 0.063685 0.060083
S4    S     S_3+6 0.963105 0.094476 0.895513 -0.043797

loop_
_geom_bond_atom_site_label_1
_geom_bond_atom_site_label_2
_ccdc_geom_bond_type
C13   H31   S    
C3    F2    S    
O31   P4    D    
C33   H9    S    
C31   O12   S    
C29   O13   S    
C37   H24   S    
C17   C18   A    
C2    C6    A    
C34   H15   S    
C26   H30   S    
C9    P4    S    
O10   P6    S    
O23   P3    S    
Ba2   O31   S    
C37   H20   S    
C24   C25   A    
C4    H22   S    
C38   H26   S    
O29   S4    D    
C34   C35   S    
O11   P6    D    
O35   P7    S    
O5    P2    S    
C36   O9    S    
C34   H14   S    
C2    C5    A    
C36   C37   S    
C12   H5    S    
C13   C14   A    
C30   H44   S    
O3    P5    S    
O2    P5    D    
O32   P4    S    
Ba1   Ba2   S    
C21   C24   A    
C7    C11   A    
C19   P3    S    
O16   P3    S    
C23   O7    S    
C29   C30   S    
Ba2   O5    S    
C6    C7    A    
C35   S4    S    
O17   P3    D    
Ba2   P4    S    
C30   F1    S    
O28   S4    D    
C14   P2    S    
C7    C8    A    
C28   H23   S    
Ba2   O35   S    
C29   H42   S    
C4    F4    S    
C27   O34   S    
C33   H10   S    
C15   H29   S    
C37   H21   S    
O25   S3    D    
O15   P2    D    
O1    P1    D    
C22   N2    S    
C1    H6    S    
C12   H1    S    
O24   S2    S    
C4    C16   S    
C29   H43   S    
C33   H11   S    
C25   P5    S    
C22   C26   A    
H39   O24   S    
C5    P6    S    
Ba1   P2    S    
Ba1   O5    S    
N1    N2    D    
C3    C5    A    
H40   O27   S    
C16   H35   S    
O13   P1    S    
C28   H12   S    
O6    P7    D    
C32   S2    S    
H38   O20   S    
C10   C38   A    
C23   H7    S    
C27   H37   S    
C27   C28   S    
C31   H45   S    
C16   H13   S    
C24   H32   S    
C20   F3    S    
O34   P4    S    
C31   C32   S    
O7    P7    S    
H41   O30   S    
C18   C19   A    
C1    C12   S    
Ba1   O15   S    
O33   P8    S    
C30   S1    S    
C23   C33   S    
C20   C22   A    
C13   C19   A    
C32   H4    S    
O26   S3    D    
C25   C26   A    
O19   S1    D    
C36   H19   S    
O9    P8    S    
O21   S2    D    
O20   S1    S    
O18   S1    D    
Ba1   O35   S    
C35   H17   S    
Ba2   O32   S    
C1    H2    S    
Ba1   P1    S    
C21   P7    S    
O27   S3    S    
Ba2   O4    S    
C23   H8    S    
O30   S4    S    
C3    C8    A    
C31   H46   S    
C34   O3    S    
C14   C15   A    
C27   H36   S    
C11   H25   S    
Ba1   O4    S    
C15   C17   A    
O22   S2    D    
C16   H33   S    
C9    C38   A    
C4    O23   S    
Ba1   O32   S    
C35   H16   S    
C17   N1    S    
C8    C9    A    
Ba1   O16   S    
C28   H34   S    
Ba2   O33   S    
O14   P6    S    
C1    S3    S    
C10   C11   A    
Ba2   O6    S    
Ba1   O1    S    
C10   P8    S    
C12   O14   S    
C6    P1    S    
C20   C21   A    
C18   H28   S    
O12   P2    S    
C32   H3    S    
O36   P5    S    
Ba1   O10   S    
C2    H27   S    
O8    P8    D    
O4    P1    S    
C36   H18   S    
Ba2   O36   S    
