data_mof_unit_49760.cif
_audit_creation_date              2012-10-26T21:13:42-0400
_audit_creation_method            fapswitch 2.2
_symmetry_space_group_name_H-M    P1
_symmetry_Int_Tables_number       1
_space_group_crystal_system       triclinic
_cell_length_a                    9.064166
_cell_length_b                    10.801683
_cell_length_c                    9.594807
_cell_angle_alpha                 89.927139
_cell_angle_beta                  89.710738
_cell_angle_gamma                 90.686686
_cell_volume                      939.3304696

loop_
_atom_site_label
_atom_site_type_symbol
_atom_type_description
_atom_site_fract_x
_atom_site_fract_y
_atom_site_fract_z
_atom_type_partial_charge
C1    C     C_R   0.496273 0.262758 0.500020 0.583435
C2    C     C_R   0.619218 0.544387 0.925512 0.059801
C3    C     C_3   0.686759 0.670614 0.914936 -0.129690
C4    C     C_R   0.220840 0.500025 0.500181 0.573879
C5    C     C_3   0.682096 0.674515 0.074729 0.416262
C6    C     C_R   0.498875 0.737335 0.499916 0.600628
C7    C     C_R   0.779141 0.500361 0.499798 0.568165
C8    C     C_1   0.065596 0.500267 0.500230 0.030880
C9    C     C_1   0.934379 0.500408 0.499648 0.033230
C10   C     C_R   0.565083 0.064821 0.600949 -0.059942
C11   C     C_R   0.485904 0.129469 0.501343 0.030329
C12   C     C_R   0.392641 0.932536 0.410125 0.235733
C13   C     C_R   0.394814 0.064372 0.406828 0.218873
C14   C     C_1   0.823426 0.875629 0.541041 0.231319
C15   C     C_1   0.818731 0.138843 0.540728 0.218486
C16   C     C_1   0.836199 0.666416 0.854189 0.230396
C17   C     C_R   0.489570 0.870574 0.500542 0.042630
C18   C     C_R   0.567369 0.937838 0.600511 -0.071490
C19   C     C_3   0.725907 0.934348 0.645067 -0.135802
C20   C     C_3   0.723206 0.076379 0.645235 -0.127825
C21   C     C_R   0.618245 0.545678 0.072651 0.212372
C22   C     C_R   0.389570 0.445023 0.076209 0.060727
C23   C     C_R   0.389574 0.442791 0.928540 0.338318
Cu1   Cu    Cu3+1 0.499990 0.499980 0.640670 0.991639
Cu2   Cu    Cu3+1 0.500010 0.500020 0.359330 1.087758
H1    H     H_    0.613279 0.737866 0.863242 0.109320
H2    H     H_    0.739581 0.896103 0.751263 0.114969
H3    H     H_    0.733895 0.117115 0.751083 0.133991
H4    H     H_    0.299768 0.401047 0.132961 0.178292
H5    H     H_    0.298728 0.079999 0.227201 0.340280
H6    H     H_    0.857849 0.764386 0.130108 0.353530
H7    H     H_    0.488328 0.753842 0.083752 0.325061
H8    H     H_    0.208390 0.911521 0.309994 0.344092
H9    H     H_    0.312697 0.339171 0.784036 0.366655
N1    N     N_R   0.500920 0.500930 0.147930 -0.291273
N2    N     N_R   0.500930 0.500890 0.852020 -0.261412
N3    N     N_1   0.899708 0.829510 0.459683 -0.249953
N4    N     N_1   0.893579 0.187563 0.458858 -0.266283
N5    N     N_1   0.953720 0.663360 0.806699 -0.251572
O1    O     O_R   0.500000 0.319640 0.618810 -0.545523
O2    O     O_3   0.820499 0.678041 0.139704 -0.630010
O3    O     O_3   0.586216 0.764648 0.128534 -0.641458
O4    O     O_3   0.297975 0.862757 0.328597 -0.672489
O5    O     O_3   0.273564 0.381908 0.866506 -0.676536
O6    O     O_R   0.500020 0.319680 0.381230 -0.460782
O7    O     O_R   0.288380 0.499980 0.618770 -0.478242
O8    O     O_R   0.288400 0.500020 0.381190 -0.497216
O9    O     O_R   0.499980 0.680320 0.618770 -0.529489
O10   O     O_R   0.500000 0.680360 0.381190 -0.402428
O11   O     O_R   0.711600 0.499980 0.618810 -0.506661
O12   O     O_R   0.711620 0.500020 0.381230 -0.460661
O13   O     O_3   0.313829 0.131049 0.311661 -0.684313

loop_
_geom_bond_atom_site_label_1
_geom_bond_atom_site_label_2
_ccdc_geom_bond_type
C12   C17   A    
C8    C9    T    
C5    O3    S    
Cu2   O12   S    
C15   N4    T    
C21   N1    A    
C22   H4    S    
C13   O13   S    
C19   H2    S    
Cu2   O8    S    
C20   H3    S    
C19   C20   S    
C1    C11   S    
C4    C8    S    
Cu1   O7    S    
C2    C21   A    
C17   C18   A    
C7    O12   A    
C4    O7    A    
C12   C13   A    
C14   N3    T    
C22   N1    A    
C11   C13   A    
C1    O6    A    
Cu1   N2    S    
C6    O9    A    
C10   C18   A    
Cu1   O1    S    
Cu2   N1    S    
C2    C3    S    
C12   O4    S    
C6    O10   A    
Cu1   O11   S    
C15   C20   S    
Cu2   O10   S    
C10   C11   A    
C3    C16   S    
C16   N5    T    
Cu1   O9    S    
Cu2   O6    S    
H9    O5    S    
Cu1   Cu2   S    
C23   N2    A    
C2    N2    A    
C7    C9    S    
C6    C17   S    
H7    O3    S    
C22   C23   A    
C18   C19   S    
C5    O2    S    
H6    O2    S    
C1    O1    A    
C14   C19   S    
C4    O8    A    
C3    H1    S    
C23   O5    S    
C7    O11   A    
C10   C20   S    
H5    O13   S    
C3    C5    S    
C5    C21   S    
H8    O4    S    
