data_mof_unit_30701.cif
_audit_creation_date              2012-12-11T15:15:37-0500
_audit_creation_method            fapswitch 2.2
_symmetry_space_group_name_H-M    P1
_symmetry_Int_Tables_number       1
_space_group_crystal_system       triclinic
_cell_length_a                    20.71595
_cell_length_b                    22.713543
_cell_length_c                    6.939153
_cell_angle_alpha                 90.001519
_cell_angle_beta                  86.813461
_cell_angle_gamma                 89.999965
_cell_volume                      3260.04952131

loop_
_atom_site_label
_atom_site_type_symbol
_atom_type_description
_atom_site_fract_x
_atom_site_fract_y
_atom_site_fract_z
_atom_type_partial_charge
O1    O     O_R   0.387100 0.552640 0.378490 -0.536272
O2    O     O_R   0.612900 0.052640 0.621510 -0.536279
O3    O     O_R   0.249610 0.559600 0.072250 -0.546697
O4    O     O_R   0.750390 0.059600 0.927750 -0.546695
O5    O     O_R   0.249120 0.447360 0.902040 -0.544231
O6    O     O_R   0.750880 0.947360 0.097960 -0.544223
C1    C     C_R   0.227027 0.573353 0.244596 0.684666
C2    C     C_R   0.772974 0.073352 0.755406 0.684677
O7    O     O_R   0.386610 0.559560 0.048860 -0.537541
O8    O     O_R   0.613390 0.059560 0.951140 -0.537545
O9    O     O_R   0.387100 0.447320 0.878470 -0.536334
O10   O     O_R   0.612900 0.947320 0.121530 -0.536339
C3    C     C_R   0.407919 0.574690 0.214177 0.711977
C4    C     C_R   0.592078 0.074686 0.785829 0.711985
O11   O     O_R   0.249120 0.552680 0.402050 -0.544340
O12   O     O_R   0.750880 0.052680 0.597950 -0.544347
O13   O     O_3   0.318110 0.463180 0.223790 -0.369275
O14   O     O_3   0.681890 0.963180 0.776210 -0.369271
V1    V     V_3+5 0.318110 0.506830 0.948930 1.416608
V2    V     V_3+5 0.681890 0.006830 0.051070 1.416587
O15   O     O_R   0.386610 0.440400 0.548840 -0.537804
O16   O     O_R   0.613390 0.940400 0.451160 -0.537805
C5    C     C_R   0.407779 0.425133 0.714238 0.722727
C6    C     C_R   0.592222 0.925133 0.285757 0.722720
O17   O     O_R   0.249610 0.440440 0.572240 -0.547137
O18   O     O_R   0.750390 0.940440 0.427760 -0.547135
C7    C     C_R   0.226833 0.426889 0.744564 0.687338
C8    C     C_R   0.773166 0.926889 0.255432 0.687335
V3    V     V_3+5 0.318110 0.493170 0.448930 1.416160
V4    V     V_3+5 0.681890 0.993170 0.551070 1.416140
O19   O     O_3   0.318110 0.536820 0.723940 -0.369751
O20   O     O_3   0.681890 0.036820 0.276060 -0.369756
C9    C     C_R   0.171862 0.385495 0.762056 -0.048423
C10   C     C_R   0.828132 0.885490 0.237928 -0.048412
C11   C     C_R   0.142066 0.366096 0.596461 -0.178358
C12   C     C_R   0.858033 0.866205 0.403477 -0.178345
C13   C     C_R   0.088912 0.328458 0.612607 -0.122234
C14   C     C_R   0.911180 0.828558 0.387305 -0.122243
C15   C     C_R   0.064826 0.308886 0.795020 0.169092
C16   C     C_R   0.935151 0.808862 0.204918 0.169079
C17   C     C_R   0.094195 0.328612 0.960411 -0.146970
C18   C     C_R   0.905678 0.828475 0.039568 -0.146959
C19   C     C_R   0.147318 0.366386 0.944371 -0.169243
C20   C     C_R   0.852564 0.866260 0.055633 -0.169267
C21   C     C_R   0.909724 0.173191 0.887053 -0.121596
C22   C     C_R   0.090212 0.673120 0.112996 -0.121577
C23   C     C_R   0.857040 0.135011 0.903341 -0.175973
C24   C     C_R   0.142888 0.634931 0.096698 -0.175948
C25   C     C_R   0.851601 0.134703 0.555485 -0.167711
C26   C     C_R   0.148487 0.634800 0.444504 -0.167713
C27   C     C_R   0.904258 0.173004 0.539298 -0.144842
C28   C     C_R   0.095840 0.673113 0.460700 -0.144815
C29   C     C_R   0.933521 0.192962 0.704576 0.169285
C30   C     C_R   0.066502 0.692988 0.295449 0.169281
C31   C     C_2   0.008165 0.269397 0.819236 -0.198305
C32   C     C_2   0.991797 0.769356 0.180672 -0.198250
C33   C     C_2   0.989961 0.232697 0.680114 -0.198636
C34   C     C_2   0.010077 0.732742 0.319930 -0.198585
C35   C     C_R   0.827448 0.115269 0.737827 -0.048896
C36   C     C_R   0.172557 0.615274 0.262182 -0.048892
H1    H     H_    0.159134 0.380667 0.454031 0.122572
H2    H     H_    0.841056 0.880876 0.545880 0.122569
H3    H     H_    0.840205 0.120276 0.045799 0.122955
H4    H     H_    0.159656 0.620120 0.954264 0.122949
H5    H     H_    0.830070 0.120170 0.425015 0.123998
H6    H     H_    0.170082 0.620336 0.574949 0.124017
H7    H     H_    0.016720 0.231701 0.541293 0.122450
H8    H     H_    0.983394 0.731836 0.458879 0.122407
H9    H     H_    0.076137 0.314517 0.102518 0.097529
H10   H     H_    0.923645 0.814281 0.897478 0.097528
H11   H     H_    0.932373 0.185744 0.017517 0.097286
H12   H     H_    0.067503 0.685604 0.982568 0.097288
H13   H     H_    0.168928 0.380742 0.074919 0.123312
H14   H     H_    0.830868 0.880523 0.925120 0.123330
H15   H     H_    0.981404 0.270389 0.958056 0.123557
H16   H     H_    0.018479 0.770260 0.041718 0.123520
H17   H     H_    0.066188 0.316116 0.482058 0.097630
H18   H     H_    0.933989 0.816307 0.517799 0.097662
H19   H     H_    0.922086 0.187268 0.397151 0.097755
H20   H     H_    0.078080 0.687452 0.602832 0.097760
C37   C     C_R   0.576724 0.362352 0.682367 0.468557
C38   C     C_R   0.423260 0.862374 0.317254 0.468570
H21   H     H_    0.533869 0.448072 0.654433 0.122606
H22   H     H_    0.466145 0.948087 0.345391 0.122389
H23   H     H_    0.666700 0.277720 0.680187 0.169426
H24   H     H_    0.333283 0.777748 0.319218 0.169551
C39   C     C_R   0.461349 0.382003 0.714008 -0.103612
C40   C     C_R   0.538650 0.882006 0.285957 -0.103464
C41   C     C_R   0.473436 0.093787 0.817229 0.152101
C42   C     C_R   0.526564 0.593783 0.183020 0.152052
C43   C     C_R   0.420608 0.132129 0.821368 -0.115941
C44   C     C_R   0.579394 0.632121 0.178972 -0.115874
C45   C     C_R   0.429041 0.192535 0.796667 -0.203821
C46   C     C_R   0.570960 0.692531 0.203568 -0.203799
C47   C     C_R   0.491208 0.217450 0.766040 0.106759
C48   C     C_R   0.508788 0.717454 0.233983 0.106758
C49   C     C_R   0.545642 0.178388 0.760703 0.036116
C50   C     C_R   0.454351 0.678397 0.239205 0.036111
C51   C     C_R   0.501000 0.279794 0.740156 0.030454
C52   C     C_R   0.498995 0.779802 0.259776 0.030369
C53   C     C_R   0.565212 0.301399 0.708260 0.035702
C54   C     C_R   0.434778 0.801417 0.291461 0.035817
C55   C     C_R   0.617499 0.262065 0.703697 -0.161309
C56   C     C_R   0.382488 0.762088 0.295888 -0.160919
C57   C     C_R   0.608001 0.201955 0.729596 -0.202782
C58   C     C_R   0.391988 0.701972 0.270089 -0.202907
C59   C     C_R   0.449489 0.321601 0.744296 -0.223579
C60   C     C_R   0.550510 0.821603 0.255738 -0.223584
C61   C     C_R   0.524679 0.401714 0.680937 -0.250983
C62   C     C_R   0.475317 0.901729 0.318852 -0.251171
C63   C     C_R   0.536636 0.116456 0.787028 -0.101763
C64   C     C_R   0.463359 0.616460 0.213004 -0.101741
H25   H     H_    0.399643 0.308819 0.769043 0.106756
H26   H     H_    0.600358 0.808814 0.231117 0.106748
H27   H     H_    0.385529 0.218532 0.802021 0.118237
H28   H     H_    0.614474 0.718524 0.198309 0.118240
H29   H     H_    0.371904 0.115166 0.844266 0.123015
H30   H     H_    0.628102 0.615152 0.156237 0.123053
H31   H     H_    0.650368 0.173960 0.724731 0.108737
H32   H     H_    0.349618 0.673982 0.274855 0.108735
O21   O     O_3   0.639027 0.383027 0.645332 -0.557345
C65   C     C_3   0.658994 0.412298 0.811110 -0.262967
H33   H     H_    0.710651 0.424488 0.786766 0.170978
H34   H     H_    0.654895 0.383304 0.940734 0.143710
H35   H     H_    0.631245 0.453675 0.838000 0.140924
O22   O     O_3   0.360932 0.883027 0.354107 -0.557360
C66   C     C_3   0.341205 0.912808 0.188992 -0.262890
H36   H     H_    0.289434 0.924675 0.212681 0.170955
H37   H     H_    0.345802 0.884326 0.058200 0.143688
H38   H     H_    0.368741 0.954407 0.164455 0.140952
C67   C     C_3   0.461612 0.028657 0.844592 -0.781126
H39   H     H_    0.409233 0.018346 0.863587 0.199804
H40   H     H_    0.481617 0.004163 0.716238 0.209132
H41   H     H_    0.485324 0.012998 0.974783 0.205564
C68   C     C_3   0.538390 0.528648 0.155791 -0.780895
H42   H     H_    0.590771 0.518331 0.136965 0.199863
H43   H     H_    0.518343 0.504175 0.284131 0.209119
H44   H     H_    0.514720 0.512970 0.025548 0.205522

loop_
_geom_bond_atom_site_label_1
_geom_bond_atom_site_label_2
_ccdc_geom_bond_type
C19   H13   S    
C68   H44   S    
V4    O20   S    
O22   C66   S    
C32   H16   S    
C21   H11   S    
O13   V3    S    
C42   C64   A    
O4    C2    A    
C67   H41   S    
V1    O19   S    
C56   C58   A    
C68   H42   S    
C15   C17   A    
C37   C53   A    
C7    C9    S    
O9    V1    S    
C25   H5    S    
C38   C62   A    
C11   C13   A    
C3    C64   S    
O3    C1    A    
C2    C35   S    
C23   H3    S    
C49   C63   A    
C47   C51   A    
C24   H4    S    
O12   V4    S    
C18   H10   S    
C45   H27   S    
C60   H26   S    
C44   H30   S    
C59   H25   S    
O7    C3    A    
C9    C11   A    
O5    C7    A    
O7    V1    S    
O6    C8    A    
O8    V2    S    
C25   C27   A    
C48   C50   A    
C26   C28   A    
H21   C61   S    
O3    V1    S    
O14   V4    S    
C41   C43   A    
C22   H12   S    
C40   C62   A    
H23   C55   S    
C25   C35   A    
C24   C36   A    
C31   H15   S    
C16   C18   A    
C21   C29   A    
C2    O12   A    
C5    C39   S    
C17   C19   A    
O10   V2    S    
C18   C20   A    
C33   H7    S    
C12   H2    S    
O1    V3    S    
C28   C30   A    
O11   V3    S    
C21   C23   A    
O17   V3    S    
C4    C63   S    
C13   C15   A    
C22   C24   A    
C52   C60   A    
C23   C35   A    
C50   C64   A    
C9    C19   A    
C10   C20   A    
C11   H1    S    
O8    C4    A    
C46   H28   S    
C1    O11   A    
C14   H18   S    
C16   C32   S    
C13   H17   S    
H22   C62   S    
C37   O21   S    
C27   C29   A    
C46   C48   A    
C66   H37   S    
C43   C45   A    
C6    C40   S    
C42   C44   A    
C22   C30   A    
C44   C46   A    
C38   C54   A    
C55   C57   A    
C20   H14   S    
C26   H6    S    
O21   C65   S    
O5    V1    S    
C34   H8    S    
C51   C53   A    
C37   C61   A    
C43   H29   S    
O18   V4    S    
C31   C33   D    
O17   C7    A    
C30   C34   S    
O16   C6    A    
O1    C3    A    
C65   H34   S    
C66   H36   S    
C1    C36   S    
C51   C59   A    
C17   H9    S    
C52   C54   A    
V2    O20   S    
C68   H43   S    
C41   C63   A    
C29   C33   S    
O16   V4    S    
C58   H32   S    
C67   H40   S    
C41   C67   S    
H24   C56   S    
C47   C49   A    
C39   C61   A    
C15   C31   S    
O6    V2    S    
O10   C6    A    
O18   C8    A    
C50   C58   A    
C54   C56   A    
O2    V4    S    
C26   C36   A    
C65   H35   S    
O15   C5    A    
C66   H38   S    
C49   C57   A    
V3    O19   S    
C12   C14   A    
C14   C16   A    
C42   C68   S    
C45   C47   A    
O15   V3    S    
C40   C60   A    
C48   C52   A    
O9    C5    A    
O13   V1    S    
C10   C12   A    
C32   C34   D    
O14   V2    S    
O2    C4    A    
C27   H19   S    
C8    C10   S    
O4    V2    S    
C39   C59   A    
C53   C55   A    
C57   H31   S    
C65   H33   S    
C28   H20   S    
C38   O22   S    
C67   H39   S    
