data_mof_unit_38682.cif
_audit_creation_date              2012-12-10T17:35:45-0500
_audit_creation_method            fapswitch 2.2
_symmetry_space_group_name_H-M    P1
_symmetry_Int_Tables_number       1
_space_group_crystal_system       triclinic
_cell_length_a                    10.493975
_cell_length_b                    12.012229
_cell_length_c                    12.847179
_cell_angle_alpha                 93.584713
_cell_angle_beta                  90.084884
_cell_angle_gamma                 85.87687
_cell_volume                      1612.10519847

loop_
_atom_site_label
_atom_site_type_symbol
_atom_type_description
_atom_site_fract_x
_atom_site_fract_y
_atom_site_fract_z
_atom_type_partial_charge
C1    C     C_R   0.496960 0.522289 0.700422 0.863657
C2    C     C_R   0.503040 0.477711 0.299578 0.863650
C3    C     C_R   0.465543 0.445974 0.867656 -0.290483
C4    C     C_R   0.534463 0.554023 0.132344 -0.290483
C5    C     C_R   0.479071 0.450935 0.974247 0.191118
C6    C     C_R   0.520935 0.549063 0.025752 0.191113
C7    C     C_R   0.364304 0.957523 0.418996 -0.424395
C8    C     C_R   0.635695 0.042477 0.581005 -0.424412
C9    C     C_R   0.380001 0.839928 0.422866 0.625138
C10   C     C_R   0.619998 0.160074 0.577135 0.625153
C11   C     C_R   0.561313 0.856900 0.532253 -0.135067
C12   C     C_R   0.438687 0.143100 0.467747 -0.135067
C13   C     C_R   0.549942 0.974613 0.528644 0.043598
C14   C     C_R   0.450057 0.025387 0.471357 0.043588
C15   C     C_R   0.742710 0.499792 0.500152 0.863228
C16   C     C_R   0.257290 0.500208 0.499847 0.863215
C17   C     C_3   0.968353 0.394325 0.507752 -0.117493
C18   C     C_3   0.031646 0.605675 0.492247 -0.117487
C19   C     C_3   0.045774 0.460572 0.589415 -0.184852
C20   C     C_3   0.954226 0.539428 0.410585 -0.184847
C21   C     C_3   0.122221 0.500928 0.499863 0.032112
C22   C     C_3   0.877779 0.499072 0.500137 0.032110
C23   C     C_3   0.047496 0.434843 0.418184 -0.195258
C24   C     C_3   0.952504 0.565157 0.581815 -0.195254
C25   C     C_R   0.503253 0.463818 0.188122 -0.050095
C26   C     C_R   0.496749 0.536181 0.811878 -0.050117
C27   C     C_R   0.547500 0.641030 0.970060 -0.234164
C28   C     C_R   0.452504 0.358968 0.029940 -0.234158
C29   C     C_R   0.535476 0.634547 0.862604 -0.211389
C30   C     C_R   0.464525 0.365452 0.137396 -0.211393
H1    H     H_    0.087816 0.428585 0.662075 0.132718
H2    H     H_    0.912184 0.571414 0.337924 0.132723
H3    H     H_    0.938547 0.308179 0.514222 0.174658
H4    H     H_    0.061453 0.691821 0.485777 0.174663
H5    H     H_    0.091155 0.382073 0.351702 0.131409
H6    H     H_    0.908845 0.617927 0.648298 0.131411
H7    H     H_    0.567041 0.629114 0.172085 0.148141
H8    H     H_    0.432968 0.370882 0.827914 0.148155
H9    H     H_    0.440104 0.295463 0.180818 0.155879
H10   H     H_    0.559895 0.704537 0.819182 0.155880
H11   H     H_    0.578955 0.716724 0.009286 0.133544
H12   H     H_    0.421049 0.283274 0.990714 0.133544
H13   H     H_    0.363159 0.183192 0.422783 0.147110
H14   H     H_    0.636841 0.816807 0.577217 0.147111
H15   H     H_    0.284676 0.995548 0.376993 0.148898
H16   H     H_    0.715324 0.004451 0.623007 0.148888
N1    N     N_R   0.523490 0.207800 0.519350 -0.134477
N2    N     N_R   0.476510 0.792200 0.480650 -0.134482
O1    O     O_R   0.506270 0.421700 0.658830 -0.606317
O2    O     O_R   0.493730 0.578300 0.341170 -0.606331
O3    O     O_R   0.491200 0.609310 0.646410 -0.629389
O4    O     O_R   0.508800 0.390690 0.353590 -0.629391
O5    O     O_R   0.693580 0.406210 0.506230 -0.568124
O6    O     O_R   0.306420 0.593790 0.493770 -0.568131
O7    O     O_R   0.678510 0.593830 0.493810 -0.639406
O8    O     O_R   0.321490 0.406170 0.506190 -0.639403
Zn1   Zn    Zn3+2 0.510060 0.374730 0.508290 0.968105
Zn2   Zn    Zn3+2 0.489940 0.625270 0.491710 0.968096
O9    O     O_3   0.708823 0.227491 0.622505 -0.595118
C31   C     C_3   0.708199 0.220924 0.731843 0.094208
H17   H     H_    0.753357 0.139218 0.753930 0.122383
H18   H     H_    0.609276 0.232615 0.764118 0.133493
C32   C     C_3   0.785436 0.312854 0.781102 -0.795826
H19   H     H_    0.745077 0.395986 0.758929 0.257880
H20   H     H_    0.782966 0.310835 0.867373 0.204983
H21   H     H_    0.886225 0.300477 0.754017 0.239614
O10   O     O_3   0.291175 0.772513 0.377495 -0.595126
C33   C     C_3   0.291837 0.779055 0.268154 0.094239
H22   H     H_    0.390769 0.767334 0.235901 0.133505
H23   H     H_    0.246713 0.860765 0.246042 0.122365
C34   C     C_3   0.214586 0.687134 0.218896 -0.795813
H24   H     H_    0.113776 0.699568 0.245924 0.239587
H25   H     H_    0.217132 0.689102 0.132622 0.204992
H26   H     H_    0.254878 0.604003 0.241129 0.257886

loop_
_geom_bond_atom_site_label_1
_geom_bond_atom_site_label_2
_ccdc_geom_bond_type
C32   H20   S    
C16   C21   S    
C27   C29   A    
C18   C21   S    
C19   H1    S    
C16   O8    A    
C4    C25   A    
C24   H6    S    
C31   C32   S    
C18   C24   S    
C15   O5    A    
C19   C21   S    
C12   H13   S    
O6    Zn2   S    
C5    C6    A    
O1    Zn1   S    
O8    Zn1   S    
C31   H18   S    
C2    O2    A    
C15   C22   S    
C3    H8    S    
C33   H22   S    
C32   H21   S    
O9    C31   S    
C13   C14   A    
C11   N2    A    
C17   H3    S    
C12   N1    A    
C8    H16   S    
C7    C14   A    
O10   C33   S    
O2    Zn2   S    
C4    C6    A    
C34   H25   S    
O5    Zn1   S    
C31   H17   S    
C15   O7    A    
C9    O10   S    
N1    Zn1   S    
C5    C28   A    
C1    O3    A    
C27   H11   S    
C6    C27   A    
C20   C23   S    
C11   H14   S    
O3    Zn2   S    
C17   C23   S    
C18   H4    S    
C2    O4    A    
C9    N2    A    
C33   H23   S    
C12   C14   A    
C23   H5    S    
C21   C23   S    
C1    C26   S    
C22   C24   S    
C7    H15   S    
C20   H2    S    
C25   C30   A    
C7    C9    A    
C3    C26   A    
C20   C22   S    
C3    C5    A    
C34   H26   S    
N2    Zn2   S    
C17   C22   S    
C28   C30   A    
C19   C24   S    
C34   H24   S    
C11   C13   A    
C33   C34   S    
C29   H10   S    
C28   H12   S    
C17   C19   S    
C30   H9    S    
C10   O9    S    
C2    C25   S    
C18   C20   S    
C16   O6    A    
O4    Zn1   S    
C32   H19   S    
C8    C13   A    
C4    H7    S    
C26   C29   A    
C8    C10   A    
O7    Zn2   S    
C10   N1    A    
C1    O1    A    
