data_mof_unit_33769.cif
_audit_creation_date              2012-12-11T15:48:40-0500
_audit_creation_method            fapswitch 2.2
_symmetry_space_group_name_H-M    P1
_symmetry_Int_Tables_number       1
_space_group_crystal_system       triclinic
_cell_length_a                    10.956081
_cell_length_b                    10.972348
_cell_length_c                    18.786138
_cell_angle_alpha                 90.332666
_cell_angle_beta                  90.17302
_cell_angle_gamma                 60.137441
_cell_volume                      1958.46327804

loop_
_atom_site_label
_atom_site_type_symbol
_atom_type_description
_atom_site_fract_x
_atom_site_fract_y
_atom_site_fract_z
_atom_type_partial_charge
C1    C     C_R   0.239854 0.645426 0.610439 0.540942
C2    C     C_3   0.672245 0.550174 0.800090 -0.252596
C3    C     C_3   0.698182 0.673875 0.812335 0.049906
C4    C     C_3   0.669880 0.647844 0.676334 0.058140
C5    C     C_3   0.814399 0.634951 0.690226 -0.248401
C6    C     C_3   0.658217 0.533375 0.719843 -0.213001
C7    C     C_R   0.682285 0.151948 0.822190 0.016787
C8    C     C_R   0.778754 0.175067 0.784845 -0.007160
C9    C     C_R   0.773159 0.183851 0.710720 0.012986
C10   C     C_R   0.579663 0.139149 0.709462 -0.181006
C11   C     C_R   0.575608 0.145958 0.782608 -0.170846
C12   C     C_R   0.653794 0.622104 0.600938 0.538580
C13   C     C_3   0.934623 0.094578 0.786326 -0.272055
C14   C     C_3   0.929952 0.101949 0.705709 -0.281499
C15   C     C_R   0.675076 0.163311 0.671968 0.015549
C16   C     C_R   0.181151 0.667184 0.835230 0.014056
C17   C     C_R   0.154674 0.575906 0.794342 0.019457
C18   C     C_R   0.163330 0.573543 0.720523 -0.004877
C19   C     C_R   0.214139 0.762781 0.725917 -0.171749
C20   C     C_R   0.213745 0.759338 0.799847 -0.179115
C21   C     C_3   0.228705 0.419578 0.798005 -0.283127
C22   C     C_3   0.235887 0.417591 0.717466 -0.271298
C23   C     C_R   0.630416 0.225410 0.601781 0.536906
C24   C     C_R   0.195534 0.665209 0.684899 0.012490
C25   C     C_R   0.710879 0.707264 0.181746 0.017610
C26   C     C_R   0.811698 0.589657 0.218232 0.017578
C27   C     C_R   0.798148 0.572315 0.289413 0.020162
C28   C     C_R   0.588805 0.798999 0.294822 -0.162326
C29   C     C_R   0.603626 0.816731 0.221703 -0.161712
C30   C     C_3   0.869324 0.436896 0.201988 -0.266926
C31   C     C_3   0.857159 0.417381 0.280479 -0.268154
C32   C     C_R   0.679519 0.670137 0.327437 0.020305
C33   C     C_R   0.649918 0.180313 0.171038 0.018855
C34   C     C_R   0.223117 0.649126 0.400886 0.545501
C35   C     C_R   0.518800 0.243938 0.204090 0.016468
C36   C     C_R   0.511957 0.248931 0.277061 0.050056
C37   C     C_R   0.761209 0.158555 0.286133 -0.180687
C38   C     C_R   0.768871 0.153818 0.212249 -0.163972
C39   C     C_3   0.393627 0.224403 0.197599 -0.277330
C40   C     C_3   0.392156 0.220450 0.278361 -0.264883
C41   C     C_R   0.633123 0.197405 0.319353 0.023478
C42   C     C_R   0.160249 0.662242 0.180075 0.020522
C43   C     C_R   0.229400 0.726204 0.211842 0.023253
C44   C     C_R   0.238742 0.727316 0.284209 0.048610
C45   C     C_R   0.645365 0.625014 0.393826 0.545495
C46   C     C_R   0.133864 0.581106 0.295908 -0.166641
C47   C     C_R   0.123857 0.579311 0.222006 -0.168026
C48   C     C_3   0.209306 0.871835 0.206702 -0.271684
C49   C     C_3   0.214491 0.873457 0.286975 -0.267602
C50   C     C_R   0.183994 0.663109 0.327419 0.026639
C51   C     C_R   0.701966 0.100041 0.895294 0.543332
C52   C     C_R   0.722882 0.687944 0.888346 0.550740
C53   C     C_R   0.119152 0.705541 0.906096 0.540189
C54   C     C_R   0.674588 0.110162 0.102896 0.546918
C55   C     C_R   0.731588 0.716622 0.105576 0.570144
C56   C     C_R   0.614813 0.232127 0.393988 0.545410
C57   C     C_R   0.094870 0.708388 0.111853 0.548208
C58   C     C_3   0.570222 0.809370 0.782587 -0.233866
C59   C     C_3   0.554380 0.794697 0.702249 -0.238265
C60   C     C_3   0.831830 0.647490 0.770527 -0.217295
Cr1   Cr    Cr6+3 0.392960 0.397920 0.502240 1.005555
Cr2   Cr    Cr6+3 0.398340 0.708480 0.501250 1.002089
Cr3   Cr    Cr6+3 0.708670 0.393570 0.496460 1.004352
Cr4   Cr    Cr6+3 0.937650 0.938540 0.007610 0.999298
Cr5   Cr    Cr6+3 0.625330 0.937370 0.994520 0.999049
Cr6   Cr    Cr6+3 0.937940 0.625230 0.001190 1.000336
H1    H     H_    0.586747 0.899583 0.791818 0.143807
H2    H     H_    0.744502 0.428708 0.703340 0.148525
H3    H     H_    0.923382 0.547787 0.788848 0.143328
H4    H     H_    0.900804 0.532047 0.670677 0.132108
H5    H     H_    0.498942 0.126898 0.682358 0.128512
H6    H     H_    0.493179 0.134282 0.807615 0.137531
H7    H     H_    0.973039 0.987717 0.807405 0.174974
H8    H     H_    0.980160 0.155086 0.811339 0.127474
H9    H     H_    0.973995 0.165998 0.683965 0.132228
H10   H     H_    0.967912 0.998541 0.679112 0.145956
H11   H     H_    0.233974 0.839778 0.701143 0.133013
H12   H     H_    0.471898 0.831247 0.810578 0.116440
H13   H     H_    0.228968 0.836167 0.829072 0.129637
H14   H     H_    0.160549 0.379796 0.819141 0.132168
H15   H     H_    0.343805 0.373453 0.696439 0.179481
H16   H     H_    0.170386 0.378574 0.691650 0.123643
H17   H     H_    0.502508 0.880908 0.324464 0.108787
H18   H     H_    0.527198 0.910576 0.195685 0.121758
H19   H     H_    0.979910 0.383082 0.182932 0.127039
H20   H     H_    0.796429 0.416779 0.169155 0.159911
H21   H     H_    0.448489 0.809587 0.691679 0.137558
H22   H     H_    0.960652 0.355147 0.307356 0.129548
H23   H     H_    0.854878 0.131392 0.317058 0.118917
H24   H     H_    0.871123 0.115551 0.188306 0.136242
H25   H     H_    0.413343 0.126186 0.171620 0.150940
H26   H     H_    0.302223 0.318411 0.174684 0.136372
H27   H     H_    0.295975 0.306579 0.302620 0.148985
H28   H     H_    0.099363 0.522415 0.328160 0.120384
H29   H     H_    0.077047 0.522991 0.198191 0.133628
H30   H     H_    0.105513 0.952899 0.186389 0.156665
H31   H     H_    0.562594 0.878083 0.672943 0.112654
H32   H     H_    0.300888 0.871838 0.181375 0.139032
H33   H     H_    0.305776 0.878143 0.308451 0.148447
H34   H     H_    0.111950 0.948586 0.311846 0.128858
H35   H     H_    0.854364 0.734440 0.780841 0.126354
H36   H     H_    0.822744 0.718950 0.661489 0.115847
H37   H     H_    0.760982 0.451461 0.821843 0.131519
H38   H     H_    0.574465 0.569696 0.827871 0.120837
H39   H     H_    0.556393 0.537260 0.708714 0.127854
O1    O     O_R   0.507380 0.255700 0.581440 -0.535788
O2    O     O_R   0.524480 0.695810 0.424040 -0.505098
O3    O     O_R   0.736390 0.504290 0.414790 -0.523150
O4    O     O_R   0.691300 0.277290 0.422170 -0.509945
O5    O     O_3   0.499990 0.499990 0.499980 -0.247353
O6    O     O_R   0.089400 0.825690 0.930570 -0.529341
O7    O     O_R   0.818460 0.054440 0.929850 -0.498568
O8    O     O_R   0.606060 0.077150 0.915510 -0.535554
O9    O     O_R   0.646550 0.806680 0.917570 -0.506359
O10   O     O_R   0.837170 0.593410 0.915250 -0.524775
O11   O     O_R   0.065200 0.635530 0.931570 -0.499860
O12   O     O_R   0.280320 0.527350 0.578930 -0.503470
O13   O     O_R   0.068260 0.828890 0.091840 -0.525924
O14   O     O_R   0.798870 0.057410 0.079340 -0.512913
O15   O     O_R   0.584930 0.080350 0.076780 -0.531509
O16   O     O_R   0.626960 0.809650 0.067060 -0.504745
O17   O     O_R   0.816040 0.596610 0.076510 -0.520850
O18   O     O_R   0.045610 0.638500 0.081060 -0.526687
O19   O     O_3   0.833640 0.833710 0.001100 -0.267082
O20   O     O_R   0.260510 0.739590 0.584590 -0.533700
O21   O     O_R   0.532300 0.695080 0.573820 -0.511489
O22   O     O_R   0.744840 0.503500 0.576370 -0.529989
O23   O     O_R   0.699120 0.276560 0.571960 -0.500410
O24   O     O_R   0.498940 0.256500 0.419860 -0.519198
O25   O     O_R   0.272500 0.528080 0.429150 -0.504248
O26   O     O_R   0.252060 0.740380 0.423010 -0.520485
H40   H     H_    0.332385 0.376941 0.824717 0.143470
H41   H     H_    0.777879 0.385988 0.292518 0.172001
H42   H     H_    0.423436 0.114984 0.299785 0.126208

loop_
_geom_bond_atom_site_label_1
_geom_bond_atom_site_label_2
_ccdc_geom_bond_type
C44   C49   S    
C55   O16   A    
C51   O7    A    
C54   O15   A    
Cr5   O9    S    
C39   H26   S    
C35   C36   A    
C40   H27   S    
C9    C14   S    
C7    C8    A    
C21   H40   S    
C12   O22   A    
C7    C11   A    
C26   C27   A    
C51   O8    A    
Cr4   O14   S    
Cr6   O11   S    
C18   C24   A    
C22   H16   S    
C28   C29   A    
C1    O20   A    
C10   C15   A    
C30   C31   S    
Cr4   O7    S    
C12   O21   A    
Cr4   O13   S    
C4    C59   S    
C32   C45   S    
Cr5   O19   S    
C19   H11   S    
C16   C53   S    
C13   C14   S    
C5    H36   S    
Cr5   O15   S    
C19   C20   A    
C8    C9    A    
Cr2   O5    S    
Cr6   O17   S    
Cr5   O16   S    
C30   H20   S    
C43   C48   S    
C56   O24   A    
C20   H13   S    
C53   O11   A    
Cr1   O24   S    
C3    C60   S    
C53   O6    A    
C15   C23   S    
C55   O17   A    
C21   C22   S    
C28   H17   S    
C37   C41   A    
C36   C41   A    
C2    C6    S    
Cr1   O5    S    
C42   C57   S    
C39   H25   S    
Cr3   O23   S    
C25   C29   A    
C34   C50   S    
Cr6   O10   S    
C27   C31   S    
C22   H15   S    
C28   C32   A    
C29   H18   S    
C4    C6    S    
C39   C40   S    
Cr2   O21   S    
C11   H6    S    
C16   C17   A    
Cr4   O6    S    
Cr2   O2    S    
C25   C26   A    
Cr4   O19   S    
C23   O1    A    
Cr1   O12   S    
C17   C21   S    
C14   H10   S    
Cr3   O4    S    
C35   C39   S    
C43   C44   A    
C3    C58   S    
C41   C56   S    
C37   C38   A    
C57   O18   A    
C46   H28   S    
C36   C40   S    
C16   C20   A    
C17   C18   A    
C1    O12   A    
C30   H19   S    
Cr1   O1    S    
Cr1   O25   S    
C60   H3    S    
C48   C49   S    
C13   H7    S    
C2    H38   S    
C26   C30   S    
C59   H31   S    
Cr6   O19   S    
C4    C12   S    
C42   C43   A    
C60   H35   S    
C56   O4    A    
C52   O10   A    
C44   C50   A    
C33   C54   S    
C46   C50   A    
C46   C47   A    
C31   H22   S    
C48   H30   S    
C5    C60   S    
C27   C32   A    
C18   C22   S    
Cr5   O8    S    
Cr2   O26   S    
C25   C55   S    
C4    C5    S    
C5    H4    S    
C34   O26   A    
Cr2   O20   S    
C3    C52   S    
C45   O3    A    
C52   O9    A    
C48   H32   S    
C38   H24   S    
C33   C38   A    
C37   H23   S    
C14   H9    S    
Cr3   O5    S    
C2    C3    S    
C58   C59   S    
C7    C51   S    
C10   H5    S    
C49   H34   S    
C49   H33   S    
C40   H42   S    
C2    H37   S    
C21   H14   S    
C6    H2    S    
C33   C35   A    
C6    H39   S    
C19   C24   A    
C42   C47   A    
C9    C15   A    
C59   H21   S    
C10   C11   A    
C58   H12   S    
C8    C13   S    
C58   H1    S    
C13   H8    S    
C34   O25   A    
C1    C24   S    
C31   H41   S    
C47   H29   S    
Cr6   O18   S    
C23   O23   A    
Cr3   O3    S    
C54   O14   A    
Cr3   O22   S    
C45   O2    A    
C57   O13   A    
