data_mof_unit_51537.cif
_audit_creation_date              2012-10-26T18:47:58-0400
_audit_creation_method            fapswitch 2.2
_symmetry_space_group_name_H-M    P1
_symmetry_Int_Tables_number       1
_space_group_crystal_system       triclinic
_cell_length_a                    15.851302
_cell_length_b                    8.69331
_cell_length_c                    7.452915
_cell_angle_alpha                 103.005781
_cell_angle_beta                  94.055791
_cell_angle_gamma                 92.181291
_cell_volume                      996.621512561

loop_
_atom_site_label
_atom_site_type_symbol
_atom_type_description
_atom_site_fract_x
_atom_site_fract_y
_atom_site_fract_z
_atom_type_partial_charge
C1    C     C_R   0.497490 0.199742 0.453271 0.546651
C2    C     C_2   0.503715 0.968153 0.572971 -0.154371
C3    C     C_R   0.340325 0.499873 0.502575 0.548563
C4    C     C_R   0.502511 0.800258 0.546729 0.547246
C5    C     C_R   0.659674 0.500125 0.497432 0.550019
C6    C     C_3   0.051200 0.426405 0.660051 -0.161448
C7    C     C_3   0.042253 0.402553 0.315985 -0.235675
C8    C     C_3   0.944401 0.402289 0.311630 -0.270632
C9    C     C_1   0.749179 0.499632 0.492576 -0.005649
C10   C     C_3   0.082951 0.500164 0.504521 0.025218
C11   C     C_3   0.953217 0.425454 0.655477 0.264098
C12   C     C_3   0.917126 0.499790 0.497107 0.076601
C13   C     C_3   0.955749 0.671166 0.527826 -0.198698
C14   C     C_3   0.053617 0.671382 0.533178 -0.220883
C15   C     C_1   0.824797 0.499567 0.492809 -0.019892
C16   C     C_1   0.175222 0.500386 0.507799 -0.075604
C17   C     C_1   0.250824 0.500334 0.507544 -0.029983
C18   C     C_2   0.496288 0.031847 0.427029 -0.155085
Cu1   Cu    Cu3+1 0.509300 0.517380 0.684380 0.971244
Cu2   Cu    Cu3+1 0.490700 0.482620 0.315620 0.963122
F1    F     F_    0.929325 0.508020 0.824372 -0.668624
H1    H     H_    0.927124 0.301268 0.632844 0.116902
H2    H     H_    0.062320 0.278750 0.292118 0.119524
H3    H     H_    0.917513 0.278382 0.285738 0.108779
H4    H     H_    0.919344 0.452985 0.195388 0.190869
H5    H     H_    0.081669 0.743823 0.668355 0.125860
H6    H     H_    0.076021 0.727333 0.423401 0.123494
H7    H     H_    0.936783 0.744824 0.659617 0.169339
H8    H     H_    0.079851 0.494590 0.796878 0.158980
H9    H     H_    0.931203 0.725875 0.414509 0.113639
H10   H     H_    0.489284 0.960286 0.286368 0.135078
H11   H     H_    0.510719 0.039715 0.713632 0.135900
H12   H     H_    0.434948 0.376765 0.948698 0.238925
H13   H     H_    0.565052 0.623235 0.051302 0.242913
H14   H     H_    0.071621 0.303148 0.642435 0.070325
H15   H     H_    0.064120 0.453416 0.201779 0.151019
N1    N     N_2   0.476670 0.456430 0.038530 -0.255676
N2    N     N_2   0.523330 0.543570 0.961470 -0.253042
O1    O     O_R   0.506050 0.286130 0.619770 -0.506052
O2    O     O_R   0.490330 0.256780 0.308370 -0.498183
O3    O     O_R   0.387300 0.514690 0.655770 -0.501609
O4    O     O_R   0.371580 0.485340 0.344370 -0.495015
O5    O     O_R   0.509670 0.743220 0.691630 -0.497905
O6    O     O_R   0.493950 0.713870 0.380230 -0.506581
O7    O     O_R   0.628420 0.514660 0.655630 -0.482662
O8    O     O_R   0.612700 0.485310 0.344230 -0.501041

loop_
_geom_bond_atom_site_label_1
_geom_bond_atom_site_label_2
_ccdc_geom_bond_type
C6    C10   S    
C7    C10   S    
C2    C4    S    
C11   C12   S    
Cu1   O7    S    
C3    O4    A    
C5    C9    S    
N1    N2    D    
Cu2   N1    S    
C4    O5    A    
C14   H6    S    
C2    C18   D    
C7    H15   S    
C11   H1    S    
Cu2   O4    S    
Cu1   Cu2   S    
C12   C15   S    
C8    C12   S    
C9    C15   T    
C7    C8    S    
C13   H7    S    
C10   C16   S    
C13   C14   S    
C14   H5    S    
C8    H4    S    
C1    C18   S    
Cu1   O1    S    
C7    H2    S    
C8    H3    S    
Cu1   O5    S    
C3    C17   S    
C10   C14   S    
Cu2   O2    S    
Cu2   O8    S    
C1    O1    A    
C13   H9    S    
C6    H14   S    
C6    H8    S    
C12   C13   S    
C2    H11   S    
C5    O8    A    
C6    C11   S    
Cu1   N2    S    
C3    O3    A    
C18   H10   S    
C4    O6    A    
C1    O2    A    
Cu2   O6    S    
H13   N2    S    
C5    O7    A    
C11   F1    S    
H12   N1    S    
Cu1   O3    S    
C16   C17   T    
