data_mof_unit_68220.cif
_audit_creation_date              2012-12-11T17:14:02-0500
_audit_creation_method            fapswitch 2.2
_symmetry_space_group_name_H-M    P1
_symmetry_Int_Tables_number       1
_space_group_crystal_system       triclinic
_cell_length_a                    18.336427
_cell_length_b                    7.242308
_cell_length_c                    13.730004
_cell_angle_alpha                 90.000052
_cell_angle_beta                  69.163451
_cell_angle_gamma                 89.999819
_cell_volume                      1704.07091124

loop_
_atom_site_label
_atom_site_type_symbol
_atom_type_description
_atom_site_fract_x
_atom_site_fract_y
_atom_site_fract_z
_atom_type_partial_charge
O1    O     O_R   0.453880 0.506200 0.150010 -0.540003
O2    O     O_R   0.546120 0.006200 0.849990 -0.540004
O3    O     O_R   0.604080 0.177770 0.007280 -0.557117
O4    O     O_R   0.395920 0.677770 0.992720 -0.557112
C1    C     C_R   0.635927 0.344657 0.000769 0.731567
C2    C     C_R   0.364073 0.844657 0.999232 0.731576
O5    O     O_R   0.458010 0.176640 0.159130 -0.551198
O6    O     O_R   0.541990 0.676640 0.840870 -0.551201
O7    O     O_R   0.399010 0.004010 0.002930 -0.533174
O8    O     O_R   0.600990 0.504010 0.997070 -0.533181
C3    C     C_R   0.441111 0.344751 0.199199 0.807326
C4    C     C_R   0.558888 0.844751 0.800801 0.807310
O9    O     O_3   0.480810 0.338440 0.948570 -0.395009
O10   O     O_3   0.519190 0.838440 0.051430 -0.395013
V1    V     V_3+5 0.503560 0.064490 0.009540 1.367274
V2    V     V_3+5 0.496440 0.564490 0.990460 1.367271
C5    C     C_R   0.587660 0.917150 0.519800 0.344560
C6    C     C_R   0.412340 0.417147 0.480201 0.344566
C7    C     C_R   0.596866 0.853252 0.687200 -0.248234
C8    C     C_R   0.403134 0.353251 0.312800 -0.248236
C9    C     C_R   0.968783 0.862491 0.366246 0.327801
C10   C     C_R   0.031217 0.362491 0.633754 0.327801
C11   C     C_R   0.938525 0.851119 0.476360 0.306120
C12   C     C_R   0.061476 0.351114 0.523641 0.306125
C13   C     C_R   0.857920 0.818059 0.528069 -0.294236
C14   C     C_R   0.142080 0.318047 0.471932 -0.294239
C15   C     C_R   0.802353 0.835631 0.477875 0.088996
C16   C     C_R   0.197647 0.335625 0.522127 0.088995
C17   C     C_R   0.834149 0.860405 0.368623 -0.059598
C18   C     C_R   0.165852 0.360401 0.631378 -0.059598
C19   C     C_R   0.717758 0.845335 0.530554 -0.090387
C20   C     C_R   0.282242 0.345331 0.469447 -0.090389
C21   C     C_R   0.669653 0.884839 0.469722 -0.160452
C22   C     C_R   0.330348 0.384837 0.530279 -0.160448
C23   C     C_R   0.704269 0.900601 0.359942 0.461706
C24   C     C_R   0.295731 0.400600 0.640058 0.461706
C25   C     C_R   0.785210 0.895444 0.313495 -0.273052
C26   C     C_R   0.214790 0.395439 0.686506 -0.273052
C27   C     C_R   0.678490 0.829383 0.641062 0.324000
C28   C     C_R   0.321510 0.329380 0.358939 0.323993
C29   C     C_R   0.552058 0.901332 0.628282 0.222433
C30   C     C_R   0.447942 0.401328 0.371719 0.222427
C31   C     C_R   0.915754 0.859367 0.313812 -0.201925
C32   C     C_R   0.084246 0.359366 0.686189 -0.201926
H1    H     H_    0.842051 0.791037 0.608800 0.196968
H2    H     H_    0.157949 0.291014 0.391203 0.196968
H3    H     H_    0.810993 0.931074 0.232307 0.105553
H4    H     H_    0.189007 0.431067 0.767695 0.105551
C33   C     C_1   0.216497 0.859104 0.999485 -0.204344
C34   C     C_1   0.783502 0.359105 0.000516 -0.204345
C35   C     C_1   0.283729 0.853375 0.998889 -0.216167
C36   C     C_1   0.716271 0.353375 0.001112 -0.216188
O11   O     O_R   0.899030 0.205490 0.002790 -0.548778
O12   O     O_R   0.100970 0.705490 0.997210 -0.548778
O13   O     O_R   0.042000 0.536370 0.840840 -0.548288
O14   O     O_R   0.958000 0.036370 0.159160 -0.548288
C37   C     C_R   0.052944 0.367727 0.800681 0.783399
C38   C     C_R   0.947057 0.867727 0.199320 0.783398
O15   O     O_R   0.895930 0.535070 0.992690 -0.537628
O16   O     O_R   0.104070 0.035070 0.007310 -0.537628
O17   O     O_R   0.953870 0.707520 0.150040 -0.553281
O18   O     O_R   0.046130 0.207520 0.849960 -0.553281
C39   C     C_R   0.864301 0.366764 0.999134 0.747158
C40   C     C_R   0.135699 0.866764 0.000866 0.747156
O19   O     O_3   0.019200 0.374340 0.051340 -0.391716
O20   O     O_3   0.980800 0.874340 0.948660 -0.391715
V3    V     V_3+5 0.996440 0.648350 0.990470 1.369065
V4    V     V_3+5 0.003560 0.148350 0.009530 1.369064
O21   O     O_3   0.479930 0.982173 0.677692 -0.588692
C41   C     C_3   0.418368 0.853462 0.715920 0.062025
H5    H     H_    0.413256 0.809357 0.795002 0.098409
H6    H     H_    0.427374 0.726639 0.669404 0.206367
C42   C     C_3   0.342646 0.952050 0.721613 -0.319027
H7    H     H_    0.311676 0.995371 0.802980 0.178111
H8    H     H_    0.357327 0.076184 0.671589 0.229815
C43   C     C_3   0.286295 0.840859 0.686250 -0.770370
H9    H     H_    0.316819 0.775040 0.609658 0.244810
H10   H     H_    0.240959 0.934584 0.677718 0.210526
H11   H     H_    0.255877 0.737997 0.746158 0.235149
O22   O     O_3   0.520071 0.482166 0.322310 -0.588699
C44   C     C_3   0.581632 0.353454 0.284078 0.062032
H12   H     H_    0.586741 0.309347 0.204998 0.098412
H13   H     H_    0.572628 0.226632 0.330595 0.206373
C45   C     C_3   0.657355 0.452042 0.278381 -0.319036
H14   H     H_    0.688322 0.495360 0.197014 0.178118
H15   H     H_    0.642675 0.576177 0.328405 0.229812
C46   C     C_3   0.713708 0.340851 0.313742 -0.770366
H16   H     H_    0.683185 0.275038 0.390336 0.244812
H17   H     H_    0.759045 0.434576 0.322268 0.210524
H18   H     H_    0.744123 0.237986 0.253833 0.235154
O23   O     O_3   0.657117 0.937281 0.301674 -0.548164
C47   C     C_3   0.691206 0.895450 0.194256 -0.020921
H19   H     H_    0.731314 0.775367 0.177444 0.119084
H20   H     H_    0.723486 0.016787 0.150318 0.143011
C48   C     C_3   0.627262 0.849262 0.154129 -0.597599
H21   H     H_    0.594038 0.976088 0.153687 0.225387
H22   H     H_    0.653466 0.791732 0.074972 0.183460
H23   H     H_    0.587043 0.745371 0.204127 0.251128
O24   O     O_3   0.342885 0.437277 0.698326 -0.548162
C49   C     C_3   0.308795 0.395470 0.805746 -0.020925
H24   H     H_    0.268688 0.275385 0.822566 0.119083
H25   H     H_    0.276514 0.516814 0.849674 0.143010
C50   C     C_3   0.372736 0.349302 0.845878 -0.597540
H26   H     H_    0.405979 0.476111 0.846276 0.225375
H27   H     H_    0.346530 0.291872 0.925053 0.183439
H28   H     H_    0.412938 0.245348 0.795917 0.251105
O25   O     O_3   0.544630 0.996086 0.465339 -0.568399
C51   C     C_3   0.496546 0.862001 0.445269 0.159691
H29   H     H_    0.451099 0.818797 0.517240 0.173268
H30   H     H_    0.532426 0.744864 0.405085 0.217475
C52   C     C_3   0.452529 0.937349 0.379064 -0.717589
H31   H     H_    0.422647 0.822566 0.354703 0.202601
H32   H     H_    0.407365 0.035580 0.425800 0.191284
H33   H     H_    0.492430 0.005699 0.308588 0.229762
O26   O     O_3   0.455370 0.496087 0.534661 -0.568399
C53   C     C_3   0.503457 0.362006 0.554729 0.159689
H34   H     H_    0.548898 0.318792 0.482758 0.173270
H35   H     H_    0.467578 0.244876 0.594921 0.217490
C54   C     C_3   0.547481 0.437362 0.620922 -0.717595
H36   H     H_    0.507585 0.505721 0.691397 0.229757
H37   H     H_    0.577365 0.322582 0.645282 0.202600
H38   H     H_    0.592643 0.535585 0.574178 0.191283
O27   O     O_3   0.717653 0.785480 0.706822 -0.561862
C55   C     C_3   0.728627 0.947027 0.758165 0.036671
H39   H     H_    0.684209 0.056960 0.768572 0.130099
H40   H     H_    0.784009 0.012708 0.711667 0.122323
C56   C     C_3   0.729064 0.892772 0.864497 -0.687734
H41   H     H_    0.743268 0.012890 0.904224 0.182609
H42   H     H_    0.670434 0.839855 0.910963 0.238543
H43   H     H_    0.772453 0.782846 0.857808 0.206176
O28   O     O_3   0.282348 0.285478 0.293179 -0.561857
C57   C     C_3   0.271369 0.447026 0.241841 0.036691
H44   H     H_    0.315784 0.556964 0.231437 0.130094
H45   H     H_    0.215985 0.512695 0.288341 0.122331
C58   C     C_3   0.270932 0.392778 0.135509 -0.687827
H46   H     H_    0.256723 0.512880 0.095795 0.182613
H47   H     H_    0.329559 0.339885 0.089039 0.238541
H48   H     H_    0.227553 0.282849 0.142186 0.206188
O29   O     O_3   0.046828 0.896155 0.304053 -0.574399
C59   C     C_3   0.103351 0.848628 0.347641 0.060066
H49   H     H_    0.096179 0.704541 0.375669 0.172497
H50   H     H_    0.103259 0.944430 0.410288 0.172958
C60   C     C_3   0.183440 0.870723 0.264567 -0.750849
H51   H     H_    0.190187 0.012452 0.232373 0.254823
H52   H     H_    0.229393 0.846485 0.298311 0.189350
H53   H     H_    0.190023 0.770756 0.201239 0.216888
O30   O     O_3   0.953172 0.396158 0.695947 -0.574399
C61   C     C_3   0.896649 0.348631 0.652359 0.060068
H54   H     H_    0.903822 0.204544 0.624329 0.172498
H55   H     H_    0.896741 0.444433 0.589712 0.172958
C62   C     C_3   0.816561 0.370725 0.735432 -0.750854
H56   H     H_    0.809812 0.512458 0.767620 0.254823
H57   H     H_    0.770607 0.346474 0.701690 0.189346
H58   H     H_    0.809979 0.270767 0.798763 0.216892
O31   O     O_3   0.980301 0.926277 0.533374 -0.598708
C63   C     C_3   0.998682 0.792267 0.595232 0.041794
H59   H     H_    0.053859 0.722665 0.549506 0.119106
H60   H     H_    0.951943 0.690539 0.626199 0.186718
C64   C     C_3   0.011233 0.884509 0.687359 -0.296597
H61   H     H_    0.044959 0.791781 0.719680 0.185080
H62   H     H_    0.046805 0.009891 0.660436 0.189877
C65   C     C_3   0.933194 0.929590 0.771876 -0.617679
H63   H     H_    0.891068 0.974966 0.737047 0.203312
H64   H     H_    0.938999 0.043843 0.821552 0.249346
H65   H     H_    0.909517 0.804970 0.819742 0.219695
O32   O     O_3   0.019701 0.426274 0.466626 -0.598708
C66   C     C_3   0.001319 0.292265 0.404768 0.041795
H66   H     H_    0.946142 0.222663 0.450494 0.119107
H67   H     H_    0.048058 0.190537 0.373799 0.186719
C67   C     C_3   0.988767 0.384508 0.312642 -0.296605
H68   H     H_    0.955039 0.291781 0.280323 0.185079
H69   H     H_    0.953195 0.509891 0.339566 0.189878
C68   C     C_3   0.066805 0.429585 0.228124 -0.617673
H70   H     H_    0.108933 0.474953 0.262952 0.203312
H71   H     H_    0.061000 0.543841 0.178450 0.249345
H72   H     H_    0.090481 0.304965 0.180256 0.219700

loop_
_geom_bond_atom_site_label_1
_geom_bond_atom_site_label_2
_ccdc_geom_bond_type
C60   H53   S    
O20   V4    S    
C46   H16   S    
C30   O22   S    
C11   O31   S    
C58   H48   S    
O27   C55   S    
C42   H7    S    
O30   C61   S    
O1    C3    A    
C61   C62   S    
O2    C4    A    
C2    O7    A    
C44   H12   S    
C48   H23   S    
C58   H46   S    
C66   H67   S    
C68   H70   S    
C53   H34   S    
O5    C3    A    
O12   C40   A    
C43   H10   S    
C55   H40   S    
C63   H59   S    
C23   C25   A    
C45   H15   S    
C6    C30   A    
C8    C28   A    
C60   H51   S    
C68   H72   S    
C15   C17   A    
C67   H68   S    
O26   C53   S    
C27   O27   S    
C51   H29   S    
C18   C26   A    
C58   H47   S    
C62   H58   S    
O11   V4    S    
C47   H19   S    
C50   H26   S    
C31   C38   S    
O15   V3    S    
C9    C31   A    
C50   H27   S    
C10   C32   A    
C48   H21   S    
O14   C38   A    
C57   H44   S    
C33   C35   T    
C34   C36   T    
C62   H56   S    
C45   C46   S    
C1    C36   S    
C41   H5    S    
C51   C52   S    
C2    C35   S    
C24   O24   S    
C26   H4    S    
C38   O17   A    
O5    V1    S    
O20   V3    S    
O6    V2    S    
C33   C40   S    
C17   C31   A    
C62   H57   S    
C34   C39   S    
C42   H8    S    
C18   C32   A    
C5    C21   A    
C47   H20   S    
C44   H13   S    
C66   C67   S    
C65   H64   S    
C43   H9    S    
C54   H37   S    
C9    C11   A    
C3    C8    S    
C19   C21   A    
C15   C19   A    
C37   O18   A    
C59   H49   S    
O4    C2    A    
C66   H66   S    
O12   V3    S    
O19   V3    S    
O14   V4    S    
C49   C50   S    
C20   C22   A    
C50   H28   S    
O4    V2    S    
C12   O32   S    
C56   H42   S    
C65   H65   S    
O17   V3    S    
C8    C30   A    
C64   H61   S    
C16   C20   A    
C32   C37   S    
O6    C4    A    
O19   V4    S    
C41   C42   S    
C49   H25   S    
C64   C65   S    
C52   H32   S    
O1    V2    S    
C45   H14   S    
C59   C60   S    
O2    V1    S    
C6    C22   A    
C68   H71   S    
C7    C27   A    
C55   C56   S    
C28   O28   S    
C20   C28   A    
O13   C37   A    
O32   C66   S    
C42   C43   S    
C10   C12   A    
O9    V2    S    
C25   H3    S    
C47   C48   S    
O25   C51   S    
C56   H41   S    
C13   H1    S    
O23   C47   S    
C44   C45   S    
O3    V1    S    
C29   O21   S    
C65   H63   S    
C54   H38   S    
C60   H52   S    
C52   H31   S    
C14   C16   A    
C63   C64   S    
C12   C14   A    
C61   H55   S    
O22   C44   S    
O3    C1    A    
C6    O26   S    
O13   V3    S    
O29   C59   S    
C48   H22   S    
C59   H50   S    
C13   C15   A    
O15   C39   A    
C53   C54   S    
O18   V4    S    
O16   C40   A    
C5    O25   S    
C64   H62   S    
O7    V1    S    
C56   H43   S    
C16   C18   A    
O8    V2    S    
O24   C49   S    
C24   C26   A    
O11   C39   A    
C51   H30   S    
C67   H69   S    
C57   C58   S    
C4    C7    S    
C63   H60   S    
C49   H24   S    
C21   C23   A    
C53   H35   S    
C52   H33   S    
C22   C24   A    
C61   H54   S    
C11   C13   A    
O21   C41   S    
C5    C29   A    
C14   H2    S    
C7    C29   A    
C1    O8    A    
C43   H11   S    
C10   O30   S    
O16   V4    S    
C57   H45   S    
C54   H36   S    
C46   H18   S    
C17   C25   A    
O31   C63   S    
C19   C27   A    
C46   H17   S    
C9    O29   S    
O10   V1    S    
C41   H6    S    
O28   C57   S    
C55   H39   S    
C67   C68   S    
C23   O23   S    
