data_mof_unit_38302.cif
_audit_creation_date              2013-03-05T15:44:36-0500
_audit_creation_method            fapswitch 2.2
_symmetry_space_group_name_H-M    P1
_symmetry_Int_Tables_number       1
_space_group_crystal_system       triclinic
_cell_length_a                    19.288393
_cell_length_b                    11.050615
_cell_length_c                    18.811481
_cell_angle_alpha                 89.73711
_cell_angle_beta                  90.024955
_cell_angle_gamma                 90.756352
_cell_volume                      4009.24908986

loop_
_atom_site_label
_atom_site_type_symbol
_atom_site_description
_atom_site_fract_x
_atom_site_fract_y
_atom_site_fract_z
_atom_type_partial_charge
O1    O     O_R   0.787540 0.042690 0.170470 -0.455507
O2    O     O_R   0.212460 0.042690 0.829530 -0.438501
O3    O     O_R   0.287540 0.542690 0.170470 -0.454726
O4    O     O_R   0.712460 0.542690 0.829530 -0.438427
O5    O     O_R   0.765660 0.292160 0.175050 -0.456176
O6    O     O_R   0.234340 0.292160 0.824950 -0.466551
O7    O     O_R   0.265660 0.792160 0.175050 -0.456316
O8    O     O_R   0.734340 0.792160 0.824950 -0.466519
C1    C     C_R   0.731451 0.378076 0.146872 0.606762
C2    C     C_R   0.272620 0.372407 0.855416 0.595743
C3    C     C_R   0.231448 0.878056 0.146865 0.606696
C4    C     C_R   0.772622 0.872405 0.855418 0.595727
O9    O     O_R   0.670190 0.408980 0.168550 -0.454947
O10   O     O_R   0.329810 0.408980 0.831450 -0.467872
O11   O     O_R   0.170190 0.908980 0.168550 -0.454565
O12   O     O_R   0.829810 0.908980 0.831450 -0.467895
O13   O     O_R   0.556580 0.251450 0.175160 -0.526041
O14   O     O_R   0.443420 0.251450 0.824840 -0.522175
O15   O     O_R   0.056580 0.751450 0.175160 -0.525338
O16   O     O_R   0.943420 0.751450 0.824840 -0.522212
C5    C     C_R   0.528594 0.156989 0.149071 0.574968
C6    C     C_R   0.465234 0.153952 0.855650 0.499507
C7    C     C_R   0.028589 0.656990 0.149073 0.575093
C8    C     C_R   0.965239 0.653962 0.855648 0.499597
O17   O     O_R   0.545920 0.049510 0.170320 -0.421855
O18   O     O_R   0.454080 0.049510 0.829680 -0.446856
O19   O     O_R   0.045920 0.549510 0.170320 -0.421953
O20   O     O_R   0.954080 0.549510 0.829680 -0.446796
O21   O     O_R   0.681390 0.957840 0.176710 -0.458354
O22   O     O_R   0.318610 0.957840 0.823290 -0.469913
O23   O     O_R   0.181390 0.457840 0.176710 -0.458478
O24   O     O_R   0.818610 0.457840 0.823290 -0.469876
C9    C     C_R   0.739496 0.971981 0.146654 0.581191
C10   C     C_R   0.261082 0.978379 0.855434 0.575936
C11   C     C_R   0.239492 0.471989 0.146651 0.581214
C12   C     C_R   0.761090 0.478408 0.855444 0.575937
O25   O     O_R   0.787500 0.044280 0.330990 -0.500950
O26   O     O_R   0.212500 0.044280 0.669010 -0.478258
O27   O     O_R   0.287500 0.544280 0.330990 -0.501045
O28   O     O_R   0.712500 0.544280 0.669010 -0.478245
O29   O     O_R   0.765610 0.293630 0.323860 -0.437283
O30   O     O_R   0.234390 0.293630 0.676140 -0.426159
O31   O     O_R   0.265610 0.793630 0.323860 -0.437342
O32   O     O_R   0.734390 0.793630 0.676140 -0.426158
C13   C     C_R   0.727154 0.374791 0.354623 0.572318
C14   C     C_R   0.272626 0.375683 0.645397 0.579497
C15   C     C_R   0.227154 0.874791 0.354623 0.572236
C16   C     C_R   0.772626 0.875683 0.645397 0.579487
O33   O     O_R   0.670140 0.410570 0.329080 -0.540779
O34   O     O_R   0.329860 0.410570 0.670920 -0.543082
O35   O     O_R   0.170140 0.910570 0.329080 -0.540686
O36   O     O_R   0.829860 0.910570 0.670920 -0.543088
O37   O     O_R   0.556540 0.252920 0.323970 -0.527934
O38   O     O_R   0.443460 0.252920 0.676030 -0.508348
O39   O     O_R   0.056540 0.752920 0.323970 -0.527720
O40   O     O_R   0.943460 0.752920 0.676030 -0.508352
C17   C     C_R   0.532816 0.156368 0.353697 0.536836
C18   C     C_R   0.467373 0.157543 0.646398 0.555084
C19   C     C_R   0.032816 0.656368 0.353697 0.536815
C20   C     C_R   0.967373 0.657543 0.646398 0.555088
O41   O     O_R   0.545870 0.051100 0.330840 -0.482371
O42   O     O_R   0.454130 0.051100 0.669160 -0.468134
O43   O     O_R   0.045870 0.551100 0.330840 -0.482389
O44   O     O_R   0.954130 0.551100 0.669160 -0.468131
O45   O     O_R   0.681340 0.959300 0.325510 -0.450740
O46   O     O_R   0.318660 0.959300 0.674490 -0.444881
O47   O     O_R   0.181340 0.459300 0.325510 -0.450743
O48   O     O_R   0.818660 0.459300 0.674490 -0.444887
C21   C     C_R   0.742054 0.966656 0.352508 0.555995
C22   C     C_R   0.257860 0.967523 0.647478 0.566874
C23   C     C_R   0.242054 0.466656 0.352508 0.555951
C24   C     C_R   0.757860 0.467523 0.647478 0.566884
Cr1   Cr    Cr6+3 0.772000 0.169640 0.250110 1.196764
Cr2   Cr    Cr6+3 0.228000 0.169640 0.749890 1.207715
Cr3   Cr    Cr6+3 0.272000 0.669640 0.250110 1.196817
Cr4   Cr    Cr6+3 0.728000 0.669640 0.749890 1.207749
Cr5   Cr    Cr6+3 0.614960 0.323350 0.249260 1.094562
Cr6   Cr    Cr6+3 0.385040 0.323350 0.750740 1.111460
Cr7   Cr    Cr6+3 0.114960 0.823350 0.249260 1.095691
Cr8   Cr    Cr6+3 0.885040 0.823350 0.750740 1.111414
Cr9   Cr    Cr6+3 0.616670 0.010620 0.250840 1.201510
Cr10  Cr    Cr6+3 0.383330 0.010620 0.749160 1.194176
Cr11  Cr    Cr6+3 0.116670 0.510620 0.250840 1.201611
Cr12  Cr    Cr6+3 0.883330 0.510620 0.749160 1.194222
O49   O     O_3   0.667880 0.167870 0.250070 -0.323818
O50   O     O_3   0.332120 0.167870 0.749930 -0.348593
O51   O     O_3   0.167880 0.667870 0.250070 -0.324022
O52   O     O_3   0.832120 0.667870 0.749930 -0.348605
H1    H     H_    0.442644 0.999712 0.080954 0.201615
H2    H     H_    0.428897 0.991155 0.953239 0.185055
H3    H     H_    0.942642 0.499723 0.080944 0.201698
H4    H     H_    0.928900 0.491181 0.953232 0.185103
C25   C     C_R   0.487014 0.157188 0.931604 0.024465
C26   C     C_R   0.491330 0.175621 0.080756 0.006745
C27   C     C_R   0.987002 0.657232 0.931605 0.024507
C28   C     C_R   0.991329 0.675622 0.080753 0.006885
C29   C     C_R   0.519710 0.259586 0.963763 -0.047553
C30   C     C_R   0.508421 0.278683 0.037540 -0.059581
C31   C     C_R   0.019667 0.759660 0.963773 -0.047593
C32   C     C_R   0.008379 0.778725 0.037550 -0.059721
C33   C     C_R   0.460022 0.075598 0.048991 -0.076643
C34   C     C_R   0.456160 0.068137 0.975625 -0.059453
C35   C     C_R   0.960013 0.575615 0.048985 -0.076713
C36   C     C_R   0.956153 0.568168 0.975621 -0.059451
C37   C     C_R   0.553119 0.350709 0.922870 -0.034737
C38   C     C_R   0.510801 0.399246 0.064582 -0.023829
C39   C     C_R   0.053078 0.850814 0.922904 -0.034725
C40   C     C_R   0.010788 0.899260 0.064642 -0.024302
C41   C     C_R   0.056102 0.970373 0.949208 0.190515
C42   C     C_R   0.036223 0.994567 0.020308 0.209248
C43   C     C_R   0.556159 0.470275 0.949149 0.190400
C44   C     C_R   0.536320 0.494488 0.020256 0.209733
C45   C     C_R   0.686113 0.930021 0.027876 0.183201
C46   C     C_R   0.293496 0.854853 0.961495 0.157833
C47   C     C_R   0.186109 0.430183 0.027851 0.183497
C48   C     C_R   0.793530 0.354933 0.961521 0.157857
C49   C     C_R   0.693961 0.914175 0.954706 0.195965
C50   C     C_R   0.298932 0.846363 0.035699 0.137789
C51   C     C_R   0.193961 0.414295 0.954686 0.196179
C52   C     C_R   0.798973 0.346468 0.035726 0.138022
C53   C     C_R   0.760725 0.900769 0.929135 -0.017654
C54   C     C_R   0.259056 0.924060 0.078780 -0.008736
C55   C     C_R   0.260720 0.400757 0.929134 -0.017721
C56   C     C_R   0.759061 0.424126 0.078799 -0.008674
C57   C     C_R   0.817772 0.904799 0.976115 -0.056402
C58   C     C_R   0.235231 0.032230 0.049587 -0.058765
C59   C     C_R   0.317751 0.404605 0.976136 -0.056650
C60   C     C_R   0.735179 0.532257 0.049592 -0.058925
C61   C     C_R   0.808280 0.903501 0.048154 -0.155856
C62   C     C_R   0.236536 0.046728 0.976140 -0.215021
C63   C     C_R   0.308228 0.403243 0.048174 -0.155851
C64   C     C_R   0.736509 0.546757 0.976147 -0.215168
H5    H     H_    0.852127 0.903660 0.083215 0.152081
H6    H     H_    0.223796 0.133767 0.953732 0.159435
H7    H     H_    0.352041 0.403064 0.083270 0.152790
H8    H     H_    0.723742 0.633780 0.953736 0.159462
C65   C     C_R   0.743751 0.925582 0.074647 -0.031365
C66   C     C_R   0.258670 0.953292 0.931608 -0.044887
C67   C     C_R   0.243727 0.425605 0.074639 -0.031433
C68   C     C_R   0.758684 0.453342 0.931623 -0.044950
C69   C     C_R   0.506096 0.054369 0.465426 -0.074706
C70   C     C_R   0.503214 0.056268 0.538080 -0.078498
C71   C     C_R   0.006096 0.554369 0.465426 -0.074713
C72   C     C_R   0.003214 0.556268 0.538080 -0.078500
H9    H     H_    0.509996 0.967630 0.439995 0.245446
H10   H     H_    0.504632 0.970786 0.565818 0.248648
H11   H     H_    0.009997 0.467630 0.439995 0.245456
H12   H     H_    0.004632 0.470786 0.565818 0.248648
C73   C     C_R   0.493910 0.165087 0.574028 -0.001838
C74   C     C_R   0.507336 0.162178 0.426422 0.005897
C75   C     C_R   0.993910 0.665087 0.574028 -0.001836
C76   C     C_R   0.007336 0.662178 0.426422 0.005882
C77   C     C_R   0.493619 0.274026 0.535689 -0.117196
C78   C     C_R   0.499861 0.272582 0.461677 -0.119742
C79   C     C_R   0.993618 0.774026 0.535689 -0.117211
C80   C     C_R   0.999860 0.772582 0.461677 -0.119731
H13   H     H_    0.487469 0.358689 0.563057 0.197306
H14   H     H_    0.499470 0.356430 0.431957 0.189772
H15   H     H_    0.987469 0.858689 0.563057 0.197304
H16   H     H_    0.999469 0.856430 0.431957 0.189844
C81   C     C_R   0.815146 0.940213 0.454895 -0.136310
C82   C     C_R   0.184582 0.936924 0.545388 -0.130473
C83   C     C_R   0.315146 0.440213 0.454895 -0.136323
C84   C     C_R   0.684582 0.436924 0.545388 -0.130468
H17   H     H_    0.858610 0.971152 0.422827 0.223171
H18   H     H_    0.141251 0.965535 0.577586 0.231130
H19   H     H_    0.358610 0.471151 0.422827 0.223111
H20   H     H_    0.641251 0.465534 0.577586 0.231133
C85   C     C_R   0.818420 0.951561 0.527868 -0.065612
C86   C     C_R   0.180719 0.946737 0.472267 -0.060153
C87   C     C_R   0.318420 0.451561 0.527868 -0.065600
C88   C     C_R   0.680719 0.446736 0.472267 -0.060100
C89   C     C_R   0.761390 0.906559 0.569813 -0.052798
C90   C     C_R   0.237987 0.905450 0.430247 -0.052167
C91   C     C_R   0.261390 0.406558 0.569813 -0.052795
C92   C     C_R   0.737987 0.405450 0.430247 -0.052152
C93   C     C_R   0.700992 0.861051 0.535278 0.159597
C94   C     C_R   0.298779 0.864690 0.464758 0.163802
C95   C     C_R   0.200992 0.361051 0.535278 0.159595
C96   C     C_R   0.798779 0.364690 0.464758 0.163767
C97   C     C_R   0.698699 0.856026 0.460371 0.166626
C98   C     C_R   0.301446 0.860223 0.539613 0.166459
C99   C     C_R   0.198699 0.356025 0.460370 0.166602
C100  C     C_R   0.801446 0.360223 0.539613 0.166454
C101  C     C_R   0.753887 0.908173 0.421305 -0.037467
C102  C     C_R   0.246082 0.908923 0.578807 -0.041245
C103  C     C_R   0.253887 0.408173 0.421305 -0.037466
C104  C     C_R   0.746082 0.408923 0.578807 -0.041249
C105  C     C_2   0.881344 0.017431 0.555454 0.311753
H21   H     H_    0.886247 0.048796 0.609124 0.219913
O53   O     O_2   0.929696 0.043598 0.516242 -0.404152
C106  C     C_2   0.117010 0.007962 0.444810 0.318555
H22   H     H_    0.112030 0.041881 0.391529 0.219311
O54   O     O_2   0.068167 0.028137 0.483996 -0.418296
C107  C     C_2   0.381344 0.517431 0.555454 0.311758
H23   H     H_    0.386247 0.548796 0.609123 0.219916
O55   O     O_2   0.429696 0.543597 0.516242 -0.404183
C108  C     C_2   0.617010 0.507962 0.444811 0.318522
H24   H     H_    0.612031 0.541882 0.391529 0.219214
O56   O     O_2   0.568167 0.528138 0.483996 -0.418320
N1    N     N_R   0.641914 0.822808 0.576393 0.116016
O57   O     O_R   0.623141 0.709418 0.577433 -0.229627
O58   O     O_R   0.615539 0.896057 0.622775 -0.311607
N2    N     N_R   0.358206 0.831651 0.423691 0.119660
O59   O     O_R   0.377355 0.719406 0.421433 -0.230803
O60   O     O_R   0.385828 0.909538 0.379645 -0.324904
N3    N     N_R   0.141914 0.322808 0.576393 0.116012
O61   O     O_R   0.123141 0.209418 0.577433 -0.229633
O62   O     O_R   0.115539 0.396056 0.622775 -0.311600
N4    N     N_R   0.858206 0.331651 0.423691 0.119666
O63   O     O_R   0.877355 0.219407 0.421433 -0.230705
O64   O     O_R   0.885828 0.409538 0.379645 -0.324845
N5    N     N_R   0.642644 0.795663 0.423491 0.085158
O65   O     O_R   0.654842 0.740306 0.363942 -0.330845
O66   O     O_R   0.580281 0.790902 0.449519 -0.242918
N6    N     N_R   0.358435 0.804206 0.576167 0.092301
O67   O     O_R   0.347248 0.745897 0.635423 -0.325557
O68   O     O_R   0.420815 0.806757 0.550130 -0.244769
N7    N     N_R   0.142644 0.295662 0.423491 0.085163
O69   O     O_R   0.154843 0.240306 0.363942 -0.330729
O70   O     O_R   0.080281 0.290901 0.449519 -0.242870
N8    N     N_R   0.858435 0.304206 0.576167 0.092300
O71   O     O_R   0.847249 0.245898 0.635423 -0.325569
O72   O     O_R   0.920816 0.306758 0.550130 -0.244769
C109  C     C_2   0.587892 0.316620 0.855100 0.291759
H25   H     H_    0.601209 0.222946 0.846208 0.166570
O73   O     O_2   0.601573 0.390068 0.808495 -0.427672
C110  C     C_2   0.471597 0.426483 0.131737 0.294777
H26   H     H_    0.446511 0.353939 0.161464 0.077626
O74   O     O_2   0.461814 0.529047 0.152791 -0.375455
C111  C     C_2   0.087861 0.816761 0.855134 0.291738
H27   H     H_    0.101210 0.723101 0.846243 0.166570
O75   O     O_2   0.101505 0.890218 0.808522 -0.427647
C112  C     C_2   0.971763 0.926261 0.131941 0.296154
H28   H     H_    0.945783 0.853746 0.160935 0.076359
O76   O     O_2   0.963563 0.028597 0.154208 -0.376072
N9    N     N_R   0.067746 0.069324 0.900637 0.152969
O77   O     O_R   0.027504 0.081131 0.845551 -0.193838
O78   O     O_R   0.107749 0.159549 0.918205 -0.297645
N10   N     N_R   0.035061 0.117847 0.044464 0.144640
O79   O     O_R   0.065748 0.148483 0.103360 -0.262094
O80   O     O_R   0.999394 0.198375 0.010225 -0.122526
N11   N     N_R   0.567734 0.569195 0.900542 0.152997
O81   O     O_R   0.527442 0.580919 0.845488 -0.193964
O82   O     O_R   0.607765 0.659434 0.918017 -0.297690
N12   N     N_R   0.535365 0.617732 0.044489 0.144004
O83   O     O_R   0.565488 0.647824 0.103784 -0.262782
O84   O     O_R   0.499777 0.698435 0.010304 -0.122170
N13   N     N_R   0.624108 0.981030 0.050912 0.102069
O85   O     O_R   0.571181 0.910234 0.063595 -0.224411
O86   O     O_R   0.615884 0.094404 0.035650 -0.369602
N14   N     N_R   0.326288 0.768014 0.916876 0.130549
O87   O     O_R   0.288741 0.700053 0.875248 -0.275956
O88   O     O_R   0.393135 0.772892 0.908125 -0.192284
N15   N     N_R   0.124118 0.481240 0.050881 0.102001
O89   O     O_R   0.071158 0.410475 0.063480 -0.224316
O90   O     O_R   0.115944 0.594643 0.035661 -0.369779
N16   N     N_R   0.826310 0.268076 0.916908 0.130734
O91   O     O_R   0.788736 0.199976 0.875383 -0.275934
O92   O     O_R   0.893134 0.273139 0.908000 -0.192365
N17   N     N_R   0.636978 0.934390 0.906244 0.125681
O93   O     O_R   0.646405 0.998397 0.848727 -0.313034
O94   O     O_R   0.574619 0.896197 0.921187 -0.186039
N18   N     N_R   0.346357 0.762767 0.066961 0.126826
O95   O     O_R   0.390339 0.798540 0.115192 -0.263831
O96   O     O_R   0.346445 0.650963 0.046948 -0.236015
N19   N     N_R   0.136999 0.434576 0.906210 0.125603
O97   O     O_R   0.146461 0.498593 0.848702 -0.313064
O98   O     O_R   0.074635 0.396360 0.921107 -0.186033
N20   N     N_R   0.846426 0.262925 0.067002 0.126544
O99   O     O_R   0.890344 0.298722 0.115288 -0.264468
O100  O     O_R   0.846575 0.151124 0.046983 -0.237049
C113  C     C_2   0.887295 0.929274 0.951086 0.296181
H29   H     H_    0.914584 0.856910 0.928787 0.092198
O101  O     O_2   0.908554 0.032711 0.944276 -0.333734
C114  C     C_2   0.213849 0.134509 0.094119 0.282986
H30   H     H_    0.184438 0.206237 0.070282 0.153008
O102  O     O_2   0.230368 0.141671 0.156655 -0.467069
C115  C     C_2   0.387289 0.429043 0.951142 0.296567
H31   H     H_    0.414556 0.356695 0.928803 0.092119
O103  O     O_2   0.408603 0.532468 0.944441 -0.333710
C116  C     C_2   0.713668 0.634480 0.094108 0.282801
H32   H     H_    0.684135 0.706067 0.070272 0.153148
O104  O     O_2   0.730206 0.641752 0.156633 -0.467005

loop_
_geom_bond_atom_site_label_1
_geom_bond_atom_site_label_2
_geom_bond_distance
_ccdc_geom_bond_type
C18   O42   1.272682 A    
Cr11  O51   1.987456 S    
O4    C12   1.279092 A    
O47   Cr11  1.964809 S    
C33   C34   1.384867 A    
C94   N2    1.434721 S    
C41   C42   1.419098 A    
O20   Cr12  2.080860 S    
C39   C41   1.413419 A    
N1    O57   1.299765 A    
C70   H10   1.077723 S    
O15   C7    1.269447 A    
C43   C44   1.419040 A    
C60   C116  1.473375 S    
C72   H12   1.077724 S    
C73   C77   1.400578 A    
O29   Cr1   1.959422 S    
Cr7   O51   2.010035 S    
C29   C30   1.422067 A    
O23   Cr11  1.967580 S    
C38   C44   1.422643 A    
C19   C76   1.455853 S    
C44   N12   1.438519 S    
C20   O44   1.272682 A    
C88   C92   1.438924 A    
C116  H32   1.076922 S    
O36   Cr8   2.080575 S    
C81   H17   1.083786 S    
O24   C12   1.287225 A    
C70   C73   1.395999 A    
N14   O88   1.300285 A    
H1    C33   1.079462 S    
C109  O73   1.218636 D    
N6    O68   1.299197 A    
C78   H14   1.080091 S    
C72   C75   1.395999 A    
O39   C19   1.281550 A    
O40   Cr8   1.971098 S    
O45   Cr9   1.964809 S    
O30   C14   1.295552 A    
N17   O93   1.301459 A    
C27   C31   1.425292 A    
O47   C23   1.278007 A    
N7    O70   1.299235 A    
C5    C26   1.487004 S    
C26   C30   1.431245 A    
N11   O81   1.301557 A    
O34   Cr6   2.080575 S    
O21   C9    1.263072 A    
O8    Cr4   1.963364 S    
C1    C56   1.473051 S    
C52   N20   1.432850 S    
C7    C28   1.487051 S    
C83   C103  1.382444 A    
C98   C102  1.411772 A    
O32   Cr4   1.948211 S    
C1    O9    1.300588 A    
C24   C104  1.463977 S    
O38   Cr6   1.971098 S    
C81   C101  1.382445 A    
C37   C43   1.413329 A    
C11   C67   1.453284 S    
C82   H18   1.083752 S    
C3    O11   1.300631 A    
O11   Cr7   2.072933 S    
C4    C53   1.442249 S    
C4    O12   1.253148 A    
C26   C33   1.389823 A    
C9    C65   1.453286 S    
N18   O95   1.301126 A    
N11   O82   1.296580 A    
C58   C114  1.473310 S    
C99   N7    1.442169 S    
C115  H31   1.052035 S    
C88   C108  1.500928 S    
C108  H24   1.073198 S    
O6    Cr2   1.963364 S    
O27   Cr3   2.077143 S    
O3    Cr3   2.081616 S    
C48   C52   1.402594 A    
Cr4   O52   2.008661 S    
N17   O94   1.299878 A    
O2    Cr2   2.066965 S    
C18   C73   1.456288 S    
C64   H8    1.079628 S    
C56   C60   1.396480 A    
C49   N17   1.446639 S    
N15   O90   1.295816 A    
O2    C10   1.279086 A    
C50   N18   1.432778 S    
O10   Cr6   2.092041 S    
O42   Cr10  2.075880 S    
Cr5   O49   2.010035 S    
C37   C109  1.492938 S    
O18   Cr10  2.080860 S    
O27   C23   1.282707 A    
C90   C94   1.417693 A    
C100  C104  1.411775 A    
N1    O58   1.301165 A    
C105  H21   1.072670 S    
C112  O76   1.220034 D    
C60   C64   1.390347 A    
Cr9   O49   1.987456 S    
C110  O74   1.219377 D    
C110  H26   1.084142 S    
C40   C42   1.422713 A    
C69   C74   1.396240 A    
O7    C3    1.276401 A    
C79   C80   1.397704 A    
C95   C99   1.411121 A    
C81   C85   1.380359 A    
N5    O66   1.299235 A    
O31   Cr3   1.959422 S    
C84   C88   1.381324 A    
O24   Cr12  1.953970 S    
O16   Cr8   1.963267 S    
N12   O84   1.300214 A    
C41   N9    1.437166 S    
C32   C40   1.428510 A    
O30   Cr2   1.948211 S    
C39   C111  1.492918 S    
O22   C10   1.287214 A    
C79   H15   1.077888 S    
N3    O61   1.299765 A    
O48   Cr12  1.959014 S    
C76   C80   1.400447 A    
C80   H16   1.080091 S    
N6    O67   1.301629 A    
C87   C107  1.500597 S    
C2    C55   1.442231 S    
C2    O10   1.253160 A    
C8    C27   1.489543 S    
C23   C103  1.463079 S    
N7    O69   1.301825 A    
C82   C102  1.380372 A    
C97   C101  1.409205 A    
C15   O35   1.267225 A    
C83   C87   1.380357 A    
O26   Cr2   2.081187 S    
N5    O65   1.301825 A    
C87   C91   1.436204 A    
C10   C66   1.458918 S    
O13   C5    1.269438 A    
O28   Cr4   2.081187 S    
O43   Cr11  2.086598 S    
O48   C24   1.282042 A    
O12   Cr8   2.092041 S    
C20   C75   1.456287 S    
C106  O54   1.219955 D    
C54   C58   1.396378 A    
C45   N13   1.398705 S    
O37   Cr5   1.954185 S    
C107  O55   1.220265 D    
C50   C54   1.417724 A    
C53   C57   1.411381 A    
C57   C61   1.367541 A    
O46   Cr10  1.959014 S    
C114  H30   1.076829 S    
O39   Cr7   1.954185 S    
O25   C21   1.282706 A    
C63   H7    1.072170 S    
C55   C59   1.411361 A    
C31   C32   1.422010 A    
C82   C86   1.381326 A    
C95   N3    1.435393 S    
C13   O33   1.267225 A    
C83   H19   1.083787 S    
O8    C4    1.283382 A    
C46   N14   1.431548 S    
C17   C74   1.455851 S    
N10   O80   1.300197 A    
C113  H29   1.052080 S    
N13   O85   1.299460 A    
C47   N15   1.398649 S    
C61   C65   1.366288 A    
C111  O75   1.218633 D    
C46   C50   1.402571 A    
C51   N19   1.446610 S    
Cr2   O50   2.008661 S    
O15   Cr7   1.956402 S    
C12   C68   1.458969 S    
O35   Cr7   2.073929 S    
Cr1   O49   2.008144 S    
C96   N4    1.434722 S    
C94   C98   1.409705 A    
C6    O18   1.271045 A    
C45   C49   1.396868 A    
C84   H20   1.083752 S    
O25   Cr1   2.077143 S    
O26   C22   1.293089 A    
N2    O60   1.301124 A    
O21   Cr9   1.967580 S    
C61   H5    1.072263 S    
N13   O86   1.295807 A    
C7    O19   1.299304 A    
N9    O78   1.296600 A    
O9    Cr5   2.072933 S    
C91   C95   1.420911 A    
O38   C18   1.285595 A    
C6    C25   1.489560 S    
N20   O100  1.293274 A    
C19   O43   1.270399 A    
C13   C92   1.478024 S    
C3    C54   1.473043 S    
C112  H28   1.084604 S    
C38   C110  1.506207 S    
C49   C53   1.384888 A    
N15   O89   1.299464 A    
C62   C66   1.403567 A    
C21   C101  1.463079 S    
C71   H11   1.076766 S    
C111  H27   1.083580 S    
C96   C100  1.409705 A    
C48   N16   1.431519 S    
C27   C36   1.409187 A    
O14   Cr6   1.963267 S    
C16   C89   1.477249 S    
C86   C90   1.438923 A    
Cr3   O51   2.008144 S    
O45   C21   1.278007 A    
C69   H9    1.076765 S    
C5    O17   1.299283 A    
N12   O83   1.300047 A    
N8    O72   1.299197 A    
C86   C106  1.500929 S    
C43   N11   1.437162 S    
O22   Cr10  1.953970 S    
O28   C24   1.293089 A    
C109  H25   1.083582 S    
O14   C6    1.296070 A    
H4    C36   1.081099 S    
C116  O104  1.221278 D    
O5    Cr1   1.956642 S    
C8    O20   1.271139 A    
C92   C96   1.417693 A    
H3    C35   1.079431 S    
C108  O56   1.219956 D    
C84   C104  1.380373 A    
O17   Cr9   2.085424 S    
O37   C17   1.281551 A    
C25   C34   1.409195 A    
C100  N8    1.441422 S    
O7    Cr3   1.956642 S    
N19   O97   1.301457 A    
C98   N6    1.441423 S    
C17   O41   1.270399 A    
C51   C55   1.384866 A    
C64   C68   1.403556 A    
N16   O92   1.300289 A    
C31   C39   1.413228 A    
C14   O34   1.260098 A    
C47   C51   1.396854 A    
C75   C79   1.400579 A    
C30   C38   1.428448 A    
O29   C13   1.308500 A    
O44   Cr12  2.075880 S    
C57   C113  1.443223 S    
C45   C65   1.418695 A    
O1    Cr1   2.081616 S    
C106  H22   1.073200 S    
N4    O64   1.301124 A    
H2    C34   1.081118 S    
O19   Cr11  2.085424 S    
N16   O91   1.300876 A    
C77   C78   1.397704 A    
C22   C102  1.463978 S    
C29   C37   1.413217 A    
Cr8   O52   1.986987 S    
O32   C16   1.295553 A    
O41   Cr9   2.086598 S    
C69   C70   1.368150 A    
C115  O103  1.215520 D    
Cr10  O50   2.010242 S    
O13   Cr5   1.956402 S    
N19   O98   1.299874 A    
C85   C89   1.436203 A    
Cr6   O50   1.986987 S    
O46   C22   1.282042 A    
Cr12  O52   2.010242 S    
O31   C15   1.308500 A    
C93   C97   1.411121 A    
N9    O77   1.301555 A    
C28   C32   1.431290 A    
O23   C11   1.263030 A    
N10   O79   1.300015 A    
C113  O101  1.215500 D    
C25   C29   1.425204 A    
O33   Cr5   2.073929 S    
C93   N1    1.435393 S    
C46   C66   1.401439 A    
C77   H13   1.077889 S    
C85   C105  1.500597 S    
C62   H6    1.079647 S    
C59   C63   1.367600 A    
O4    Cr4   2.066965 S    
C15   C90   1.478023 S    
C63   C67   1.366212 A    
O6    C2    1.283367 A    
O1    C9    1.285977 A    
O3    C11   1.286010 A    
C107  H23   1.072671 S    
C14   C91   1.477248 S    
C52   C56   1.417742 A    
C16   O36   1.260096 A    
O40   C20   1.285595 A    
N2    O59   1.299743 A    
N18   O96   1.293266 A    
N4    O63   1.299743 A    
C74   C78   1.400447 A    
C28   C35   1.389758 A    
C42   N10   1.438543 S    
C35   C36   1.384830 A    
N3    O62   1.301165 A    
C40   C112  1.506193 S    
C58   C62   1.390367 A    
N20   O99   1.301128 A    
N14   O87   1.300875 A    
C97   N5    1.442169 S    
O5    C1    1.276464 A    
C59   C115  1.443195 S    
C89   C93   1.420910 A    
C47   C67   1.418664 A    
C114  O102  1.221280 D    
N8    O71   1.301631 A    
O16   C8    1.295992 A    
C71   C76   1.396240 A    
C99   C103  1.409204 A    
C71   C72   1.368150 A    
C105  O53   1.220267 D    
C48   C68   1.401446 A    
