data_mof_unit_7569.cif
_audit_creation_date              2012-12-10T19:15:17-0500
_audit_creation_method            fapswitch 2.2
_symmetry_space_group_name_H-M    P1
_symmetry_Int_Tables_number       1
_space_group_crystal_system       triclinic
_cell_length_a                    10.615672
_cell_length_b                    9.770292
_cell_length_c                    23.247134
_cell_angle_alpha                 90.022488
_cell_angle_beta                  89.565906
_cell_angle_gamma                 90.067951
_cell_volume                      2411.08017307

loop_
_atom_site_label
_atom_site_type_symbol
_atom_type_description
_atom_site_fract_x
_atom_site_fract_y
_atom_site_fract_z
_atom_type_partial_charge
C1    C     C_R   0.257939 0.500032 0.501917 0.818211
C2    C     C_R   0.455229 0.286350 0.974414 -0.149163
C3    C     C_R   0.460908 0.286658 0.034171 -0.161147
C4    C     C_R   0.523574 0.392622 0.063032 -0.017153
C5    C     C_R   0.583608 0.497371 0.031450 -0.019023
C6    C     C_R   0.647059 0.603932 0.060138 -0.021282
C7    C     C_R   0.706936 0.707443 0.028184 -0.163734
C8    C     C_R   0.701931 0.706581 0.968305 -0.149673
C9    C     C_R   0.524989 0.398803 0.122958 0.540181
C10   C     C_R   0.646303 0.605306 0.120284 0.546906
C11   C     C_R   0.642317 0.426877 0.245440 -0.210337
C12   C     C_R   0.502595 0.500313 0.389491 0.882288
C13   C     C_R   0.618835 0.421814 0.304129 -0.250798
C14   C     C_R   0.523367 0.502829 0.328057 -0.069970
C15   C     C_R   0.456493 0.595121 0.293996 -0.334623
C16   C     C_R   0.481984 0.603427 0.234978 0.521223
C17   C     C_R   0.572228 0.514953 0.210841 0.249446
C18   C     C_R   0.482197 0.607791 0.765015 -0.085718
C19   C     C_R   0.466761 0.606943 0.705707 -0.268627
C20   C     C_R   0.516838 0.499426 0.672841 -0.196121
C21   C     C_R   0.584974 0.394165 0.699610 0.636897
C22   C     C_R   0.601305 0.396302 0.758745 -0.171236
C23   C     C_R   0.742259 0.500169 0.502034 0.823719
C24   C     C_R   0.549212 0.502250 0.791554 0.204892
C25   C     C_3   0.071855 0.643273 0.521670 -0.396009
C26   C     C_3   0.071571 0.392232 0.546708 -0.384209
C27   C     C_3   0.928599 0.642580 0.522714 -0.363044
C28   C     C_3   0.927005 0.391235 0.546303 -0.363058
C29   C     C_3   0.073162 0.465931 0.442236 -0.413589
C30   C     C_3   0.121502 0.500282 0.503193 0.161348
C31   C     C_3   0.878736 0.500453 0.503334 0.131072
C32   C     C_3   0.928745 0.467646 0.442164 -0.388435
C33   C     C_3   0.374682 0.080490 0.482858 -0.442700
C34   C     C_3   0.376845 0.918664 0.479882 -0.446984
C35   C     C_3   0.593459 0.082119 0.455842 0.835740
C36   C     C_3   0.606452 0.918205 0.462583 0.749555
C37   C     C_3   0.528796 0.079883 0.556731 0.474567
C38   C     C_3   0.518177 0.918276 0.557866 0.456396
C39   C     C_R   0.502697 0.499912 0.610674 0.912328
C40   C     C_R   0.627293 0.601249 0.879435 0.522534
C41   C     C_R   0.504181 0.396049 0.882708 0.523021
C42   C     C_R   0.512501 0.391726 0.942561 -0.022751
C43   C     C_R   0.578213 0.496773 0.971071 -0.018674
C44   C     C_R   0.636744 0.602343 0.939398 -0.023229
H1    H     H_    0.404881 0.204138 0.953351 0.194972
H2    H     H_    0.414486 0.688953 0.685625 0.237512
H3    H     H_    0.654055 0.315355 0.779315 0.181056
H4    H     H_    0.104691 0.723429 0.490931 0.181172
H5    H     H_    0.106437 0.288226 0.535276 0.196283
H6    H     H_    0.107792 0.670677 0.565069 0.196572
H7    H     H_    0.105634 0.416298 0.590748 0.181527
H8    H     H_    0.893756 0.667004 0.566841 0.191099
H9    H     H_    0.890068 0.412765 0.590335 0.183283
H10   H     H_    0.895400 0.724382 0.493542 0.233351
H11   H     H_    0.893771 0.287339 0.533842 0.239661
H12   H     H_    0.109705 0.541904 0.410525 0.160845
H13   H     H_    0.107281 0.363102 0.428567 0.175589
H14   H     H_    0.895050 0.545923 0.411077 0.156330
H15   H     H_    0.892955 0.366330 0.427555 0.210211
H16   H     H_    0.341492 0.124302 0.441886 0.198998
H17   H     H_    0.350220 0.876937 0.437524 0.173204
H18   H     H_    0.414641 0.204804 0.057635 0.187098
H19   H     H_    0.302350 0.112808 0.514953 0.251600
H20   H     H_    0.299903 0.879576 0.508122 0.257304
H21   H     H_    0.625567 0.110503 0.569477 0.131921
H22   H     H_    0.604456 0.874709 0.577501 0.124851
H23   H     H_    0.756494 0.790125 0.049312 0.191436
H24   H     H_    0.747985 0.788523 0.944831 0.195345
H25   H     H_    0.712418 0.359889 0.226473 0.167748
H26   H     H_    0.673891 0.353737 0.330765 0.204668
H27   H     H_    0.383269 0.657851 0.313130 0.148287
H28   H     H_    0.441241 0.689490 0.790462 0.176941
N1    N     N_R   0.560863 0.499831 0.852612 -0.343993
N2    N     N_R   0.583929 0.505061 0.149997 -0.334998
N3    N     N_3   0.499750 0.138610 0.498760 -0.180859
N4    N     N_3   0.499750 0.861390 0.498760 -0.167730
O1    O     O_R   0.314910 0.616040 0.499990 -0.626987
O2    O     O_R   0.314910 0.383960 0.499990 -0.631748
O3    O     O_R   0.500080 0.616070 0.416130 -0.566880
O4    O     O_R   0.500080 0.383930 0.416130 -0.561872
O5    O     O_R   0.685320 0.616040 0.499970 -0.583395
O6    O     O_R   0.685320 0.383960 0.499970 -0.558940
O7    O     O_R   0.500150 0.616010 0.583820 -0.589899
O8    O     O_R   0.500150 0.383990 0.583820 -0.508768
O9    O     O_2   0.684036 0.700232 0.848090 -0.540195
O10   O     O_2   0.438474 0.298527 0.854709 -0.536563
O11   O     O_2   0.465793 0.301180 0.154165 -0.586094
O12   O     O_2   0.705969 0.706181 0.148941 -0.583138
Zn1   Zn    Zn3+2 0.500150 0.654960 0.499970 1.015871
Zn2   Zn    Zn3+2 0.500150 0.345040 0.499970 1.054062
F1    F     F_    0.638880 0.291708 0.668602 -0.641281
O13   O     O_3   0.571895 0.139138 0.399483 -0.582060
C45   C     C_3   0.504796 0.062940 0.357575 0.046878
H29   H     H_    0.448458 0.979170 0.374723 0.150234
H30   H     H_    0.572591 0.020367 0.325948 0.178159
C46   C     C_3   0.415089 0.154150 0.323879 -0.832989
H31   H     H_    0.467524 0.214064 0.291219 0.283086
H32   H     H_    0.346107 0.089585 0.300527 0.205311
H33   H     H_    0.362211 0.224353 0.352659 0.261590
O14   O     O_3   0.615130 0.846741 0.409347 -0.618834
C47   C     C_3   0.737044 0.857419 0.383916 0.161930
H34   H     H_    0.809986 0.809189 0.411085 0.189231
H35   H     H_    0.763212 0.966128 0.376205 0.170407
C48   C     C_3   0.740300 0.781184 0.326891 -0.881069
H36   H     H_    0.659851 0.811189 0.299634 0.249084
H37   H     H_    0.829452 0.804533 0.303598 0.229314
H38   H     H_    0.736369 0.669493 0.334901 0.260459
F2    F     F_    0.447340 0.133191 0.597839 -0.559805
F3    F     F_    0.420189 0.878194 0.594063 -0.611531
F4    F     F_    0.710453 0.133886 0.470545 -0.667552
F5    F     F_    0.717473 0.893739 0.492955 -0.727832
O15   O     O_3   0.410656 0.685542 0.199229 -0.605988
C49   C     C_3   0.430019 0.824645 0.213349 0.080850
H39   H     H_    0.532218 0.849634 0.216236 0.169582
H40   H     H_    0.382478 0.850586 0.254706 0.128935
C50   C     C_3   0.374092 0.913932 0.166495 -0.746057
H41   H     H_    0.271622 0.893235 0.162592 0.255553
H42   H     H_    0.387916 0.023567 0.177394 0.239261
H43   H     H_    0.421257 0.892208 0.124662 0.259361

loop_
_geom_bond_atom_site_label_1
_geom_bond_atom_site_label_2
_ccdc_geom_bond_type
C12   O3    A    
C45   H29   S    
C23   O6    A    
C1    O1    A    
C41   C42   A    
C35   C36   S    
C32   H14   S    
C48   H37   S    
C19   H2    S    
C7    C8    A    
C38   N4    S    
O2    Zn2   S    
C41   O10   S    
C35   N3    S    
C47   H34   S    
C18   C24   A    
O13   C45   S    
C37   C38   S    
C39   O8    A    
C29   C32   S    
C5    C6    A    
C24   N1    S    
C13   H26   S    
C15   C16   A    
C46   H33   S    
C11   C13   A    
C40   N1    A    
C18   C19   A    
C25   H6    S    
O15   C49   S    
C36   N4    S    
N3    Zn2   S    
C33   N3    S    
C38   H22   S    
C16   C17   A    
C37   H21   S    
N4    Zn1   S    
C49   C50   S    
O5    Zn1   S    
C35   O13   S    
C22   H3    S    
C37   N3    S    
C47   H35   S    
C21   C22   A    
C1    O2    A    
O8    Zn2   S    
C48   H36   S    
C28   H11   S    
C2    H1    S    
C18   H28   S    
O7    Zn1   S    
C27   H10   S    
C27   C31   S    
C37   F2    S    
C26   H5    S    
C20   C39   S    
C41   N1    A    
C34   H17   S    
C46   H32   S    
C23   C31   S    
C40   O9    S    
C43   C44   A    
C29   C30   S    
C31   C32   S    
C33   H19   S    
C10   O12   S    
C46   H31   S    
C36   F5    S    
C34   H20   S    
C33   C34   S    
C36   O14   S    
C38   F3    S    
C25   H4    S    
C35   F4    S    
C12   C14   S    
C8    H24   S    
C33   H16   S    
C17   N2    S    
C22   C24   A    
C25   C27   S    
C9    N2    A    
C3    C4    A    
C27   H8    S    
C16   O15   S    
C49   H39   S    
C21   F1    S    
C3    H18   S    
C25   C30   S    
C11   C17   A    
C23   O5    A    
C28   C31   S    
C8    C44   A    
C29   H13   S    
C4    C5    A    
C6    C10   A    
C28   H9    S    
C11   H25   S    
C26   C30   S    
C6    C7    A    
O1    Zn1   S    
C29   H12   S    
C45   C46   S    
C15   H27   S    
C26   C28   S    
O6    Zn2   S    
C50   H43   S    
C19   C20   A    
C2    C3    A    
C39   O7    A    
C26   H7    S    
C9    O11   S    
C10   N2    A    
C2    C42   A    
C12   O4    A    
C1    C30   S    
C50   H42   S    
C50   H41   S    
O4    Zn2   S    
O3    Zn1   S    
C7    H23   S    
C40   C44   A    
C20   C21   A    
C45   H30   S    
C42   C43   A    
C14   C15   A    
C5    C43   A    
O14   C47   S    
C47   C48   S    
C32   H15   S    
C4    C9    A    
C13   C14   A    
C48   H38   S    
C34   N4    S    
C49   H40   S    
