data_mof_unit_9600.cif
_audit_creation_date              2012-12-10T17:17:56-0500
_audit_creation_method            fapswitch 2.2
_symmetry_space_group_name_H-M    P1
_symmetry_Int_Tables_number       1
_space_group_crystal_system       triclinic
_cell_length_a                    14.507732
_cell_length_b                    16.144378
_cell_length_c                    9.623928
_cell_angle_alpha                 89.615797
_cell_angle_beta                  88.68875
_cell_angle_gamma                 89.68901
_cell_volume                      2253.42784973

loop_
_atom_site_label
_atom_site_type_symbol
_atom_type_description
_atom_site_fract_x
_atom_site_fract_y
_atom_site_fract_z
_atom_type_partial_charge
C1    C     C_R   0.378330 0.883710 0.501514 0.792342
C2    C     C_R   0.380782 0.118191 0.500190 0.810994
C3    C     C_R   0.877696 0.383990 0.501745 0.791542
C4    C     C_R   0.878241 0.616231 0.500633 0.802660
C5    C     C_R   0.338671 0.264979 0.473114 0.237760
C6    C     C_R   0.310655 0.758863 0.401794 0.247838
C7    C     C_R   0.805930 0.738633 0.395165 0.238480
C8    C     C_R   0.800473 0.266311 0.391439 0.233249
C9    C     C_R   0.735977 0.796006 0.389946 -0.167316
C10   C     C_R   0.732131 0.207705 0.388242 -0.183600
C11   C     C_R   0.274021 0.328142 0.476468 -0.201619
C12   C     C_R   0.242025 0.700711 0.396193 -0.179449
C13   C     C_R   0.670424 0.802710 0.497418 -0.156231
C14   C     C_R   0.670605 0.196808 0.499557 -0.136984
C15   C     C_R   0.181020 0.311073 0.499646 -0.139527
C16   C     C_R   0.172279 0.696155 0.497468 -0.157499
C17   C     C_R   0.681090 0.018598 0.124468 0.147337
C18   C     C_R   0.162474 0.443324 0.128292 0.283385
C19   C     C_R   0.756755 0.037794 0.031779 0.163135
C20   C     C_R   0.224109 0.397289 0.044705 0.131878
C21   C     C_R   0.747366 0.032234 0.891490 0.124567
C22   C     C_R   0.230715 0.416947 0.903590 0.075998
C23   C     C_R   0.664623 0.009717 0.839844 -0.245883
C24   C     C_R   0.163522 0.468508 0.847802 -0.180067
C25   C     C_R   0.582904 0.005499 0.920105 0.143851
C26   C     C_R   0.080375 0.482838 0.921550 0.145314
C27   C     C_R   0.586195 0.007473 0.070399 0.138380
C28   C     C_R   0.080240 0.477461 0.070183 0.103835
C29   C     C_R   0.421198 0.994445 0.076667 -0.004661
C30   C     C_R   0.923542 0.519378 0.076442 0.034955
C31   C     C_R   0.612586 0.123101 0.499552 0.881775
C32   C     C_R   0.612112 0.876519 0.499626 0.875208
C33   C     C_R   0.113539 0.622625 0.499117 0.847762
C34   C     C_R   0.117298 0.380392 0.499720 0.834196
C35   C     C_R   0.421270 0.995126 0.929354 -0.040434
C36   C     C_R   0.923241 0.518000 0.928891 -0.038906
C37   C     C_R   0.185735 0.081281 0.529724 -0.170746
C38   C     C_R   0.217082 0.888324 0.697212 -0.179299
C39   C     C_R   0.715983 0.607388 0.690873 -0.155437
C40   C     C_R   0.732747 0.372185 0.728845 -0.147288
C41   C     C_R   0.092129 0.063711 0.547770 -0.118581
C42   C     C_R   0.140944 0.890219 0.788041 -0.140156
C43   C     C_R   0.642367 0.605999 0.786380 -0.123038
C44   C     C_R   0.664426 0.366718 0.832375 -0.124357
C45   C     C_R   0.578104 0.669985 0.788281 -0.097952
C46   C     C_R   0.595535 0.308306 0.823445 -0.108283
C47   C     C_R   0.027718 0.127883 0.554034 -0.090872
C48   C     C_R   0.074466 0.828943 0.782624 -0.114357
C49   C     C_R   0.586789 0.735360 0.693971 -0.139996
C50   C     C_R   0.596114 0.253545 0.712884 -0.107580
C51   C     C_R   0.056437 0.209875 0.540295 -0.112071
C52   C     C_R   0.084116 0.764971 0.687105 -0.136522
C53   C     C_R   0.662458 0.739221 0.598585 0.087756
C54   C     C_R   0.668103 0.254143 0.610389 0.106084
C55   C     C_R   0.150689 0.228921 0.520274 0.086267
C56   C     C_R   0.162257 0.760098 0.596616 0.097580
C57   C     C_R   0.216526 0.163867 0.518007 0.049182
C58   C     C_R   0.229861 0.823426 0.600187 0.064411
C59   C     C_R   0.729057 0.674626 0.597952 0.069568
C60   C     C_R   0.736790 0.316316 0.615243 0.070829
C61   C     C_R   0.311092 0.183082 0.499183 -0.153908
C62   C     C_R   0.306114 0.820842 0.503707 -0.178676
C63   C     C_R   0.804407 0.677807 0.500377 -0.176602
C64   C     C_R   0.804869 0.321133 0.504912 -0.180490
Cu1   Cu    Cu3+1 0.499990 0.000000 0.640660 0.929537
Cu2   Cu    Cu3+1 0.999990 0.500000 0.640660 0.937701
Cu3   Cu    Cu3+1 0.500010 0.000000 0.359340 1.019150
Cu4   Cu    Cu3+1 0.000010 0.500000 0.359340 1.033282
H1    H     H_    0.669111 0.998347 0.732637 0.234460
H2    H     H_    0.175949 0.493678 0.745869 0.205297
H3    H     H_    0.356339 0.991690 0.877178 0.120895
H4    H     H_    0.860106 0.532469 0.876614 0.113311
H5    H     H_    0.233507 0.029951 0.521322 0.111182
H6    H     H_    0.263311 0.939880 0.702604 0.146051
H7    H     H_    0.760128 0.553975 0.687719 0.128708
H8    H     H_    0.779932 0.421876 0.741690 0.147664
H9    H     H_    0.069396 0.000080 0.555852 0.159139
H10   H     H_    0.132444 0.940687 0.860823 0.151220
H11   H     H_    0.634006 0.554196 0.857257 0.135826
H12   H     H_    0.663748 0.409522 0.918482 0.136766
H13   H     H_    0.519815 0.667799 0.860475 0.167076
H14   H     H_    0.540409 0.306335 0.901169 0.151464
H15   H     H_    0.955133 0.114077 0.567735 0.151190
H16   H     H_    0.014232 0.831810 0.850988 0.164065
H17   H     H_    0.531565 0.780404 0.693758 0.168329
H18   H     H_    0.536972 0.213675 0.706797 0.175787
H19   H     H_    0.004402 0.257901 0.544037 0.135687
H20   H     H_    0.028019 0.721502 0.682313 0.164962
H21   H     H_    0.735927 0.837446 0.302271 0.227985
H22   H     H_    0.729648 0.168217 0.298624 0.205680
H23   H     H_    0.296952 0.391236 0.461690 0.205727
H24   H     H_    0.246046 0.657176 0.313153 0.233205
H25   H     H_    0.356305 0.989972 0.133790 0.135133
H26   H     H_    0.860651 0.534889 0.133145 0.140717
N1    N     N_R   0.501200 0.000000 0.147910 -0.173533
N2    N     N_R   0.001200 0.500000 0.147910 -0.174096
N3    N     N_R   0.501270 0.000000 0.852040 -0.188821
N4    N     N_R   0.001270 0.500000 0.852040 -0.185344
O1    O     O_R   0.409820 0.909830 0.618810 -0.605092
O2    O     O_R   0.409820 0.090170 0.618810 -0.599993
O3    O     O_R   0.909820 0.409830 0.618810 -0.602708
O4    O     O_R   0.909820 0.590170 0.618810 -0.611800
O5    O     O_R   0.409840 0.909830 0.381240 -0.543780
O6    O     O_R   0.409840 0.090170 0.381240 -0.563642
O7    O     O_R   0.909840 0.409830 0.381240 -0.529868
O8    O     O_R   0.909840 0.590170 0.381240 -0.546158
O9    O     O_R   0.590170 0.090170 0.618760 -0.625003
O10   O     O_R   0.590170 0.909830 0.618760 -0.618291
O11   O     O_R   0.090170 0.590170 0.618760 -0.611344
O12   O     O_R   0.090170 0.409830 0.618760 -0.602420
O13   O     O_R   0.590190 0.090180 0.381190 -0.529052
O14   O     O_R   0.590190 0.909820 0.381190 -0.517031
O15   O     O_R   0.090190 0.590180 0.381190 -0.522397
O16   O     O_R   0.090190 0.409820 0.381190 -0.534040
Br1   Br    Br    0.463138 0.294331 0.424956 -0.541084
Br2   Br    Br    0.412665 0.743994 0.271824 -0.480474
Br3   Br    Br    0.904559 0.752817 0.259108 -0.512504
Br4   Br    Br    0.889501 0.261364 0.239119 -0.526983
N5    N     N_3   0.825249 0.045835 0.799508 -0.537789
H27   H     H_    0.837533 0.991774 0.742554 0.218961
H28   H     H_    0.808047 0.093027 0.729576 0.222041
N6    N     N_3   0.308326 0.388866 0.821018 -0.574092
H29   H     H_    0.299411 0.325621 0.803333 0.224938
H30   H     H_    0.309262 0.418125 0.723818 0.231309
Br5   Br    Br    0.736598 0.998887 0.303584 -0.606383
Br6   Br    Br    0.235998 0.501272 0.256648 -0.523839
N7    N     N_3   0.848211 0.057015 0.076606 -0.505748
H31   H     H_    0.844941 0.104527 0.149096 0.278361
H32   H     H_    0.879164 0.004238 0.118927 0.269128
N8    N     N_3   0.291893 0.345060 0.108092 -0.515369
H33   H     H_    0.288154 0.286377 0.063391 0.221812
H34   H     H_    0.357410 0.369064 0.085643 0.275196

loop_
_geom_bond_atom_site_label_1
_geom_bond_atom_site_label_2
_ccdc_geom_bond_type
C58   C62   A    
Cu2   Cu4   S    
C15   C34   S    
Cu2   N4    S    
C40   C60   A    
C23   H1    S    
C13   C32   S    
C27   N1    A    
C14   C31   S    
C44   H12   S    
C1    C62   S    
C1    O1    A    
C16   C56   A    
C53   C59   A    
Cu3   O5    S    
C54   C60   A    
C3    C64   S    
C3    O7    A    
C4    C63   S    
Cu4   N2    S    
C19   C21   A    
C24   C26   A    
C5    C11   A    
C41   H9    S    
C43   H11   S    
C9    C13   A    
C39   C59   A    
Cu2   O4    S    
C30   N2    A    
C36   N4    A    
C46   H14   S    
C11   C15   A    
C12   C16   A    
Cu1   Cu3   S    
C4    O4    A    
C40   C44   A    
C39   H7    S    
C1    O5    A    
Cu1   O10   S    
C18   C20   A    
C2    C61   S    
Cu4   O15   S    
C33   O15   A    
C3    O3    A    
C46   C50   A    
C35   H3    S    
C38   C58   A    
C5    Br1   S    
Cu3   N1    S    
Cu2   O3    S    
Cu4   O8    S    
C29   H25   S    
C44   C46   A    
Cu3   O6    S    
C22   N6    S    
C13   C53   A    
N5    H28   S    
C31   O9    A    
C8    Br4   S    
C17   C27   A    
C49   H17   S    
C52   H20   S    
C18   C28   A    
Cu1   O1    S    
C10   C14   A    
C9    H21   S    
C29   N1    A    
C30   H26   S    
C39   C43   A    
C4    O8    A    
C60   C64   A    
C48   H16   S    
C15   C55   A    
N8    H34   S    
N7    H32   S    
C11   H23   S    
C16   C33   S    
C45   C49   A    
C6    Br2   S    
C41   C47   A    
C5    C61   A    
C42   C48   A    
Cu2   O12   S    
C43   C45   A    
C7    C63   A    
C8    C64   A    
C25   N3    A    
C14   C54   A    
C26   N4    A    
C2    O6    A    
C42   H10   S    
C47   H15   S    
C21   C23   A    
C34   O12   A    
C22   C24   A    
C34   O16   A    
Cu4   O7    S    
N6    H30   S    
N7    H31   S    
C38   H6    S    
Cu3   O13   S    
C7    C9    A    
C37   H5    S    
C32   O14   A    
C59   C63   A    
C12   H24   S    
C8    C10   A    
C45   H13   S    
Cu1   O2    S    
C20   C22   A    
C47   C51   A    
N5    H27   S    
C57   C61   A    
C25   C27   A    
C29   C35   A    
C51   H19   S    
C26   C28   A    
C7    Br3   S    
C30   C36   A    
C28   N2    A    
C6    C62   A    
C55   C57   A    
N8    H33   S    
Cu1   N3    S    
C50   C54   A    
C18   Br6   S    
C6    C12   A    
C17   Br5   S    
C24   H2    S    
C52   C56   A    
C49   C53   A    
C19   N7    S    
C17   C19   A    
C56   C58   A    
C51   C55   A    
C23   C25   A    
Cu2   O11   S    
C37   C41   A    
C50   H18   S    
C2    O2    A    
C38   C42   A    
C40   H8    S    
Cu3   O14   S    
C48   C52   A    
C33   O11   A    
C10   H22   S    
C21   N5    S    
C32   O10   A    
C31   O13   A    
C20   N8    S    
N6    H29   S    
C35   N3    A    
Cu1   O9    S    
C37   C57   A    
C36   H4    S    
Cu4   O16   S    
