data_mof_unit_50470.cif
_audit_creation_date              2012-12-11T14:13:22-0500
_audit_creation_method            fapswitch 2.2
_symmetry_space_group_name_H-M    P1
_symmetry_Int_Tables_number       1
_space_group_crystal_system       triclinic
_cell_length_a                    11.940077
_cell_length_b                    18.451022
_cell_length_c                    10.293928
_cell_angle_alpha                 91.289643
_cell_angle_beta                  110.66583
_cell_angle_gamma                 90.131109
_cell_volume                      2121.23247457

loop_
_atom_site_label
_atom_site_type_symbol
_atom_type_description
_atom_site_fract_x
_atom_site_fract_y
_atom_site_fract_z
_atom_type_partial_charge
C1    C     C_R   0.073015 0.646930 0.138123 0.612236
C2    C     C_2   0.634105 0.061683 0.974631 0.048008
C3    C     C_2   0.603075 0.431789 0.049207 0.090012
C4    C     C_2   0.360747 0.560304 0.022073 0.037628
C5    C     C_2   0.520436 0.952207 0.984973 -0.090709
C6    C     C_2   0.557247 0.028406 0.021170 -0.115115
C7    C     C_2   0.499357 0.455513 0.054750 -0.087717
C8    C     C_2   0.455159 0.529271 0.005615 -0.062986
C9    C     C_2   0.022061 0.925902 0.122893 0.089723
C10   C     C_2   0.967347 0.070848 0.864458 0.133356
C11   C     C_2   0.986754 0.426126 0.892364 0.164913
C12   C     C_R   0.926881 0.354039 0.862279 0.599975
C13   C     C_2   0.972023 0.596271 0.092627 0.093520
C14   C     C_2   0.990102 0.956376 0.998373 0.119680
C15   C     C_2   0.002492 0.037043 0.985646 0.106925
C16   C     C_2   0.975920 0.472135 0.993851 0.115173
C17   C     C_2   0.961136 0.553522 0.979441 0.144994
C18   C     C_R   0.436858 0.638502 0.372715 0.581317
C19   C     C_R   0.557044 0.362638 0.614149 0.590572
C20   C     C_R   0.526922 0.148823 0.554938 0.590217
C21   C     C_R   0.469707 0.854044 0.439456 0.632717
C22   C     C_R   0.349250 0.639967 0.014295 0.568747
C23   C     C_R   0.920993 0.144741 0.855321 0.574544
C24   C     C_R   0.624214 0.355051 0.035531 0.575699
C25   C     C_R   0.648205 0.139903 0.985808 0.582566
C26   C     C_R   0.376134 0.855994 0.968961 0.577923
C27   C     C_R   0.531671 0.437246 0.562666 -0.013236
C28   C     C_R   0.455443 0.561064 0.404500 0.020252
C29   C     C_R   0.499193 0.928846 0.499146 0.062352
C30   C     C_R   0.484416 0.080345 0.473906 0.007601
C31   C     C_R   0.384194 0.470102 0.679974 0.267760
C32   C     C_R   0.635816 0.544653 0.322297 0.276764
C33   C     C_R   0.689296 0.935900 0.453008 0.309059
C34   C     C_R   0.077268 0.854504 0.142969 0.587998
C35   C     C_R   0.290738 0.075925 0.511025 0.304578
C36   C     C_R   0.300442 0.520594 0.690354 -0.129383
C37   C     C_R   0.742162 0.507458 0.338473 -0.144356
C38   C     C_R   0.747571 0.967938 0.373746 -0.130080
C39   C     C_R   0.219973 0.040554 0.572643 -0.084509
C40   C     C_R   0.240188 0.561902 0.579841 -0.102569
C41   C     C_R   0.785477 0.459615 0.442835 -0.034793
C42   C     C_R   0.723594 0.038712 0.330836 -0.059602
C43   C     C_R   0.242418 0.969337 0.613885 -0.092493
C44   C     C_R   0.270969 0.554354 0.462708 0.302629
C45   C     C_R   0.434540 0.477171 0.574003 0.039249
C46   C     C_R   0.722672 0.449852 0.530391 0.303990
C47   C     C_R   0.634384 0.077310 0.358818 0.257597
C48   C     C_R   0.340062 0.932814 0.600277 0.268732
C49   C     C_R   0.386205 0.530254 0.476650 0.027947
C50   C     C_R   0.601399 0.467181 0.490895 -0.060438
C51   C     C_R   0.566289 0.042628 0.429242 -0.057724
C52   C     C_R   0.411100 0.966931 0.534162 0.000540
C53   C     C_R   0.561033 0.524657 0.400711 0.029467
C54   C     C_R   0.585745 0.968757 0.462708 0.020430
C55   C     C_R   0.393487 0.041081 0.502058 0.022904
C56   C     C_2   0.405942 0.931334 0.952159 0.090338
Cr1   Cr    Cr6+3 0.187610 0.750000 0.979860 1.096422
Cr2   Cr    Cr6+3 0.812390 0.250000 0.020140 1.109434
Cr3   Cr    Cr6+3 0.245810 0.750000 0.341640 1.077727
Cr4   Cr    Cr6+3 0.754190 0.250000 0.658360 1.112267
Cr5   Cr    Cr6+3 0.485760 0.750000 0.219910 1.100100
Cr6   Cr    Cr6+3 0.514240 0.250000 0.780090 1.101646
H1    H     H_    0.270948 0.521230 0.776359 0.165876
H2    H     H_    0.589147 0.912160 0.993310 0.175254
H3    H     H_    0.505275 0.563806 0.962058 0.192452
H4    H     H_    0.444603 0.417421 0.085346 0.149071
H5    H     H_    0.350860 0.407589 0.809285 0.339479
H6    H     H_    0.668216 0.605449 0.187184 0.348201
H7    H     H_    0.804140 0.856704 0.502174 0.345146
H8    H     H_    0.187872 0.161014 0.474689 0.343049
H9    H     H_    0.104460 0.550000 0.349496 0.341173
H10   H     H_    0.739807 0.454745 0.723593 0.333618
H11   H     H_    0.527332 0.158848 0.295726 0.334689
H12   H     H_    0.796997 0.520474 0.277836 0.155152
H13   H     H_    0.303120 0.844564 0.676578 0.337071
H14   H     H_    0.812859 0.936802 0.348956 0.157493
H15   H     H_    0.145255 0.068484 0.584830 0.172343
H16   H     H_    0.158551 0.588564 0.576762 0.151175
H17   H     H_    0.874948 0.439077 0.466880 0.190217
H18   H     H_    0.773702 0.063402 0.273932 0.197901
H19   H     H_    0.184387 0.942573 0.658538 0.178121
H20   H     H_    0.515367 0.059568 0.081759 0.180748
I1    I     I_    0.676961 0.016251 0.812550 -0.330076
I2    I     I_    0.007069 0.978155 0.298656 -0.397538
I3    I     I_    0.834501 0.671112 0.088458 -0.275999
I4    I     I_    0.059651 0.454902 0.740881 -0.347030
I5    I     I_    0.274133 0.008555 0.942079 -0.369581
I6    I     I_    0.257467 0.498836 0.103766 -0.361637
I7    I     I_    0.695620 0.494323 0.954353 -0.400084
I8    I     I_    0.127460 0.104211 0.146699 -0.232682
I9    I     I_    0.888529 0.880909 0.833593 -0.159689
I10   I     I_    0.884078 0.603633 0.780447 -0.194771
I11   I     I_    0.984812 0.428117 0.191022 -0.275452
I12   I     I_    0.960210 0.023245 0.671771 -0.316357
O1    O     O_R   0.267710 0.668200 0.902110 -0.497798
O2    O     O_R   0.883280 0.330790 0.732340 -0.443126
O3    O     O_R   0.883280 0.169210 0.732340 -0.478372
O4    O     O_R   0.116720 0.830790 0.267660 -0.489671
O5    O     O_R   0.366710 0.675440 0.427590 -0.489684
O6    O     O_R   0.633290 0.324560 0.572410 -0.487637
O7    O     O_R   0.633290 0.175440 0.572410 -0.463165
O8    O     O_R   0.366710 0.824560 0.427590 -0.461711
O9    O     O_R   0.534870 0.669390 0.371760 -0.428255
O10   O     O_R   0.465130 0.330610 0.628240 -0.432593
O11   O     O_R   0.465130 0.169390 0.628240 -0.467205
O12   O     O_R   0.732290 0.331800 0.097890 -0.474074
O13   O     O_R   0.534870 0.830610 0.371760 -0.475583
O14   O     O_R   0.453080 0.674480 0.075160 -0.456352
O15   O     O_R   0.546920 0.325520 0.924840 -0.462605
O16   O     O_R   0.546920 0.174480 0.924840 -0.485760
O17   O     O_R   0.453080 0.825520 0.075160 -0.509622
O18   O     O_3   0.306390 0.750000 0.180470 -0.354255
O19   O     O_3   0.693610 0.250000 0.819530 -0.346127
O20   O     O_3   0.417625 0.417240 0.775400 -0.654715
O21   O     O_3   0.605696 0.598333 0.227849 -0.653495
O22   O     O_3   0.732162 0.872549 0.521660 -0.610002
O23   O     O_R   0.732290 0.168200 0.097890 -0.470043
O24   O     O_3   0.260912 0.144464 0.458398 -0.632091
O25   O     O_3   0.182843 0.546836 0.336443 -0.658315
O26   O     O_3   0.788570 0.444266 0.666432 -0.663145
O27   O     O_3   0.610345 0.145959 0.305594 -0.659640
O28   O     O_3   0.372868 0.866356 0.660562 -0.665391
O29   O     O_R   0.267710 0.831800 0.902110 -0.498740
O30   O     O_R   0.099480 0.674460 0.038850 -0.486730
O31   O     O_R   0.900520 0.325540 0.961150 -0.480529
O32   O     O_R   0.900520 0.174460 0.961150 -0.494516
O33   O     O_R   0.099480 0.825540 0.038850 -0.470539
O34   O     O_R   0.116720 0.669210 0.267660 -0.488358

loop_
_geom_bond_atom_site_label_1
_geom_bond_atom_site_label_2
_ccdc_geom_bond_type
C44   C49   A    
C37   H12   S    
H7    O22   S    
C42   H18   S    
C6    H20   S    
H13   O28   S    
Cr3   O5    S    
C22   O1    A    
C5    C56   D    
C1    O34   A    
C30   C51   A    
C2    I1    S    
C7    C8    S    
Cr6   O11   S    
C38   H14   S    
C16   I11   S    
C39   H15   S    
Cr5   O9    S    
H5    O20   S    
C38   C42   A    
C48   C52   A    
C3    C7    D    
C10   C15   D    
C48   O28   S    
C5    C6    S    
C47   O27   S    
Cr1   O18   S    
C29   C54   A    
C10   I12   S    
C11   I4    S    
C11   C16   D    
Cr5   O14   S    
C34   O33   A    
Cr2   O19   S    
C41   C46   A    
C36   H1    S    
C19   C27   S    
C43   C48   A    
C31   O20   S    
C27   C50   A    
C4    C8    D    
C18   O9    A    
C27   C45   A    
C8    H3    S    
Cr4   O19   S    
C2    C6    D    
C17   I10   S    
Cr6   O10   S    
C50   C53   A    
C35   C55   A    
C36   C40   A    
C18   C28   S    
Cr6   O19   S    
Cr4   O3    S    
C16   C17   S    
C56   I5    S    
C39   C43   A    
C12   O31   A    
H6    O21   S    
C44   O25   S    
Cr3   O34   S    
C21   C29   S    
Cr2   O23   S    
C5    H2    S    
C25   O23   A    
Cr2   O12   S    
C28   C49   A    
C35   C39   A    
C9    C14   D    
Cr1   O33   S    
Cr1   O29   S    
C4    C22   S    
C19   O10   A    
Cr6   O16   S    
C45   C49   A    
C28   C53   A    
H10   O26   S    
Cr3   O18   S    
C46   O26   S    
C32   C37   A    
C21   O13   A    
C25   O16   A    
C23   O32   A    
C21   O8    A    
Cr4   O2    S    
C23   O3    A    
Cr2   O32   S    
H11   O27   S    
C20   O7    A    
Cr1   O1    S    
C9    C34   S    
C43   H19   S    
C40   H16   S    
C24   O12   A    
C26   O29   A    
Cr4   O7    S    
Cr5   O17   S    
C32   C53   A    
C20   O11   A    
C33   C54   A    
C33   O22   S    
C14   C15   S    
Cr3   O8    S    
C24   O15   A    
C3    C24   S    
Cr4   O6    S    
C26   C56   S    
C18   O5    A    
C41   H17   S    
C47   C51   A    
C19   O6    A    
C52   C55   A    
C4    I6    S    
H9    O25   S    
C10   C23   S    
C30   C55   A    
C46   C50   A    
C33   C38   A    
C13   C17   D    
C3    I7    S    
C51   C54   A    
C1    O30   A    
C20   C30   S    
Cr1   O30   S    
C15   I8    S    
Cr6   O15   S    
H8    O24   S    
C22   O14   A    
C34   O4    A    
C2    C25   S    
C42   C47   A    
C32   O21   S    
C37   C41   A    
Cr5   O13   S    
C14   I9    S    
C9    I2    S    
C40   C44   A    
C1    C13   S    
Cr2   O31   S    
C31   C45   A    
C13   I3    S    
Cr3   O4    S    
C31   C36   A    
C12   O2    A    
C35   O24   S    
Cr5   O18   S    
C26   O17   A    
C11   C12   S    
C7    H4    S    
C29   C52   A    
