data_mof_unit_55779.cif
_audit_creation_date              2012-12-11T14:15:23-0500
_audit_creation_method            fapswitch 2.2
_symmetry_space_group_name_H-M    P1
_symmetry_Int_Tables_number       1
_space_group_crystal_system       triclinic
_cell_length_a                    11.172511
_cell_length_b                    12.704309
_cell_length_c                    23.588711
_cell_angle_alpha                 90.40154
_cell_angle_beta                  96.49828
_cell_angle_gamma                 68.469093
_cell_volume                      3092.35335576

loop_
_atom_site_label
_atom_site_type_symbol
_atom_type_description
_atom_site_fract_x
_atom_site_fract_y
_atom_site_fract_z
_atom_type_partial_charge
C1    C     C_R   0.149164 0.616847 0.428749 0.543977
C2    C     C_R   0.598478 0.604980 0.320367 -0.124525
C3    C     C_R   0.727485 0.723244 0.319975 -0.094413
C4    C     C_R   0.692595 0.746791 0.261522 0.020377
C5    C     C_R   0.612539 0.694288 0.233104 0.005381
C6    C     C_R   0.587301 0.703863 0.174980 -0.174114
C7    C     C_R   0.716202 0.821260 0.169509 0.204663
C8    C     C_R   0.742794 0.813546 0.230045 0.002977
C9    C     C_1   0.235477 0.161733 0.123070 0.010271
C10   C     C_2   0.181121 0.232288 0.226568 -0.112529
C11   C     C_2   0.156964 0.164455 0.263350 -0.108752
C12   C     C_R   0.748627 0.605477 0.404893 0.540099
C13   C     C_1   0.133774 0.198777 0.320919 -0.029291
C14   C     C_1   0.210243 0.196433 0.169775 -0.033633
C15   C     C_1   0.117004 0.232247 0.368533 0.012504
C16   C     C_1   0.167648 0.748479 0.123447 0.010430
C17   C     C_2   0.149497 0.677782 0.226730 -0.136383
C18   C     C_2   0.225538 0.691627 0.272166 -0.134105
C19   C     C_1   0.212211 0.659574 0.329172 -0.041048
C20   C     C_1   0.157433 0.716032 0.170101 -0.042433
C21   C     C_1   0.192101 0.636887 0.376001 0.002622
C22   C     C_1   0.627395 0.755195 0.864753 0.016512
C23   C     C_R   0.101343 0.282597 0.423336 0.546669
C24   C     C_2   0.700116 0.700509 0.762048 -0.092332
C25   C     C_2   0.611176 0.704819 0.717963 -0.114994
C26   C     C_1   0.650433 0.669963 0.662394 -0.033551
C27   C     C_1   0.662878 0.731978 0.818217 -0.045081
C28   C     C_1   0.689958 0.639761 0.617143 0.004084
C29   C     C_R   0.195923 0.178097 0.854120 0.011090
C30   C     C_R   0.104738 0.239618 0.642825 0.022992
C31   C     C_R   0.046352 0.134609 0.712424 -0.126452
C32   C     C_R   0.043930 0.165583 0.655619 -0.129088
C33   C     C_R   0.161064 0.287874 0.686271 -0.113902
C34   C     C_R   0.147214 0.615386 0.591519 0.542684
C35   C     C_R   0.163482 0.258270 0.742623 0.033640
C36   C     C_R   0.107899 0.179334 0.755982 0.041651
C37   C     C_R   0.121783 0.141786 0.812287 -0.119849
C38   C     C_R   0.243999 0.261317 0.841264 -0.110008
C39   C     C_R   0.225875 0.302811 0.785556 -0.121005
C40   C     C_R   0.128640 0.743299 0.853622 0.003295
C41   C     C_R   0.178507 0.631283 0.651433 -0.018238
C42   C     C_R   0.314656 0.569727 0.741361 -0.000058
C43   C     C_R   0.296503 0.565347 0.681949 -0.173526
C44   C     C_R   0.077201 0.701666 0.679762 -0.097559
C45   C     C_R   0.749933 0.602183 0.566104 0.543040
C46   C     C_R   0.090985 0.708311 0.738310 0.020081
C47   C     C_R   0.211451 0.643886 0.769770 -0.006051
C48   C     C_R   0.228419 0.663850 0.827432 -0.169631
C49   C     C_R   0.004143 0.794813 0.824293 0.228821
C50   C     C_R   0.986694 0.782357 0.764997 0.201119
C51   C     C_R   0.265749 0.109714 0.069501 0.538202
C52   C     C_R   0.595449 0.776347 0.082199 0.589867
C53   C     C_R   0.189708 0.787741 0.069857 0.546960
C54   C     C_R   0.241097 0.114426 0.907726 0.536939
C55   C     C_R   0.573381 0.776434 0.918013 0.554153
C56   C     C_R   0.099441 0.280129 0.585359 0.539822
C57   C     C_R   0.164185 0.785929 0.907620 0.577907
C58   C     C_R   0.640682 0.763655 0.142855 0.050469
C59   C     C_R   0.684992 0.649112 0.348585 0.003880
C60   C     C_R   0.562198 0.627666 0.262573 -0.132802
Cr1   Cr    Cr6+3 0.189770 0.415650 0.511620 1.036462
Cr2   Cr    Cr6+3 0.930400 0.667320 0.496770 1.048492
Cr3   Cr    Cr6+3 0.879870 0.417010 0.491650 1.041164
Cr4   Cr    Cr6+3 0.149500 0.973980 0.985330 1.068714
Cr5   Cr    Cr6+3 0.457000 0.976510 0.994660 1.084596
Cr6   Cr    Cr6+3 0.411170 0.724270 0.995270 1.039774
H1    H     H_    0.523164 0.664341 0.154619 0.147376
H2    H     H_    0.079081 0.639173 0.231946 0.135229
H3    H     H_    0.508976 0.733714 0.723483 0.131540
H4    H     H_    0.802328 0.669510 0.756551 0.169826
H5    H     H_    0.085485 0.076690 0.822522 0.136379
H6    H     H_    0.300598 0.289942 0.873740 0.157780
H7    H     H_    0.002663 0.074563 0.722225 0.126060
H8    H     H_    0.266825 0.364554 0.775509 0.157860
H9    H     H_    0.996569 0.131206 0.621889 0.125950
H10   H     H_    0.203143 0.349103 0.676131 0.129767
H11   H     H_    0.323442 0.626476 0.851051 0.207994
H12   H     H_    0.372752 0.507996 0.659561 0.117984
H13   H     H_    0.984326 0.749679 0.655923 0.205743
H14   H     H_    0.500127 0.588248 0.240333 0.119581
H15   H     H_    0.564832 0.548286 0.342238 0.141160
H16   H     H_    0.797322 0.753677 0.342550 0.187082
H17   H     H_    0.157204 0.081943 0.250777 0.140447
H18   H     H_    0.181652 0.314474 0.239342 0.136789
H19   H     H_    0.293405 0.732902 0.267091 0.140180
O1    O     O_R   0.196340 0.303200 0.448500 -0.502444
O2    O     O_R   0.811960 0.658090 0.547150 -0.492079
O3    O     O_R   0.757930 0.506140 0.547110 -0.507900
O4    O     O_R   0.988670 0.321620 0.556040 -0.497478
O5    O     O_3   0.000020 0.499990 0.500010 -0.258683
O6    O     O_R   0.113660 0.883270 0.047820 -0.489505
O7    O     O_R   0.186930 0.068530 0.043990 -0.499022
O8    O     O_R   0.377770 0.089040 0.054220 -0.495565
O9    O     O_R   0.562800 0.872960 0.056970 -0.443436
O10   O     O_R   0.555390 0.700940 0.062700 -0.537048
O11   O     O_R   0.295020 0.731920 0.049950 -0.506725
O12   O     O_R   0.199310 0.519670 0.454880 -0.494424
O13   O     O_R   0.094290 0.884230 0.921550 -0.445004
O14   O     O_R   0.168980 0.069410 0.926940 -0.504881
O15   O     O_R   0.358400 0.089990 0.927950 -0.506637
O16   O     O_R   0.544850 0.873850 0.939920 -0.484397
O17   O     O_R   0.536020 0.701900 0.936430 -0.499898
O18   O     O_R   0.277070 0.732810 0.932890 -0.522781
O19   O     O_3   0.339220 0.891590 0.991750 -0.276780
O20   O     O_R   0.045660 0.691380 0.441680 -0.497454
O21   O     O_R   0.811930 0.659460 0.430950 -0.506721
O22   O     O_R   0.757900 0.507620 0.421760 -0.509613
O23   O     O_R   0.988630 0.322990 0.439840 -0.490375
O24   O     O_R   0.196380 0.301720 0.573850 -0.514684
O25   O     O_R   0.199350 0.518300 0.571080 -0.501438
O26   O     O_R   0.045700 0.689900 0.567030 -0.520938
O27   O     O_3   0.760272 0.883821 0.135185 -0.684901
H20   H     H_    0.787551 0.938245 0.158115 0.325936
O28   O     O_3   0.904279 0.859609 0.854074 -0.680075
H21   H     H_    0.820761 0.863238 0.833287 0.333287
C61   C     C_2   0.441841 0.493923 0.770688 0.198022
H22   H     H_    0.527295 0.470850 0.748429 0.118759
O29   O     O_2   0.451881 0.450951 0.817968 -0.522274
O30   O     O_3   0.872760 0.845970 0.731799 -0.739807
H23   H     H_    0.832789 0.919416 0.749750 0.338726
C62   C     C_2   0.824073 0.872655 0.259058 0.191992
H24   H     H_    0.911389 0.869852 0.242059 0.118239
O31   O     O_2   0.791289 0.928904 0.300729 -0.497748

loop_
_geom_bond_atom_site_label_1
_geom_bond_atom_site_label_2
_ccdc_geom_bond_type
C12   O21   A    
C1    C21   S    
Cr3   O3    S    
C6    C58   A    
C35   C36   A    
C9    C51   S    
C24   C27   S    
Cr5   O16   S    
C4    C8    A    
Cr1   O24   S    
C32   H9    S    
O28   H21   S    
C24   H4    S    
C7    C8    A    
Cr2   O20   S    
C61   H22   S    
C43   H12   S    
C55   O17   A    
C36   C37   A    
C45   O2    A    
C55   O16   A    
C38   C39   A    
C2    C60   A    
C8    C62   S    
C31   H7    S    
C29   C54   S    
C23   O23   A    
C40   C49   A    
C17   C20   S    
C7    O27   S    
C52   O10   A    
C40   C48   A    
C18   C19   S    
C39   H8    S    
C10   H18   S    
Cr6   O17   S    
C16   C53   S    
C12   C59   S    
Cr4   O14   S    
Cr2   O26   S    
C31   C32   A    
C23   O1    A    
C29   C38   A    
C53   O6    A    
C52   O9    A    
C7    C58   A    
C5    C60   A    
Cr4   O13   S    
C49   O28   S    
C53   O11   A    
C34   O26   A    
C41   C43   A    
C54   O15   A    
C34   C41   S    
Cr1   O25   S    
O27   H20   S    
C44   C46   A    
C57   O18   A    
C38   H6    S    
C28   C45   S    
C18   H19   S    
C50   O30   S    
Cr6   O19   S    
C45   O3    A    
C24   C25   D    
C10   C14   S    
C1    O12   A    
C2    C59   A    
C11   H17   S    
C25   C26   S    
C30   C56   S    
C48   H11   S    
C35   C39   A    
C9    C14   T    
C51   O7    A    
C33   H10   S    
C47   C48   A    
C16   C20   T    
Cr3   O4    S    
C3    H16   S    
C17   C18   D    
C62   H24   S    
C52   C58   S    
C51   O8    A    
C42   C61   S    
Cr5   O9    S    
C22   C27   T    
C37   H5    S    
C34   O25   A    
C41   C44   A    
C54   O14   A    
C25   H3    S    
C42   C43   A    
Cr4   O7    S    
Cr3   O22   S    
C3    C4    A    
C56   O24   A    
Cr1   O5    S    
Cr6   O11   S    
Cr4   O19   S    
C56   O4    A    
C46   C47   A    
C60   H14   S    
C17   H2    S    
C40   C57   S    
C30   C33   A    
C19   C21   T    
Cr6   O18   S    
C44   H13   S    
Cr1   O12   S    
Cr5   O15   S    
C4    C5    A    
C12   O22   A    
O30   H23   S    
C22   C55   S    
Cr2   O21   S    
Cr2   O2    S    
C46   C50   A    
C26   C28   T    
Cr4   O6    S    
C10   C11   D    
C13   C15   T    
C6    H1    S    
C30   C32   A    
C11   C13   S    
C5    C6    A    
C57   O13   A    
Cr2   O5    S    
Cr3   O5    S    
C15   C23   S    
Cr5   O8    S    
C33   C35   A    
C61   O29   D    
C42   C47   A    
C62   O31   D    
Cr1   O1    S    
C49   C50   A    
C29   C37   A    
C31   C36   A    
C2    H15   S    
Cr5   O19   S    
Cr3   O23   S    
C1    O20   A    
Cr6   O10   S    
C3    C59   A    
