data_mof_unit_42172.cif
_audit_creation_date              2012-12-10T20:31:07-0500
_audit_creation_method            fapswitch 2.2
_symmetry_space_group_name_H-M    P1
_symmetry_Int_Tables_number       1
_space_group_crystal_system       triclinic
_cell_length_a                    14.915412
_cell_length_b                    10.660229
_cell_length_c                    9.935538
_cell_angle_alpha                 89.783909
_cell_angle_beta                  90.515979
_cell_angle_gamma                 91.127604
_cell_volume                      1579.38732771

loop_
_atom_site_label
_atom_site_type_symbol
_atom_type_description
_atom_site_fract_x
_atom_site_fract_y
_atom_site_fract_z
_atom_type_partial_charge
C1    C     C_R   0.504454 0.260295 0.500346 0.894662
C2    C     C_R   0.184822 0.381875 0.465283 0.399386
C3    C     C_R   0.232300 0.492775 0.499461 -0.181002
C4    C     C_R   0.327454 0.498207 0.499565 0.856380
C5    C     C_R   0.189474 0.600295 0.540407 -0.224619
C6    C     C_R   0.521282 0.063998 0.623283 -0.054700
C7    C     C_R   0.522132 0.129534 0.501928 -0.117235
C8    C     C_R   0.542185 0.066491 0.382541 -0.066848
C9    C     C_R   0.540543 0.936493 0.382013 -0.159364
C10   C     C_R   0.519598 0.871726 0.501223 -0.142136
C11   C     C_R   0.519147 0.935782 0.623127 0.060565
C12   C     C_R   0.909574 0.604789 0.548601 0.023083
C13   C     C_3   0.454548 0.927432 0.737719 0.222308
C14   C     C_3   0.458293 0.070353 0.739775 0.220738
C15   C     C_R   0.423101 0.475599 0.069014 0.044679
C16   C     C_R   0.503323 0.739959 0.499936 0.861272
C17   C     C_R   0.571059 0.548222 0.072902 0.428505
C18   C     C_R   0.571762 0.545983 0.929896 0.451712
C19   C     C_R   0.422567 0.478724 0.928095 0.084780
C20   C     C_3   0.357101 0.372148 0.917902 -0.457540
C21   C     C_3   0.359084 0.365859 0.071685 0.255165
C22   C     C_R   0.672625 0.500853 0.500462 0.945490
C23   C     C_R   0.948993 0.270233 0.452810 0.406379
C24   C     C_R   0.816379 0.608462 0.546419 0.381797
C25   C     C_R   0.768111 0.501609 0.501882 -0.187745
C26   C     C_R   0.810114 0.393220 0.458483 0.343340
C27   C     C_R   0.903475 0.384134 0.473994 -0.111656
C28   C     C_R   0.953295 0.493526 0.511461 -0.082740
C29   C     C_R   0.041749 0.272098 0.445564 -0.090063
C30   C     C_R   0.091413 0.382086 0.471950 0.000919
C31   C     C_R   0.047150 0.492530 0.510116 -0.019818
C32   C     C_R   0.096769 0.602360 0.545416 0.040334
C33   C     C_R   0.052627 0.711535 0.584451 0.357947
C34   C     C_R   0.959792 0.711831 0.586088 -0.119178
Cl1   Cl    Cl    0.501472 0.852987 0.883032 -0.507302
Cl2   Cl    Cl    0.663430 0.620735 0.851493 -0.435419
Cl3   Cl    Cl    0.407267 0.224449 0.132090 -0.515086
Cl4   Cl    Cl    0.110286 0.851323 0.630645 -0.579491
H1    H     H_    0.549198 0.887930 0.287567 0.200815
H2    H     H_    0.552439 0.116286 0.288639 0.225720
H3    H     H_    0.711472 0.717422 0.555983 0.340599
H4    H     H_    0.563632 0.103342 0.857434 0.386995
H5    H     H_    0.616209 0.652393 0.214688 0.362730
H6    H     H_    0.792508 0.266435 0.321744 0.379227
H7    H     H_    0.855129 0.154917 0.508641 0.376260
H8    H     H_    0.292495 0.281875 0.435046 0.342044
H9    H     H_    0.387888 0.887987 0.707039 0.097669
H10   H     H_    0.393290 0.114079 0.713831 0.113639
H11   H     H_    0.291462 0.402641 0.876754 0.183084
H12   H     H_    0.385030 0.290179 0.866363 0.268805
H13   H     H_    0.293970 0.388539 0.118418 0.136029
H14   H     H_    0.074821 0.184833 0.424336 0.242303
H15   H     H_    0.229744 0.682395 0.567099 0.203269
H16   H     H_    0.927229 0.797339 0.615470 0.242465
N1    N     N_R   0.499390 0.499140 0.142800 -0.167745
N2    N     N_R   0.499390 0.499180 0.857150 -0.156533
O1    O     O_R   0.500010 0.316790 0.614690 -0.613733
O2    O     O_3   0.498601 0.121836 0.856620 -0.657323
O3    O     O_3   0.641759 0.606247 0.138538 -0.681967
O4    O     O_3   0.757930 0.300721 0.397473 -0.750668
O5    O     O_3   0.906393 0.154443 0.445907 -0.723960
O6    O     O_3   0.226603 0.272407 0.427702 -0.752652
O7    O     O_R   0.500000 0.316760 0.385350 -0.569762
O8    O     O_R   0.367850 0.499990 0.614680 -0.613615
O9    O     O_R   0.367840 0.499950 0.385340 -0.608526
O10   O     O_R   0.500000 0.683240 0.614650 -0.569070
O11   O     O_R   0.499990 0.683210 0.385310 -0.651635
O12   O     O_R   0.632160 0.500050 0.614660 -0.575203
O13   O     O_R   0.632150 0.500010 0.385320 -0.585618
O14   O     O_3   0.775365 0.718746 0.583308 -0.710854
Zn1   Zn    Zn3+2 0.500010 0.500020 0.653130 1.038588
Zn2   Zn    Zn3+2 0.499990 0.499980 0.346870 1.021124

loop_
_geom_bond_atom_site_label_1
_geom_bond_atom_site_label_2
_ccdc_geom_bond_type
C19   N2    A    
O13   Zn2   S    
C20   H12   S    
C15   N1    A    
C28   C31   A    
C13   Cl1   S    
C29   C30   A    
C23   C27   A    
C6    C14   S    
O9    Zn2   S    
C9    C10   A    
C17   N1    A    
C22   O13   A    
O10   Zn1   S    
H5    O3    S    
C2    C30   A    
N2    Zn1   S    
C32   C33   A    
H4    O2    S    
C19   C20   S    
C17   C18   A    
C5    H15   S    
C24   O14   S    
C7    C8    A    
C16   O11   A    
C10   C16   S    
C13   C14   S    
O1    Zn1   S    
C15   C19   A    
C18   N2    A    
C11   C13   S    
C22   O12   A    
C26   C27   A    
C20   H11   S    
C15   C21   S    
C26   O4    S    
C17   O3    S    
O12   Zn1   S    
C23   C29   A    
C9    H1    S    
O7    Zn2   S    
H8    O6    S    
C33   C34   A    
C34   H16   S    
C6    C7    A    
C2    C3    A    
C25   C26   A    
C6    C11   A    
C30   C31   A    
C14   O2    S    
H6    O4    S    
C21   H13   S    
C16   O10   A    
C10   C11   A    
C12   C34   A    
C3    C4    S    
C1    O7    A    
N1    Zn2   S    
C23   O5    S    
C21   Cl3   S    
C24   C25   A    
C12   C28   A    
O11   Zn2   S    
O8    Zn1   S    
H7    O5    S    
C27   C28   A    
C13   H9    S    
C4    O8    A    
C4    O9    A    
C8    C9    A    
C33   Cl4   S    
C14   H10   S    
C12   C24   A    
C8    H2    S    
C20   C21   S    
C1    C7    S    
C18   Cl2   S    
C29   H14   S    
C5    C32   A    
C31   C32   A    
C2    O6    S    
H3    O14   S    
C3    C5    A    
C22   C25   S    
C1    O1    A    
