data_mof_unit_14183.cif
_audit_creation_date              2012-10-26T20:37:58-0400
_audit_creation_method            fapswitch 2.2
_symmetry_space_group_name_H-M    P1
_symmetry_Int_Tables_number       1
_space_group_crystal_system       triclinic
_cell_length_a                    9.871453
_cell_length_b                    11.052714
_cell_length_c                    13.039247
_cell_angle_alpha                 90.512507
_cell_angle_beta                  76.200979
_cell_angle_gamma                 111.649091
_cell_volume                      1279.21293768

loop_
_atom_site_label
_atom_site_type_symbol
_atom_type_description
_atom_site_fract_x
_atom_site_fract_y
_atom_site_fract_z
_atom_type_partial_charge
C1    C     C_R   0.439219 0.253774 0.507636 0.545980
C2    C     C_R   0.691889 0.530022 0.003432 0.003243
C3    C     C_R   0.312221 0.407147 0.883809 -0.140240
C4    C     C_R   0.672356 0.531530 0.112707 -0.148166
C5    C     C_R   0.576743 0.453661 0.854479 0.012596
C6    C     C_R   0.397605 0.434065 0.143467 -0.004229
C7    C     C_R   0.564122 0.465817 0.963702 0.041123
C8    C     C_R   0.416750 0.416204 0.033533 0.028726
C9    C     C_2   0.404940 0.113891 0.512325 -0.141394
C10   C     C_2   0.594914 0.886131 0.488843 -0.136403
C11   C     C_2   0.516230 0.069698 0.499886 -0.166247
C12   C     C_R   0.560756 0.746234 0.492420 0.563601
C13   C     C_2   0.483391 0.930285 0.503238 -0.161713
C14   C     C_3   0.241626 0.418840 0.212052 -0.242606
C15   C     C_3   0.164292 0.292385 0.287085 -0.412397
C16   C     C_3   0.681504 0.389595 0.794681 -0.263667
C17   C     C_3   0.592710 0.254854 0.763262 -0.430277
C18   C     C_3   0.152304 0.242115 0.036187 -0.280543
C19   C     C_3   0.124766 0.130698 0.963391 -0.448720
C20   C     C_3   0.846387 0.614221 0.933432 -0.271651
C21   C     C_3   0.842688 0.735663 0.881018 -0.433250
C22   C     C_3   0.969615 0.692981 0.426947 -0.100742
C23   C     C_2   0.085997 0.502249 0.482057 -0.018996
C24   C     C_3   0.001020 0.731171 0.309197 -0.403667
C25   C     C_3   0.021098 0.321692 0.606371 -0.117146
C26   C     C_3   0.050322 0.296975 0.711513 -0.374485
C27   C     C_2   0.920849 0.471400 0.481252 -0.010946
C28   C     C_R   0.472684 0.486275 0.702356 0.543068
C29   C     C_R   0.523173 0.498942 0.297276 0.553267
C30   C     C_R   0.529136 0.486343 0.183213 -0.012360
C31   C     C_R   0.456131 0.457053 0.815415 -0.008781
C32   C     C_R   0.293227 0.360712 0.986982 0.004227
Cu1   Cu    Cu3+1 0.647370 0.522180 0.481340 0.907554
Cu2   Cu    Cu3+1 0.352630 0.477820 0.518660 0.898453
H1    H     H_    0.770835 0.577719 0.142963 0.123211
H2    H     H_    0.152318 0.313472 0.370858 0.187778
H3    H     H_    0.048547 0.238670 0.278086 0.105317
H4    H     H_    0.248712 0.506372 0.255762 0.149758
H5    H     H_    0.165826 0.423383 0.163212 0.123126
H6    H     H_    0.505997 0.194365 0.833538 0.146861
H7    H     H_    0.536638 0.263385 0.701155 0.170982
H8    H     H_    0.669019 0.202975 0.732229 0.119829
H9    H     H_    0.763596 0.453647 0.724536 0.169537
H10   H     H_    0.746709 0.369846 0.846420 0.130214
H11   H     H_    0.094826 0.157270 0.892403 0.139551
H12   H     H_    0.214375 0.386876 0.854154 0.122049
H13   H     H_    0.226603 0.106206 0.937988 0.152525
H14   H     H_    0.029557 0.042464 0.006725 0.133128
H15   H     H_    0.165024 0.200609 0.108099 0.161897
H16   H     H_    0.052206 0.269654 0.055867 0.136030
H17   H     H_    0.770397 0.708584 0.824512 0.161857
H18   H     H_    0.799422 0.792235 0.942147 0.148761
H19   H     H_    0.958453 0.798948 0.836470 0.130483
H20   H     H_    0.930703 0.648417 0.981301 0.129890
H21   H     H_    0.892325 0.560206 0.872227 0.132287
H22   H     H_    0.049558 0.666306 0.261470 0.128621
H23   H     H_    0.366529 0.863289 0.517343 0.151704
H24   H     H_    0.895818 0.723790 0.288442 0.177796
H25   H     H_    0.082753 0.833728 0.289548 0.099689
H26   H     H_    0.919271 0.756167 0.474310 0.163531
H27   H     H_    0.077688 0.719662 0.448993 0.078152
H28   H     H_    0.149238 0.269041 0.700362 0.182622
H29   H     H_    0.062311 0.384828 0.755937 0.146845
H30   H     H_    0.952089 0.213843 0.759083 0.079837
H31   H     H_    0.906934 0.322943 0.630591 0.094095
H32   H     H_    0.018841 0.238349 0.557644 0.118494
H33   H     H_    0.632964 0.136653 0.486670 0.144932
H34   H     H_    0.711627 0.953370 0.474539 0.085759
H35   H     H_    0.288341 0.046694 0.525747 0.090117
H36   H     H_    0.839912 0.372757 0.504036 0.122698
H37   H     H_    0.173492 0.577325 0.424561 0.135661
H38   H     H_    0.228449 0.227169 0.271324 0.145113
N1    N     N_2   0.131210 0.444490 0.546730 -0.230456
N2    N     N_2   0.868790 0.555510 0.453270 -0.224941
O1    O     O_R   0.578710 0.332530 0.490040 -0.507296
O2    O     O_R   0.421290 0.667470 0.509960 -0.493308
O3    O     O_R   0.329810 0.295070 0.521560 -0.510620
O4    O     O_R   0.670190 0.704930 0.478440 -0.512725
O5    O     O_R   0.604230 0.515670 0.637800 -0.500592
O6    O     O_R   0.395770 0.484330 0.362200 -0.511107
O7    O     O_R   0.355330 0.478200 0.669330 -0.504171
O8    O     O_R   0.644670 0.521800 0.330670 -0.498736

loop_
_geom_bond_atom_site_label_1
_geom_bond_atom_site_label_2
_ccdc_geom_bond_type
C1    O3    A    
C2    C7    A    
C7    C8    A    
C15   H38   S    
C9    H35   S    
Cu2   O3    S    
C22   H26   S    
C19   H13   S    
Cu1   O4    S    
C14   H4    S    
C18   C19   S    
C28   O5    A    
C26   H30   S    
C17   H8    S    
C15   H3    S    
C5    C16   S    
Cu2   O6    S    
C14   H5    S    
Cu1   O1    S    
C16   C17   S    
C12   O4    A    
Cu2   O7    S    
C23   C27   S    
C27   N2    D    
Cu1   O8    S    
C16   H10   S    
C4    H1    S    
C23   N1    D    
C20   H21   S    
C11   H33   S    
C2    C20   S    
C8    C32   A    
C23   H37   S    
C1    C9    S    
C20   H20   S    
C5    C7    A    
C19   H14   S    
Cu1   O5    S    
C6    C8    A    
C25   C26   S    
C17   H6    S    
C1    O1    A    
C2    C4    A    
C26   H29   S    
C29   C30   S    
C6    C14   S    
Cu1   Cu2   S    
C25   H31   S    
C3    C31   A    
C9    C11   D    
C16   H9    S    
C27   H36   S    
C10   C12   S    
C6    C30   A    
C12   O2    A    
C22   C24   S    
C18   C32   S    
C22   N2    S    
C15   H2    S    
C21   H17   S    
C18   H16   S    
C28   O7    A    
C28   C31   S    
C25   H32   S    
C10   C13   D    
C19   H11   S    
C10   H34   S    
C24   H22   S    
C3    H12   S    
C26   H28   S    
C29   O8    A    
C22   H27   S    
C21   H19   S    
C11   C13   S    
C29   O6    A    
C24   H25   S    
C25   N1    S    
C3    C32   A    
C17   H7    S    
Cu2   N1    S    
Cu1   N2    S    
C13   H23   S    
C20   C21   S    
C24   H24   S    
C14   C15   S    
C21   H18   S    
C4    C30   A    
C18   H15   S    
Cu2   O2    S    
C5    C31   A    
