data_mof_unit_8335.cif
_audit_creation_date              2012-12-10T19:03:07-0500
_audit_creation_method            fapswitch 2.2
_symmetry_space_group_name_H-M    P1
_symmetry_Int_Tables_number       1
_space_group_crystal_system       triclinic
_cell_length_a                    10.808858
_cell_length_b                    10.884285
_cell_length_c                    9.580757
_cell_angle_alpha                 90.999081
_cell_angle_beta                  90.12792
_cell_angle_gamma                 92.342653
_cell_volume                      1126.02623437

loop_
_atom_site_label
_atom_site_type_symbol
_atom_type_description
_atom_site_fract_x
_atom_site_fract_y
_atom_site_fract_z
_atom_type_partial_charge
C1    C     C_R   0.493310 0.262826 0.498582 0.862826
C2    C     C_3   0.878103 0.489436 0.497845 -0.505051
C3    C     C_3   0.932844 0.624600 0.498809 1.019658
C4    C     C_3   0.923744 0.414121 0.366259 0.432989
C5    C     C_R   0.494933 0.066249 0.617346 -0.055108
C6    C     C_R   0.478117 0.130030 0.495927 -0.135036
C7    C     C_R   0.442390 0.060025 0.374962 0.039269
C8    C     C_R   0.437905 0.929979 0.379721 0.546517
C9    C     C_R   0.474360 0.869083 0.501916 -0.149380
C10   C     C_R   0.493015 0.942146 0.621188 -0.135936
C11   C     C_3   0.530202 0.944048 0.772067 -0.185949
C12   C     C_R   0.260206 0.494239 0.499572 0.934225
C13   C     C_3   0.533589 0.085065 0.765128 1.158795
C14   C     C_R   0.600772 0.545591 0.073729 0.032558
C15   C     C_R   0.409846 0.437997 0.072861 0.662685
C16   C     C_R   0.408560 0.439822 0.924407 0.669957
C17   C     C_R   0.602737 0.540231 0.926765 0.012002
C18   C     C_3   0.667941 0.661506 0.915221 0.519314
C19   C     C_3   0.662490 0.672486 0.073174 0.565137
C20   C     C_R   0.492051 0.736975 0.501023 0.855984
C21   C     C_R   0.739658 0.492994 0.499754 1.027412
C22   C     C_3   0.070206 0.433962 0.635791 0.341860
C23   C     C_3   0.927682 0.421924 0.629272 0.350225
C24   C     C_3   0.077058 0.626574 0.494549 0.445605
C25   C     C_3   0.069122 0.409179 0.369383 0.551434
C26   C     C_3   0.122318 0.490120 0.497445 -0.523656
Cu1   Cu    Cu3+1 0.499990 0.499980 0.640670 1.120005
Cu2   Cu    Cu3+1 0.500010 0.500020 0.359330 1.114567
H1    H     H_    0.097384 0.495299 0.725781 0.274961
H2    H     H_    0.623224 0.908894 0.791642 0.195912
H3    H     H_    0.612992 0.724438 0.855672 0.012417
H4    H     H_    0.897910 0.322949 0.623593 0.215296
N1    N     N_R   0.500800 0.500930 0.147930 -0.295696
N2    N     N_R   0.500800 0.500890 0.852020 -0.334061
O1    O     O_R   0.500000 0.319640 0.618810 -0.525552
O2    O     O_R   0.500010 0.319680 0.381230 -0.547001
O3    O     O_R   0.317690 0.499960 0.618790 -0.514240
O4    O     O_R   0.317700 0.500000 0.381210 -0.524174
O5    O     O_R   0.499990 0.680320 0.618770 -0.608850
O6    O     O_R   0.500000 0.680360 0.381190 -0.549278
O7    O     O_R   0.682300 0.500000 0.618790 -0.499980
O8    O     O_R   0.682310 0.500040 0.381210 -0.530711
N3    N     N_3   0.880710 0.464373 0.234024 -0.390988
H5    H     H_    0.895209 0.400304 0.153642 0.317803
H6    H     H_    0.931460 0.544118 0.208652 0.309379
N4    N     N_3   0.124066 0.698557 0.375818 -0.428722
H7    H     H_    0.220547 0.707671 0.379287 0.266066
H8    H     H_    0.096964 0.660308 0.279842 0.282595
F1    F     F_    0.885643 0.688991 0.388530 -0.611444
N5    N     N_3   0.409362 0.119268 0.248575 -0.456277
H9    H     H_    0.318436 0.091139 0.222628 0.299239
H10   H     H_    0.467381 0.089012 0.168975 0.287480
F2    F     F_    0.394635 0.864842 0.266501 -0.648133
N6    N     N_3   0.431663 0.894443 0.862830 -0.514288
H11   H     H_    0.346844 0.930901 0.836087 0.311608
H12   H     H_    0.421059 0.799833 0.843892 0.248369
F3    F     F_    0.445904 0.142412 0.845679 -0.607996
F4    F     F_    0.651478 0.138712 0.778322 -0.632468
F5    F     F_    0.320681 0.371423 0.139864 -0.542787
F6    F     F_    0.119426 0.321538 0.664551 -0.597355
F7    F     F_    0.315438 0.378529 0.854638 -0.517204
F8    F     F_    0.787563 0.652879 0.867552 -0.461785
F9    F     F_    0.778474 0.679119 0.134107 -0.550934
N7    N     N_3   0.584737 0.771076 0.121266 -0.530179
H13   H     H_    0.601908 0.847698 0.058897 0.221776
H14   H     H_    0.618635 0.800628 0.218816 0.298082
F10   F     F_    0.881139 0.467517 0.753123 -0.517640
F11   F     F_    0.121755 0.688411 0.613851 -0.586353
F12   F     F_    0.895159 0.684704 0.619239 -0.494443
F13   F     F_    0.117204 0.454776 0.245860 -0.605323
N8    N     N_3   0.106822 0.280566 0.373789 -0.386797
H15   H     H_    0.202512 0.276996 0.387510 0.249686
H16   H     H_    0.063392 0.231680 0.453883 0.285947
F14   F     F_    0.870195 0.295879 0.373628 -0.638862

loop_
_geom_bond_atom_site_label_1
_geom_bond_atom_site_label_2
_ccdc_geom_bond_type
C22   H1    S    
C14   N1    A    
C4    C25   S    
C3    F1    S    
C7    C8    A    
C3    F12   S    
C24   C26   S    
C22   F6    S    
C5    C6    A    
C20   O6    A    
C13   F3    S    
Cu2   O6    S    
C15   C16   A    
C18   C19   S    
C23   F10   S    
C12   O3    A    
C16   N2    A    
N6    H11   S    
C11   H2    S    
Cu1   O5    S    
C8    C9    A    
N5    H10   S    
C25   N8    S    
C9    C10   A    
C5    C13   S    
C14   C17   A    
C3    C24   S    
C15   F5    S    
C17   C18   S    
N6    H12   S    
Cu1   N2    S    
N4    H8    S    
C1    C6    S    
C19   F9    S    
N8    H16   S    
C20   O5    A    
C18   F8    S    
C13   F4    S    
Cu1   O1    S    
C25   C26   S    
C12   C26   S    
N7    H14   S    
C2    C4    S    
N3    H5    S    
Cu1   O7    S    
C9    C20   S    
Cu2   O4    S    
C19   N7    S    
C2    C21   S    
N5    H9    S    
N3    H6    S    
C11   N6    S    
C21   O7    A    
Cu2   N1    S    
C22   C26   S    
C17   N2    A    
Cu1   Cu2   S    
C1    O1    A    
N4    H7    S    
C4    F14   S    
C14   C19   S    
C7    N5    S    
C8    F2    S    
C6    C7    A    
C18   H3    S    
C4    N3    S    
C24   N4    S    
N7    H13   S    
C2    C3    S    
C5    C10   A    
C23   H4    S    
C11   C13   S    
Cu1   O3    S    
Cu2   O8    S    
C12   O4    A    
C10   C11   S    
C24   F11   S    
C21   O8    A    
N8    H15   S    
Cu2   O2    S    
C16   F7    S    
C2    C23   S    
C22   C23   S    
C25   F13   S    
C15   N1    A    
C1    O2    A    
