data_mof_unit_8225.cif
_audit_creation_date              2013-03-05T16:48:16-0500
_audit_creation_method            fapswitch 2.2
_symmetry_space_group_name_H-M    P1
_symmetry_Int_Tables_number       1
_space_group_crystal_system       triclinic
_cell_length_a                    23.527356
_cell_length_b                    8.928016
_cell_length_c                    8.095782
_cell_angle_alpha                 89.909127
_cell_angle_beta                  90.004128
_cell_angle_gamma                 90.094283
_cell_volume                      1700.53570028

loop_
_atom_site_label
_atom_site_type_symbol
_atom_site_description
_atom_site_fract_x
_atom_site_fract_y
_atom_site_fract_z
_atom_type_partial_charge
O1    O     O_R   0.500000 0.285350 0.636850 -0.628766
O2    O     O_R   0.500000 0.714650 0.363150 -0.588971
O3    O     O_R   0.500000 0.714650 0.636850 -0.628270
O4    O     O_R   0.500000 0.285350 0.363150 -0.589390
C1    C     C_R   0.500152 0.217963 0.500093 0.972834
C2    C     C_R   0.499953 0.782036 0.499920 0.955518
O5    O     O_R   0.416160 0.500000 0.636910 -0.637290
O6    O     O_R   0.583840 0.500000 0.363090 -0.584058
O7    O     O_R   0.583840 0.500000 0.636910 -0.644354
O8    O     O_R   0.416160 0.500000 0.363090 -0.589165
C3    C     C_R   0.208540 0.500583 0.490969 0.251737
C4    C     C_R   0.792299 0.502033 0.490969 0.249266
C5    C     C_R   0.389215 0.499780 0.499975 0.901567
C6    C     C_R   0.610969 0.500544 0.499993 0.890814
Zn1   Zn    Zn3+2 0.500000 0.500000 0.682780 1.010390
Zn2   Zn    Zn3+2 0.500000 0.500000 0.317220 1.064650
H1    H     H_    0.213095 0.665243 0.682556 0.195517
H2    H     H_    0.788045 0.378233 0.717585 0.194975
H3    H     H_    0.215333 0.335285 0.300150 0.158145
H4    H     H_    0.784603 0.626884 0.265371 0.158770
C7    C     C_R   0.296705 0.597387 0.603612 -0.100596
C8    C     C_R   0.704375 0.425264 0.623078 -0.091981
C9    C     C_R   0.297540 0.399436 0.392009 -0.041279
C10   C     C_R   0.702885 0.582288 0.372953 -0.037383
C11   C     C_R   0.327210 0.498036 0.499503 -0.142049
C12   C     C_R   0.673287 0.503376 0.499396 -0.149244
C13   C     C_R   0.881811 0.634769 0.472545 0.514986
C14   C     C_R   0.119268 0.369100 0.516250 0.517222
C15   C     C_R   0.881448 0.367782 0.498574 0.510858
C16   C     C_R   0.119674 0.631814 0.457065 0.512130
N1    N     N_R   0.853149 0.501498 0.486812 -0.351728
N2    N     N_R   0.147818 0.500504 0.487790 -0.353000
C17   C     C_R   0.940755 0.365286 0.503480 -0.011746
C18   C     C_R   0.060346 0.635199 0.458608 -0.011647
C19   C     C_R   0.941098 0.636449 0.464921 -0.013500
C20   C     C_R   0.059977 0.365741 0.511151 -0.014253
C21   C     C_R   0.970696 0.500725 0.484016 -0.021048
C22   C     C_R   0.030398 0.500524 0.484358 -0.021384
C23   C     C_R   0.970625 0.231079 0.527665 -0.156773
C24   C     C_R   0.030436 0.769456 0.435078 -0.156918
C25   C     C_R   0.971306 0.770318 0.440090 -0.158987
C26   C     C_R   0.029740 0.231543 0.533378 -0.159299
C27   C     C_1   0.500087 0.065190 0.500133 -0.136912
C28   C     C_1   0.500012 0.934804 0.499887 -0.143662
C29   C     C_R   0.237407 0.593184 0.601496 -0.053795
C30   C     C_R   0.763619 0.432436 0.621093 -0.063459
C31   C     C_R   0.238554 0.406886 0.384711 -0.167543
C32   C     C_R   0.761821 0.572861 0.365557 -0.156776
N3    N     N_1   0.500000 0.500000 0.073640 -0.015411
N4    N     N_1   0.500000 0.500000 0.926360 -0.024624
O9    O     O_2   0.853043 0.765428 0.468035 -0.530610
O10   O     O_2   0.148238 0.242500 0.551018 -0.531022
O11   O     O_2   0.852251 0.237565 0.504274 -0.527011
O12   O     O_2   0.149091 0.758351 0.424191 -0.530883
H5    H     H_    0.948424 0.125945 0.544949 0.191553
H6    H     H_    0.052577 0.874228 0.414342 0.190628
H7    H     H_    0.949368 0.875633 0.422758 0.190679
H8    H     H_    0.051608 0.126630 0.554520 0.190637
C33   C     C_2   0.325442 0.711325 0.708860 0.458158
H9    H     H_    0.369644 0.740572 0.689259 0.071641
O13   O     O_2   0.299597 0.776418 0.818072 -0.542032
C34   C     C_2   0.676751 0.328332 0.749594 0.454176
H10   H     H_    0.634644 0.282517 0.729575 0.081573
O14   O     O_2   0.701460 0.295348 0.877268 -0.555891
C35   C     C_2   0.325317 0.282527 0.289679 0.459659
H11   H     H_    0.304292 0.242138 0.178934 0.080302
O15   O     O_2   0.369870 0.223968 0.331775 -0.562155
C36   C     C_2   0.675212 0.681909 0.250028 0.477646
H12   H     H_    0.693946 0.695322 0.128322 0.071928
O16   O     O_2   0.633791 0.757257 0.286137 -0.553093

loop_
_geom_bond_atom_site_label_1
_geom_bond_atom_site_label_2
_geom_bond_distance
_ccdc_geom_bond_type
O4    Zn2   1.951560 S    
O6    C6    1.278962 A    
O7    C6    1.279119 A    
O8    C5    1.276744 A    
C21   C22   1.404653 A    
O1    Zn1   1.952718 S    
C8    C34   1.488574 S    
O2    Zn2   1.952718 S    
C3    C31   1.393835 A    
O5    C5    1.277022 A    
C17   C21   1.407065 A    
C4    C32   1.394367 A    
O3    C2    1.260454 A    
C13   C19   1.396267 A    
C9    C35   1.485910 S    
O6    Zn2   2.007159 S    
O5    Zn1   2.007161 S    
C1    C27   1.363956 S    
Zn1   N4    1.971971 S    
C25   H7    1.082284 S    
C33   H9    1.083464 S    
C15   N1    1.371068 A    
C24   H6    1.082784 S    
O8    Zn2   2.007214 S    
C6    C12   1.466369 S    
C16   N2    1.369787 A    
C14   O10   1.350117 S    
C10   C12   1.423140 A    
C5    C11   1.458867 S    
C34   H10   1.083440 S    
C15   O11   1.350113 S    
C27   C28   1.164088 T    
O1    C1    1.260906 A    
H2    C30   1.083672 S    
C2    C28   1.363913 S    
C20   C22   1.407584 A    
C24   C25   1.391801 A    
C8    C30   1.395307 A    
C13   O9    1.350067 S    
C3    N2    1.428857 S    
C7    C33   1.489405 S    
C23   C26   1.391599 A    
C7    C29   1.395656 A    
C9    C11   1.421220 A    
C4    N1    1.432065 S    
O7    Zn1   2.007212 S    
C19   C25   1.403736 A    
C18   C24   1.403674 A    
C16   O12   1.350048 S    
C3    C29   1.394943 A    
C33   O13   1.221503 D    
C16   C18   1.396251 A    
C13   N1    1.371403 A    
C10   C32   1.390593 A    
C15   C17   1.396094 A    
C14   N2    1.370103 A    
C9    C31   1.390720 A    
Zn2   N3    1.971971 S    
C14   C20   1.395838 A    
C36   O16   1.220873 D    
C35   H11   1.085777 S    
C8    C12   1.422417 A    
H3    C31   1.084425 S    
N3    N4    1.192346 T    
C7    C11   1.420152 A    
O4    C1    1.260555 A    
O3    Zn1   1.951560 S    
C34   O14   1.221712 D    
C26   H8    1.082771 S    
H4    C32   1.084327 S    
C19   C21   1.406884 A    
C18   C22   1.407853 A    
C10   C36   1.484698 S    
C20   C26   1.403748 A    
C17   C23   1.403535 A    
C23   H5    1.082324 S    
O2    C2    1.260987 A    
H1    C29   1.083674 S    
C36   H12   1.085793 S    
C35   O15   1.220427 D    
C4    C30   1.395636 A    
