data_mof_unit_41362.cif
_audit_creation_date              2012-12-10T21:11:38-0500
_audit_creation_method            fapswitch 2.2
_symmetry_space_group_name_H-M    P1
_symmetry_Int_Tables_number       1
_space_group_crystal_system       triclinic
_cell_length_a                    17.463685
_cell_length_b                    16.893546
_cell_length_c                    10.758914
_cell_angle_alpha                 90.345402
_cell_angle_beta                  89.515884
_cell_angle_gamma                 90.135816
_cell_volume                      3173.95365564

loop_
_atom_site_label
_atom_site_type_symbol
_atom_type_description
_atom_site_fract_x
_atom_site_fract_y
_atom_site_fract_z
_atom_type_partial_charge
C1    C     C_R   0.353415 0.499953 0.498133 0.919257
C2    C     C_R   0.438388 0.166020 0.454926 0.309202
C3    C     C_R   0.439680 0.749224 0.550698 0.225104
C4    C     C_R   0.561223 0.253431 0.549738 0.155904
C5    C     C_R   0.561511 0.746900 0.449308 0.220666
C6    C     C_R   0.440106 0.250645 0.450451 0.152171
C7    C     C_R   0.504034 0.875667 0.503620 -0.134148
C8    C     C_R   0.503188 0.124668 0.499289 -0.171963
C9    C     C_1   0.505151 0.963736 0.501718 0.310343
C10   C     C_1   0.504766 0.036583 0.500417 0.317803
C11   C     C_R   0.500850 0.499698 0.259758 0.906903
C12   C     C_R   0.646401 0.500018 0.499439 0.929756
C13   C     C_R   0.498830 0.500016 0.740270 0.902190
C14   C     C_R   0.450825 0.639366 0.107031 0.113841
C15   C     C_R   0.450730 0.357325 0.894830 0.092946
C16   C     C_R   0.548191 0.639900 0.897385 0.105576
C17   C     C_R   0.548047 0.357213 0.101331 0.083819
C18   C     C_R   0.473744 0.713774 0.055787 0.147486
C19   C     C_R   0.469590 0.284502 0.952492 0.210997
C20   C     C_R   0.524418 0.713965 0.949794 0.134795
C21   C     C_R   0.529683 0.284549 0.041052 0.205643
C22   C     C_R   0.511720 0.570394 0.940628 -0.042324
C23   C     C_R   0.885105 0.492283 0.448582 -0.188980
C24   C     C_R   0.512653 0.427606 0.059208 -0.058873
C25   C     C_R   0.487118 0.570121 0.061383 -0.048710
C26   C     C_R   0.485927 0.427805 0.939126 -0.059869
C27   C     C_R   0.497947 0.499542 0.873180 -0.129263
C28   C     C_R   0.500892 0.499058 0.126931 -0.130485
C29   C     C_R   0.840667 0.540129 0.370618 0.442201
C30   C     C_R   0.159489 0.448746 0.378754 0.437175
C31   C     C_R   0.148271 0.558978 0.527024 0.438754
C32   C     C_R   0.850764 0.445986 0.542528 0.444446
C33   C     C_R   0.762169 0.543788 0.390999 -0.283122
C34   C     C_R   0.114544 0.503763 0.445320 -0.187911
C35   C     C_R   0.237917 0.447265 0.398882 -0.280315
C36   C     C_R   0.226875 0.556516 0.544945 -0.265973
C37   C     C_R   0.771973 0.450028 0.560067 -0.273515
C38   C     C_R   0.728348 0.499463 0.485684 -0.186500
C39   C     C_R   0.271297 0.500170 0.482733 -0.187463
C40   C     C_3   0.328782 0.572591 0.152845 -0.730400
C41   C     C_3   0.325011 0.404390 0.832697 -0.630525
C42   C     C_3   0.669531 0.572365 0.847887 -0.729672
C43   C     C_3   0.674102 0.404054 0.163157 -0.619764
C44   C     C_3   0.372031 0.682930 0.721786 -0.575090
C45   C     C_1   0.965894 0.495543 0.439484 0.236447
C46   C     C_3   0.622749 0.299746 0.740437 -0.537850
C47   C     C_3   0.625880 0.700777 0.259290 -0.604356
C48   C     C_3   0.381381 0.296902 0.259754 -0.533156
C49   C     C_1   0.033789 0.499445 0.438406 0.238989
C50   C     C_R   0.440232 0.834008 0.553299 0.329015
C51   C     C_R   0.566303 0.169219 0.543486 0.306263
C52   C     C_R   0.566311 0.831414 0.454422 0.315224
H1    H     H_    0.726904 0.579284 0.331122 0.201396
H2    H     H_    0.309454 0.582263 0.055947 0.240745
H3    H     H_    0.352080 0.511997 0.161717 0.229937
H4    H     H_    0.278236 0.576696 0.215943 0.252982
H5    H     H_    0.385196 0.310795 0.747691 0.285175
H6    H     H_    0.285978 0.405064 0.751758 0.235642
H7    H     H_    0.338935 0.466661 0.857391 0.203153
H8    H     H_    0.295200 0.375895 0.912370 0.282868
H9    H     H_    0.643943 0.685677 0.803068 0.280112
H10   H     H_    0.645295 0.512501 0.833099 0.223431
H11   H     H_    0.688546 0.578829 0.945793 0.252465
H12   H     H_    0.273289 0.406296 0.347105 0.206180
H13   H     H_    0.720433 0.577399 0.785722 0.252725
H14   H     H_    0.613698 0.310553 0.246884 0.284772
H15   H     H_    0.714561 0.402432 0.242117 0.236843
H16   H     H_    0.660727 0.466948 0.143468 0.209505
H17   H     H_    0.702137 0.376899 0.080292 0.275373
H18   H     H_    0.840216 0.660671 0.089237 0.405082
H19   H     H_    0.161100 0.298671 0.132075 0.410397
H20   H     H_    0.116471 0.732427 0.726169 0.411031
H21   H     H_    0.881065 0.294590 0.778851 0.408680
H22   H     H_    0.254957 0.929157 0.532387 0.410199
H23   H     H_    0.253344 0.597482 0.608862 0.204211
H24   H     H_    0.765259 0.137621 0.656329 0.411868
H25   H     H_    0.742994 0.933754 0.520161 0.412305
H26   H     H_    0.245081 0.123932 0.325046 0.414975
H27   H     H_    0.322281 0.726203 0.557965 0.270927
H28   H     H_    0.369925 0.617590 0.727673 0.202664
H29   H     H_    0.319476 0.704862 0.769041 0.257934
H30   H     H_    0.422345 0.705307 0.772538 0.240134
H31   H     H_    0.672521 0.296896 0.560354 0.275896
H32   H     H_    0.610357 0.360236 0.774948 0.195849
H33   H     H_    0.680776 0.284493 0.773623 0.282550
H34   H     H_    0.744440 0.415772 0.632527 0.200933
H35   H     H_    0.581189 0.257361 0.781311 0.246536
H36   H     H_    0.673199 0.705960 0.438899 0.267332
H37   H     H_    0.686022 0.708729 0.227771 0.273471
H38   H     H_    0.591329 0.748609 0.218060 0.260630
H39   H     H_    0.606665 0.642683 0.223318 0.211261
H40   H     H_    0.326563 0.285449 0.434800 0.272633
H41   H     H_    0.390480 0.358787 0.229961 0.199176
H42   H     H_    0.325900 0.277763 0.220524 0.293146
H43   H     H_    0.426779 0.258577 0.219702 0.242334
H44   H     H_    0.699709 0.170653 0.123992 0.417280
H45   H     H_    0.662482 0.803731 0.954470 0.342601
H46   H     H_    0.299944 0.169582 0.866096 0.416105
H47   H     H_    0.330390 0.792522 0.055477 0.342559
H48   H     H_    0.357214 0.683593 0.210414 0.281967
N1    N     N_R   0.500000 0.707230 0.500000 -0.125489
N2    N     N_2   0.379758 0.293075 0.394428 -0.260122
N3    N     N_R   0.500000 0.292770 0.500000 -0.148343
N4    N     N_2   0.384929 0.632123 0.187469 -0.255784
N5    N     N_2   0.393827 0.361026 0.800466 -0.253803
N6    N     N_2   0.614761 0.633835 0.818053 -0.252809
N7    N     N_2   0.605112 0.360929 0.195475 -0.255792
N8    N     N_2   0.373872 0.707127 0.592619 -0.260003
N9    N     N_2   0.620359 0.298466 0.605746 -0.252435
N10   N     N_2   0.621393 0.701890 0.394035 -0.258588
O1    O     O_R   0.389110 0.566570 0.499990 -0.589907
O2    O     O_2   0.577647 0.138549 0.967609 -0.132493
O3    O     O_3   0.676192 0.219667 0.091882 -0.561513
O4    O     O_2   0.571743 0.790600 0.739305 -0.363175
O5    O     O_2   0.483584 0.860887 0.874080 -0.102886
O6    O     O_3   0.624189 0.846511 0.946405 -0.404351
O7    O     O_2   0.447160 0.160366 0.800547 -0.271482
O8    O     O_2   0.421767 0.138170 0.022370 -0.130096
O9    O     O_3   0.323294 0.218736 0.899348 -0.563118
O10   O     O_2   0.426859 0.792603 0.265834 -0.361932
O11   O     O_2   0.506040 0.866272 0.122548 -0.113865
O12   O     O_R   0.610890 0.433430 0.500010 -0.607582
O13   O     O_3   0.365534 0.838522 0.060110 -0.399161
O14   O     O_2   0.924460 0.664977 0.302001 -0.215323
O15   O     O_2   0.935930 0.544979 0.174172 -0.226172
O16   O     O_3   0.812701 0.629481 0.153288 -0.591932
O17   O     O_2   0.075364 0.318807 0.341819 -0.223278
O18   O     O_2   0.065541 0.423820 0.186704 -0.228324
O19   O     O_3   0.188270 0.337337 0.185515 -0.573924
O20   O     O_2   0.044423 0.675045 0.519440 -0.235876
O21   O     O_2   0.043281 0.589643 0.702677 -0.234186
O22   O     O_3   0.151483 0.694956 0.683279 -0.549535
O23   O     O_R   0.610890 0.566570 0.500010 -0.594566
O24   O     O_2   0.953863 0.329847 0.560693 -0.236571
O25   O     O_2   0.955243 0.433310 0.721203 -0.229305
O26   O     O_3   0.846396 0.328144 0.729453 -0.547226
O27   O     O_2   0.314154 0.842523 0.706994 -0.279439
O28   O     O_2   0.387050 0.963202 0.677405 -0.187222
O29   O     O_3   0.303984 0.911926 0.494116 -0.465596
O30   O     O_2   0.632388 0.055889 0.678295 -0.186226
O31   O     O_2   0.681308 0.078713 0.467281 -0.230164
O32   O     O_3   0.722710 0.174704 0.640031 -0.544669
O33   O     O_2   0.711383 0.832627 0.348652 -0.290661
O34   O     O_R   0.389110 0.433430 0.499990 -0.603380
O35   O     O_2   0.631476 0.949316 0.323767 -0.186961
O36   O     O_3   0.689047 0.921122 0.541382 -0.454137
O37   O     O_2   0.377644 0.041028 0.333902 -0.189248
O38   O     O_2   0.319182 0.081150 0.531999 -0.234253
O39   O     O_3   0.287871 0.161716 0.337107 -0.542262
O40   O     O_R   0.499990 0.566540 0.316770 -0.589974
O41   O     O_R   0.500010 0.433460 0.683230 -0.601950
O42   O     O_R   0.500010 0.566540 0.683230 -0.595169
O43   O     O_R   0.499990 0.433460 0.316770 -0.604711
O44   O     O_2   0.552714 0.160238 0.190026 -0.272006
S1    S     S_3+6 0.583147 0.197180 0.072781 0.088449
S2    S     S_3+6 0.651823 0.118002 0.583583 0.077954
S3    S     S_3+6 0.651562 0.883262 0.410479 0.093706
S4    S     S_3+6 0.354826 0.110653 0.413526 0.087168
S5    S     S_3+6 0.549816 0.804317 0.872843 0.101666
S6    S     S_3+6 0.416351 0.196885 0.918441 0.091557
S7    S     S_3+6 0.444381 0.804336 0.130385 0.101228
S8    S     S_3+6 0.881449 0.595950 0.247892 0.065550
S9    S     S_3+6 0.119206 0.380928 0.271361 0.063192
S10   S     S_3+6 0.093672 0.630705 0.609188 0.061511
S11   S     S_3+6 0.904748 0.383382 0.639739 0.066454
S12   S     S_3+6 0.360427 0.888629 0.614219 0.107497
Zn1   Zn    Zn3+2 0.500000 0.588860 0.500000 1.011745
Zn2   Zn    Zn3+2 0.500000 0.411140 0.500000 0.972642

loop_
_geom_bond_atom_site_label_1
_geom_bond_atom_site_label_2
_ccdc_geom_bond_type
H5    N5    S    
C4    N9    S    
C23   C45   S    
C48   H43   S    
C14   C18   A    
O8    S6    D    
O15   S8    D    
H14   N7    S    
H46   O9    S    
O36   S3    S    
C25   C28   A    
C15   C19   A    
C26   C27   A    
C48   H42   S    
C30   C35   A    
O34   Zn2   S    
C19   S6    S    
C23   C29   A    
C19   C21   A    
C24   C26   A    
C41   H6    S    
C44   H30   S    
O23   Zn1   S    
O13   S7    S    
C18   S7    S    
H19   O19   S    
C5    N10   S    
O41   Zn2   S    
C4    N3    A    
C29   C33   A    
H48   N4    S    
O19   S9    S    
N1    Zn1   S    
C41   H8    S    
O9    S6    S    
C40   H4    S    
C20   S5    S    
C50   S12   S    
C42   H13   S    
O17   S9    D    
H31   N9    S    
C5    C52   A    
H20   O22   S    
C35   H12   S    
O2    S1    D    
C9    C10   T    
C42   H10   S    
H40   N2    S    
C46   H33   S    
H36   N10   S    
H18   O16   S    
C48   N2    S    
N3    Zn2   S    
C43   H17   S    
C32   S11   S    
O7    S6    D    
C47   H37   S    
C2    C6    A    
C30   S9    S    
O3    S1    S    
O27   S12   D    
C13   O42   A    
C3    C50   A    
O33   S3    D    
O14   S8    D    
C44   N8    S    
C33   H1    S    
C5    N1    A    
C51   S2    S    
C31   C34   A    
C17   C24   A    
O12   Zn2   S    
C48   H41   S    
C30   C34   A    
C4    C51   A    
C37   H34   S    
C44   H28   S    
C13   O41   A    
O6    S5    S    
C44   H29   S    
C11   O43   A    
C43   H16   S    
C15   C26   A    
O38   S4    D    
C32   C37   A    
C22   C25   A    
O18   S9    D    
C17   C21   A    
O5    S5    D    
O29   S12   S    
C35   C39   A    
O22   S10   S    
C37   C38   A    
C36   H23   S    
C40   N4    S    
O35   S3    D    
C11   O40   A    
C14   N4    S    
H21   O26   S    
C45   C49   T    
C16   C20   A    
C40   H3    S    
O11   S7    D    
C21   S1    S    
O24   S11   D    
C43   N7    S    
C6    N3    A    
H45   O6    S    
H9    N6    S    
C42   N6    S    
C8    C51   A    
C41   H7    S    
O44   S1    D    
C41   N5    S    
O10   S7    D    
O30   S2    D    
C46   H32   S    
C43   H15   S    
C40   H2    S    
C22   C27   A    
O43   Zn2   S    
C47   H38   S    
C11   C28   S    
H44   O3    S    
O1    Zn1   S    
O42   Zn1   S    
H47   O13   S    
C46   H35   S    
O39   S4    S    
O20   S10   D    
C52   S3    S    
C7    C9    S    
C31   S10   S    
C34   C49   S    
C16   C22   A    
C47   H39   S    
C29   S8    S    
C36   C39   A    
C2    C8    A    
C24   C28   A    
C7    C50   A    
C7    C52   A    
O31   S2    D    
C16   N6    S    
C3    N8    S    
C47   N10   S    
H22   O29   S    
C33   C38   A    
O28   S12   D    
C23   C32   A    
C15   N5    S    
C17   N7    S    
C1    O34   A    
C1    O1    A    
C3    N1    A    
O21   S10   D    
O40   Zn1   S    
C42   H11   S    
H27   N8    S    
C18   C20   A    
C6    N2    S    
C14   C25   A    
C12   C38   S    
O4    S5    D    
O25   S11   D    
C1    C39   S    
C12   O12   A    
C2    S4    S    
C8    C10   S    
O26   S11   S    
C46   N9    S    
C31   C36   A    
C13   C27   S    
O32   S2    S    
O16   S8    S    
O37   S4    D    
H25   O36   S    
C12   O23   A    
H26   O39   S    
H24   O32   S    
