data_mof_unit_20045.cif
_audit_creation_date              2012-12-10T17:29:16-0500
_audit_creation_method            fapswitch 2.2
_symmetry_space_group_name_H-M    P1
_symmetry_Int_Tables_number       1
_space_group_crystal_system       triclinic
_cell_length_a                    12.035323
_cell_length_b                    12.859123
_cell_length_c                    13.097813
_cell_angle_alpha                 87.220027
_cell_angle_beta                  113.374974
_cell_angle_gamma                 93.867647
_cell_volume                      1855.939858

loop_
_atom_site_label
_atom_site_type_symbol
_atom_type_description
_atom_site_fract_x
_atom_site_fract_y
_atom_site_fract_z
_atom_type_partial_charge
C1    C     C_R   0.477467 0.299491 0.499518 0.877965
C2    C     C_R   0.561904 0.518473 0.988647 -0.001412
C3    C     C_R   0.542091 0.548729 0.878664 0.090365
C4    C     C_R   0.471968 0.538231 0.027921 0.116079
C5    C     C_R   0.376015 0.603364 0.965656 0.179941
C6    C     C_R   0.368975 0.645900 0.863677 -0.240431
C7    C     C_R   0.451016 0.618938 0.820441 -0.132278
C8    C     C_R   0.473725 0.492911 0.126795 -0.258436
C9    C     C_R   0.301838 0.588658 0.112862 -0.215392
C10   C     C_R   0.612060 0.505518 0.828944 -0.176638
C11   C     C_R   0.536940 0.812019 0.502855 -0.050388
C12   C     C_R   0.567258 0.500702 0.708414 0.885151
C13   C     C_R   0.463340 0.187985 0.498859 -0.053429
C14   C     C_R   0.337341 0.030301 0.447564 -0.221522
C15   C     C_R   0.347984 0.137579 0.456888 -0.214118
C16   C     C_R   0.567998 0.131866 0.534624 -0.276763
C17   C     C_R   0.558342 0.025456 0.523924 0.187894
C18   C     C_R   0.442080 0.974413 0.479657 0.186549
C19   C     C_R   0.432356 0.868098 0.468506 -0.282995
C20   C     C_R   0.652335 0.862371 0.544748 -0.206151
C21   C     C_R   0.663057 0.969565 0.555456 -0.222135
C22   C     C_R   0.996366 0.565947 0.370618 -0.315652
C23   C     C_R   0.522597 0.700524 0.500766 0.869740
C24   C     C_R   0.119224 0.564934 0.387084 -0.099010
C25   C     C_R   0.165017 0.473262 0.559653 0.549019
C26   C     C_R   0.042616 0.477442 0.548786 -0.019086
C27   C     C_R   0.957004 0.521941 0.451614 0.040428
C28   C     C_R   0.834209 0.522168 0.438742 -0.017978
C29   C     C_R   0.881110 0.439784 0.615529 -0.000114
C30   C     C_R   0.003586 0.438469 0.632214 -0.315686
C31   C     C_R   0.433642 0.505175 0.291522 0.877523
C32   C     C_R   0.290032 0.626424 0.007689 -0.205224
C33   C     C_R   0.396258 0.523914 0.173117 -0.069946
C34   C     C_R   0.717436 0.454658 0.894373 -0.335315
C35   C     C_R   0.751555 0.442333 0.009622 0.552930
C36   C     C_R   0.670679 0.469761 0.054862 -0.272258
H1    H     H_    0.241119 0.613336 0.148711 0.144390
H2    H     H_    0.733533 0.818860 0.571696 0.161663
H3    H     H_    0.247924 0.991405 0.413817 0.138627
H4    H     H_    0.752478 0.008469 0.589009 0.137902
H5    H     H_    0.266708 0.181044 0.428309 0.150837
H6    H     H_    0.657326 0.171151 0.568688 0.156371
H7    H     H_    0.767981 0.557420 0.364861 0.126518
H8    H     H_    0.852668 0.410006 0.680510 0.127249
H9    H     H_    0.932655 0.601056 0.294986 0.157701
H10   H     H_    0.066979 0.408227 0.710814 0.177771
H11   H     H_    0.148117 0.598680 0.323787 0.144276
H12   H     H_    0.298772 0.698410 0.816360 0.142630
H13   H     H_    0.217133 0.676848 0.961411 0.134543
H14   H     H_    0.538493 0.435940 0.172307 0.152040
H15   H     H_    0.770463 0.421879 0.855053 0.157974
H16   H     H_    0.697310 0.455118 0.143033 0.153821
H17   H     H_    0.443128 0.654513 0.741465 0.158221
H18   H     H_    0.342968 0.828913 0.434452 0.157920
N1    N     N_R   0.798200 0.480260 0.519790 -0.095090
N2    N     N_R   0.201820 0.519740 0.480210 -0.133087
O1    O     O_R   0.579910 0.341070 0.505280 -0.617096
O2    O     O_R   0.388440 0.353740 0.492580 -0.621895
O3    O     O_R   0.643280 0.490550 0.663120 -0.631246
O4    O     O_R   0.451810 0.503220 0.650420 -0.551771
O5    O     O_R   0.611560 0.646260 0.507420 -0.618399
O6    O     O_R   0.420090 0.658930 0.494720 -0.630983
O7    O     O_R   0.548190 0.496780 0.349580 -0.618191
O8    O     O_R   0.356720 0.509450 0.336880 -0.628968
Zn1   Zn    Zn3+2 0.627850 0.491540 0.508480 0.935211
Zn2   Zn    Zn3+2 0.372150 0.508460 0.491520 0.954596
O9    O     O_3   0.248703 0.424557 0.651801 -0.591987
C37   C     C_3   0.234057 0.315395 0.637769 0.107505
H19   H     H_    0.223817 0.293565 0.553239 0.142552
H20   H     H_    0.152946 0.282889 0.651170 0.117398
C38   C     C_3   0.344389 0.264263 0.723275 -0.773302
H21   H     H_    0.354322 0.282374 0.808639 0.249259
H22   H     H_    0.333570 0.178417 0.713471 0.198011
H23   H     H_    0.427666 0.293288 0.711707 0.253148
O10   O     O_3   0.853508 0.390520 0.078340 -0.647865
C39   C     C_3   0.958417 0.422563 0.058486 0.075643
H24   H     H_    0.032265 0.441871 0.140055 0.165996
H25   H     H_    0.948869 0.494573 0.005211 0.117735
C40   C     C_3   0.997228 0.332537 0.009672 -0.350708
H26   H     H_    0.014715 0.264267 0.068287 0.233554
H27   H     H_    0.923619 0.308809 0.929802 0.209600
C41   C     C_3   0.111680 0.362848 0.989399 -0.947285
H28   H     H_    0.097599 0.432463 0.932898 0.268295
H29   H     H_    0.134580 0.297373 0.950263 0.261200
H30   H     H_    0.188712 0.379678 0.069551 0.276491

loop_
_geom_bond_atom_site_label_1
_geom_bond_atom_site_label_2
_ccdc_geom_bond_type
O7    Zn1   S    
C16   H6    S    
C14   C18   A    
C35   C36   A    
C25   O9    S    
C25   N2    A    
C4    C8    A    
C11   C19   A    
C34   H15   S    
C6    H12   S    
C39   H25   S    
C18   C19   A    
C3    C7    A    
C5    C6    A    
C34   C35   A    
C9    C32   A    
C14   H3    S    
C12   O3    A    
O2    Zn2   S    
C23   O6    A    
C16   C17   A    
C31   C33   S    
C36   H16   S    
C5    C32   A    
O4    Zn2   S    
C9    C33   A    
N1    Zn1   S    
C28   N1    A    
C11   C20   A    
O6    Zn2   S    
O9    C37   S    
C31   O7    A    
C39   H24   S    
C15   H5    S    
C40   H27   S    
C37   H19   S    
C29   N1    A    
C25   C26   A    
C17   C21   A    
O8    Zn2   S    
C2    C4    A    
O10   C39   S    
C29   C30   A    
C1    O1    A    
C38   H23   S    
C20   H2    S    
C35   O10   S    
C22   H9    S    
C9    H1    S    
C17   C18   A    
C26   C27   A    
C10   C34   A    
C10   C12   S    
C19   H18   S    
C26   C30   A    
C41   H29   S    
C22   C27   A    
C13   C15   A    
C29   H8    S    
C22   C24   A    
C1    C13   S    
C7    H17   S    
C8    H14   S    
C38   H22   S    
C2    C36   A    
C24   H11   S    
C31   O8    A    
C30   H10   S    
O1    Zn1   S    
C4    C5    A    
C40   C41   S    
C6    C7    A    
C24   N2    A    
C41   H30   S    
C28   H7    S    
C2    C3    A    
C38   H21   S    
C3    C10   A    
C1    O2    A    
O3    Zn1   S    
C21   H4    S    
C37   C38   S    
N2    Zn2   S    
C11   C23   S    
C8    C33   A    
C32   H13   S    
C40   H26   S    
C12   O4    A    
O5    Zn1   S    
C23   O5    A    
C39   C40   S    
C20   C21   A    
C37   H20   S    
C41   H28   S    
C13   C16   A    
C27   C28   A    
C14   C15   A    
