data_mof_unit_29377.cif
_audit_creation_date              2012-12-10T17:32:32-0500
_audit_creation_method            fapswitch 2.2
_symmetry_space_group_name_H-M    P1
_symmetry_Int_Tables_number       1
_space_group_crystal_system       triclinic
_cell_length_a                    12.135716
_cell_length_b                    12.744588
_cell_length_c                    14.112761
_cell_angle_alpha                 91.814086
_cell_angle_beta                  88.467311
_cell_angle_gamma                 95.968527
_cell_volume                      2169.22150662

loop_
_atom_site_label
_atom_site_type_symbol
_atom_type_description
_atom_site_fract_x
_atom_site_fract_y
_atom_site_fract_z
_atom_type_partial_charge
C1    C     C_R   0.523883 0.700176 0.497820 0.860033
C2    C     C_R   0.136622 0.458929 0.455542 0.230829
C3    C     C_R   0.981414 0.539904 0.528514 -0.177292
C4    C     C_R   0.021237 0.473651 0.456358 -0.121996
C5    C     C_R   0.501571 0.499977 0.670381 0.884833
C6    C     C_R   0.498410 0.499733 0.329602 0.871589
C7    C     C_1   0.504470 0.499543 0.771837 -0.221439
C8    C     C_1   0.495803 0.499995 0.228124 -0.216994
C9    C     C_1   0.504304 0.499392 0.857214 -0.017058
C10   C     C_1   0.496540 0.499963 0.142725 -0.018777
C11   C     C_1   0.502009 0.499488 0.957253 0.000548
C12   C     C_R   0.475862 0.299998 0.501616 0.878508
C13   C     C_1   0.499328 0.499711 0.042680 -0.000860
C14   C     C_R   0.456648 0.187760 0.499156 -0.037718
C15   C     C_R   0.541301 0.812772 0.498364 -0.072654
C16   C     C_R   0.589363 0.967232 0.595537 -0.208339
C17   C     C_R   0.410497 0.034571 0.400474 -0.224329
C18   C     C_R   0.596460 0.862084 0.575135 -0.266502
C19   C     C_R   0.405549 0.140336 0.419661 -0.283085
C20   C     C_R   0.485581 0.869443 0.434219 0.110639
C21   C     C_R   0.506188 0.130010 0.566252 0.107298
C22   C     C_3   0.535473 0.182695 0.662925 -0.446667
C23   C     C_R   0.472868 0.975934 0.457722 0.130909
C24   C     C_3   0.431044 0.207566 0.718634 -0.862112
C25   C     C_3   0.442488 0.816333 0.341622 -0.420030
C26   C     C_3   0.515034 0.854225 0.256705 -0.876106
C27   C     C_3   0.179317 0.370611 0.394935 -0.309846
C28   C     C_3   0.135910 0.261716 0.431254 -0.822104
C29   C     C_3   0.825811 0.560078 0.647710 -0.269178
C30   C     C_3   0.780404 0.667658 0.656251 -0.745985
C31   C     C_3   0.961908 0.431407 0.227564 0.053891
C32   C     C_3   0.891269 0.363592 0.156000 -0.320071
C33   C     C_3   0.874603 0.424098 0.066748 -0.957056
C34   C     C_R   0.522425 0.024555 0.541440 0.101147
C35   C     C_3   0.031816 0.784254 0.575598 0.087329
C36   C     C_3   0.143616 0.852043 0.583501 -0.369049
C37   C     C_3   0.142209 0.957369 0.535178 -0.946861
C38   C     C_R   0.943394 0.424605 0.390017 0.400618
C39   C     C_R   0.059236 0.609322 0.580272 0.408568
C40   C     C_R   0.829896 0.429981 0.406335 -0.126276
C41   C     C_R   0.171251 0.594141 0.575009 -0.115139
C42   C     C_R   0.865228 0.532342 0.547970 0.221115
H1    H     H_    0.366755 0.186712 0.369466 0.152895
H2    H     H_    0.579681 0.134799 0.709773 0.204623
H3    H     H_    0.591339 0.256451 0.653642 0.221448
H4    H     H_    0.517653 0.940788 0.249167 0.262352
H5    H     H_    0.600878 0.833564 0.265128 0.263479
H6    H     H_    0.481501 0.814739 0.190749 0.252840
H7    H     H_    0.442446 0.729462 0.341024 0.218112
H8    H     H_    0.354625 0.829384 0.331568 0.198164
H9    H     H_    0.044112 0.250550 0.435061 0.277909
H10   H     H_    0.164813 0.199381 0.382834 0.238308
H11   H     H_    0.167810 0.251622 0.503109 0.256405
H12   H     H_    0.639718 0.817763 0.623454 0.149133
H13   H     H_    0.162747 0.378239 0.319049 0.210951
H14   H     H_    0.268593 0.374186 0.393645 0.243614
H15   H     H_    0.786304 0.708034 0.587473 0.247304
H16   H     H_    0.693222 0.659153 0.682386 0.229680
H17   H     H_    0.828156 0.719328 0.708841 0.237955
H18   H     H_    0.767358 0.495444 0.675093 0.190911
H19   H     H_    0.893882 0.559268 0.698638 0.195304
H20   H     H_    0.045159 0.453376 0.195000 0.153058
H21   H     H_    0.923905 0.506674 0.242503 0.125641
H22   H     H_    0.932454 0.291855 0.136113 0.229544
H23   H     H_    0.636869 0.000410 0.654518 0.141511
H24   H     H_    0.808938 0.338261 0.188819 0.217058
H25   H     H_    0.830767 0.494676 0.084745 0.267900
H26   H     H_    0.823762 0.372416 0.016181 0.265759
H27   H     H_    0.955805 0.449352 0.031949 0.264051
H28   H     H_    0.965675 0.832463 0.602088 0.165855
H29   H     H_    0.013497 0.763906 0.499652 0.122618
H30   H     H_    0.162989 0.867380 0.659512 0.236736
H31   H     H_    0.210376 0.809733 0.549450 0.216681
H32   H     H_    0.126991 0.944087 0.458266 0.262341
H33   H     H_    0.223536 0.004876 0.543765 0.281231
H34   H     H_    0.369065 0.001734 0.337903 0.165651
H35   H     H_    0.076742 0.002614 0.567698 0.263319
H36   H     H_    0.230154 0.643547 0.617355 0.161844
H37   H     H_    0.771028 0.392320 0.356530 0.163556
H38   H     H_    0.454228 0.242833 0.789214 0.251534
H39   H     H_    0.385940 0.264648 0.681253 0.262999
H40   H     H_    0.375030 0.133994 0.729192 0.264326
N1    N     N_R   0.207800 0.519340 0.515940 -0.142762
N2    N     N_R   0.792200 0.480660 0.484060 -0.132297
O1    O     O_R   0.421690 0.658830 0.504250 -0.620193
O2    O     O_3   0.028062 0.694836 0.633489 -0.652205
O3    O     O_R   0.578310 0.341170 0.495750 -0.610948
O4    O     O_R   0.609320 0.646410 0.494030 -0.600046
O5    O     O_R   0.390680 0.353590 0.505970 -0.628816
O6    O     O_R   0.406170 0.506210 0.631400 -0.586162
O7    O     O_R   0.593830 0.493790 0.368600 -0.593766
O8    O     O_R   0.593790 0.493790 0.621170 -0.605544
O9    O     O_R   0.406210 0.506210 0.378830 -0.630308
O10   O     O_3   0.975539 0.371477 0.308691 -0.654319
Zn1   Zn    Zn3+2 0.374720 0.508290 0.506830 0.907709
Zn2   Zn    Zn3+2 0.625280 0.491710 0.493170 0.920728

loop_
_geom_bond_atom_site_label_1
_geom_bond_atom_site_label_2
_ccdc_geom_bond_type
C15   C18   A    
C37   H32   S    
O4    Zn2   S    
C3    C42   A    
C29   C42   S    
C28   H10   S    
C40   N2    A    
C35   C36   S    
O6    Zn1   S    
C39   C41   A    
C17   C23   A    
C14   C21   A    
C36   C37   S    
C28   H9    S    
C27   H13   S    
C20   C25   S    
C6    O7    A    
C41   N1    A    
C30   H15   S    
O8    Zn2   S    
N2    Zn2   S    
C24   H40   S    
C25   H8    S    
C16   C34   A    
O7    Zn2   S    
C24   H38   S    
C22   H2    S    
C35   H28   S    
C17   H34   S    
C29   H18   S    
C2    C27   S    
C1    C15   S    
C5    O6    A    
C26   H6    S    
C6    O9    A    
C1    O4    A    
C37   H33   S    
C3    C39   A    
O9    Zn1   S    
C21   C22   S    
C30   H17   S    
C31   H20   S    
C2    N1    A    
C19   H1    S    
C1    O1    A    
C15   C20   A    
C29   H19   S    
C31   H21   S    
C12   O5    A    
C42   N2    A    
C32   H22   S    
C41   H36   S    
C5    C7    S    
C26   H4    S    
C27   H14   S    
C6    C8    S    
C21   C34   A    
C25   C26   S    
C37   H35   S    
O5    Zn1   S    
C2    C4    A    
C24   H39   S    
C29   C30   S    
C31   C32   S    
C20   C23   A    
C23   C34   A    
N1    Zn1   S    
O3    Zn2   S    
C38   O10   S    
C40   H37   S    
O1    Zn1   S    
C9    C11   S    
C26   H5    S    
C16   C18   A    
C4    C38   A    
C22   C24   S    
C3    C4    A    
C33   H25   S    
C32   H24   S    
C7    C9    T    
C12   O3    A    
C14   C19   A    
C12   C14   S    
C10   C13   S    
C28   H11   S    
C33   H27   S    
C31   O10   S    
C32   C33   S    
C38   C40   A    
C11   C13   T    
C30   H16   S    
C17   C19   A    
C25   H7    S    
C5    O8    A    
C36   H31   S    
C18   H12   S    
C35   H29   S    
C22   H3    S    
C8    C10   T    
C27   C28   S    
C16   H23   S    
C39   O2    S    
C35   O2    S    
C36   H30   S    
C33   H26   S    
