data_mof_unit_61897.cif
_audit_creation_date              2012-12-10T18:03:33-0500
_audit_creation_method            fapswitch 2.2
_symmetry_space_group_name_H-M    P1
_symmetry_Int_Tables_number       1
_space_group_crystal_system       triclinic
_cell_length_a                    21.636133
_cell_length_b                    21.636216
_cell_length_c                    47.052301
_cell_angle_alpha                 90.00067
_cell_angle_beta                  90.000534
_cell_angle_gamma                 89.999931
_cell_volume                      22026.313562

loop_
_atom_site_label
_atom_site_type_symbol
_atom_type_description
_atom_site_fract_x
_atom_site_fract_y
_atom_site_fract_z
_atom_type_partial_charge
C1    C     C_R   1.000000 0.120278 0.000000 0.881905
C2    C     C_R   0.879722 0.000000 1.000000 0.881904
C3    C     C_R   1.000000 0.879722 1.000000 0.881906
C4    C     C_R   0.120278 0.000000 0.000000 0.881905
C5    C     C_R   0.500000 0.620278 0.500000 0.881901
C6    C     C_R   0.379722 0.500000 0.500000 0.881899
C7    C     C_R   0.500000 0.379722 0.500000 0.881902
C8    C     C_R   0.620278 0.500000 0.500000 0.881899
C9    C     C_R   0.999997 0.500004 0.764965 -0.007665
C10   C     C_R   0.500001 0.999997 0.764969 -0.007671
C11   C     C_R   0.999999 0.499995 0.235030 -0.007673
C12   C     C_R   0.499998 0.000004 0.235028 -0.007667
C13   C     C_R   0.499998 0.000003 0.264970 -0.007672
C14   C     C_R   0.999999 0.499995 0.264972 -0.007670
C15   C     C_R   0.500001 0.999997 0.735028 -0.007665
C16   C     C_R   0.999997 0.500005 0.735024 -0.007638
C17   C     C_R   0.079245 0.579748 0.764808 -0.127356
C18   C     C_R   0.579469 0.920463 0.764811 -0.127355
C19   C     C_R   0.920748 0.420261 0.764806 -0.127356
C20   C     C_R   0.420534 0.079532 0.764811 -0.127354
C21   C     C_R   0.079558 0.420552 0.235188 -0.127351
C22   C     C_R   0.579315 0.079688 0.235188 -0.127355
C23   C     C_R   0.920439 0.579439 0.235189 -0.127350
C24   C     C_R   0.420680 0.920320 0.235185 -0.127355
C25   C     C_R   0.579551 0.079452 0.264812 -0.127350
C26   C     C_R   0.079322 0.420316 0.264813 -0.127351
C27   C     C_R   0.420444 0.920555 0.264810 -0.127351
C28   C     C_R   0.920675 0.579674 0.264813 -0.127352
C29   C     C_R   0.579702 0.920697 0.735186 -0.127354
C30   C     C_R   0.079010 0.579982 0.735183 -0.127370
C31   C     C_R   0.420299 0.079298 0.735186 -0.127355
C32   C     C_R   0.920984 0.420028 0.735181 -0.127370
C33   C     C_R   0.550200 0.974874 0.131066 0.636598
C34   C     C_R   0.025188 0.550169 0.131068 0.636595
C35   C     C_R   0.449798 0.025133 0.131065 0.636601
C36   C     C_R   0.974813 0.449826 0.131067 0.636595
C37   C     C_R   0.550151 0.025227 0.868932 0.636571
C38   C     C_R   0.025333 0.449907 0.868928 0.636581
C39   C     C_R   0.449853 0.974769 0.868931 0.636571
C40   C     C_R   0.974663 0.550097 0.868930 0.636581
C41   C     C_R   0.050269 0.475018 0.631063 0.636613
C42   C     C_R   0.525134 0.050197 0.631067 0.636593
C43   C     C_R   0.949727 0.524991 0.631062 0.636615
C44   C     C_R   0.474866 0.949799 0.631065 0.636594
C45   C     C_R   0.050204 0.525119 0.368934 0.636608
C46   C     C_R   0.525187 0.949831 0.368932 0.636597
C47   C     C_R   0.949796 0.474874 0.368934 0.636611
C48   C     C_R   0.474809 0.050171 0.368933 0.636598
C49   C     C_R   0.550932 0.974835 0.101304 -0.028042
C50   C     C_R   0.025225 0.550903 0.101306 -0.028064
C51   C     C_R   0.449066 0.025169 0.101304 -0.028046
C52   C     C_R   0.974776 0.449093 0.101305 -0.028064
C53   C     C_R   0.550884 0.025265 0.898694 -0.028076
C54   C     C_R   0.025370 0.449170 0.898690 -0.028121
C55   C     C_R   0.449119 0.974732 0.898693 -0.028078
C56   C     C_R   0.974628 0.550832 0.898691 -0.028119
C57   C     C_R   0.051000 0.474976 0.601301 -0.028002
C58   C     C_R   0.525173 0.050929 0.601305 -0.028044
C59   C     C_R   0.948998 0.525028 0.601300 -0.028005
C60   C     C_R   0.474828 0.949067 0.601303 -0.028043
C61   C     C_R   0.050937 0.525157 0.398696 -0.028044
C62   C     C_R   0.525225 0.949097 0.398694 -0.028066
C63   C     C_R   0.949064 0.474839 0.398696 -0.028049
C64   C     C_R   0.474773 0.050905 0.398695 -0.028066
C65   C     C_R   0.499999 0.000001 0.086416 -0.210915
C66   C     C_R   0.000001 0.499999 0.086417 -0.210953
C67   C     C_R   0.500001 0.999999 0.913583 -0.210954
C68   C     C_R   0.999999 0.500001 0.913581 -0.211035
C69   C     C_R   0.999999 0.500001 0.586413 -0.210815
C70   C     C_R   0.500000 0.999999 0.586416 -0.210919
C71   C     C_R   0.000000 0.499999 0.413584 -0.210902
C72   C     C_R   0.499999 0.000000 0.413583 -0.210950
C73   C     C_R   0.499999 0.000005 0.145781 -0.021719
C74   C     C_R   0.000000 0.499997 0.145782 -0.021735
C75   C     C_R   0.500002 0.999998 0.854217 -0.021658
C76   C     C_R   0.999997 0.500002 0.854214 -0.021727
C77   C     C_R   0.999998 0.500005 0.645777 -0.021659
C78   C     C_R   0.500000 0.999998 0.645780 -0.021708
C79   C     C_R   0.000000 0.499995 0.354220 -0.021733
C80   C     C_R   0.499998 0.000001 0.354218 -0.021734
C81   C     C_R   0.218670 0.043854 0.983245 0.140730
C82   C     C_R   0.956144 0.218669 0.983246 0.140723
C83   C     C_R   0.781330 0.956147 0.983244 0.140729
C84   C     C_R   0.043855 0.781330 0.983245 0.140723
C85   C     C_R   0.218671 0.956148 0.016756 0.140735
C86   C     C_R   0.956144 0.781331 0.016754 0.140733
C87   C     C_R   0.781330 0.043853 0.016756 0.140735
C88   C     C_R   0.043855 0.218670 0.016755 0.140733
C89   C     C_R   0.718670 0.543853 0.483244 0.140735
C90   C     C_R   0.456143 0.718669 0.483246 0.140731
C91   C     C_R   0.281329 0.456148 0.483243 0.140734
C92   C     C_R   0.543855 0.281330 0.483245 0.140730
C93   C     C_R   0.718671 0.456149 0.516757 0.140742
C94   C     C_R   0.456144 0.281330 0.516754 0.140733
C95   C     C_R   0.281330 0.543852 0.516756 0.140742
C96   C     C_R   0.543855 0.718670 0.516755 0.140732
C97   C     C_R   0.282663 0.043757 0.983815 -0.174576
C98   C     C_R   0.956240 0.282662 0.983816 -0.174557
C99   C     C_R   0.717336 0.956243 0.983814 -0.174578
C100  C     C_R   0.043759 0.717337 0.983816 -0.174560
C101  C     C_R   0.282664 0.956244 0.016186 -0.174598
C102  C     C_R   0.956241 0.717338 0.016184 -0.174587
C103  C     C_R   0.717337 0.043757 0.016186 -0.174596
C104  C     C_R   0.043759 0.282663 0.016185 -0.174589
C105  C     C_R   0.782663 0.543756 0.483814 -0.174588
C106  C     C_R   0.456240 0.782662 0.483816 -0.174578
C107  C     C_R   0.217336 0.456244 0.483813 -0.174590
C108  C     C_R   0.543759 0.217337 0.483816 -0.174579
C109  C     C_R   0.782664 0.456245 0.516187 -0.174614
C110  C     C_R   0.456240 0.217338 0.516184 -0.174588
C111  C     C_R   0.217337 0.543756 0.516186 -0.174612
C112  C     C_R   0.543759 0.782663 0.516185 -0.174590
C113  C     C_R   0.313953 0.000000 0.000000 -0.107644
C114  C     C_R   1.000000 0.313952 0.000000 -0.107678
C115  C     C_R   0.686047 1.000000 0.000000 -0.107644
C116  C     C_R   1.000000 0.686048 0.000000 -0.107678
C117  C     C_R   0.813953 0.500000 0.500000 -0.107599
C118  C     C_R   0.500000 0.813952 0.500000 -0.107644
C119  C     C_R   0.186047 0.500000 0.500000 -0.107598
C120  C     C_R   0.500000 0.186048 0.500000 -0.107644
C121  C     C_R   0.186639 0.000000 0.000000 -0.049913
C122  C     C_R   1.000000 0.186639 0.000000 -0.049910
C123  C     C_R   0.813361 0.000000 1.000000 -0.049913
C124  C     C_R   0.999999 0.813361 1.000000 -0.049910
C125  C     C_R   0.686639 0.500000 0.500000 -0.049914
C126  C     C_R   0.499999 0.686639 0.500000 -0.049909
C127  C     C_R   0.313361 0.500000 0.500000 -0.049914
C128  C     C_R   0.499999 0.313361 0.500000 -0.049909
C129  C     C_R   0.500000 0.000000 0.055374 0.961500
C130  C     C_R   0.000000 0.500000 0.055374 0.961500
C131  C     C_R   0.500000 1.000000 0.944625 0.961475
C132  C     C_R   1.000000 0.500000 0.944625 0.961470
C133  C     C_R   1.000000 0.500000 0.555373 0.961513
C134  C     C_R   0.500000 1.000000 0.555374 0.961500
C135  C     C_R   0.000000 0.500000 0.444626 0.961487
C136  C     C_R   0.500000 0.000000 0.444626 0.961488
C137  C     C_R   0.379871 0.000000 0.000000 0.871360
C138  C     C_R   0.000000 0.379871 0.000000 0.871375
C139  C     C_R   0.620128 1.000000 0.000000 0.871359
C140  C     C_R   1.000000 0.620129 0.000000 0.871375
C141  C     C_R   0.879872 0.500000 0.500000 0.871334
C142  C     C_R   0.500000 0.879871 0.500000 0.871354
C143  C     C_R   0.120128 0.500000 0.500000 0.871333
C144  C     C_R   0.500000 0.120129 0.500000 0.871355
C145  C     C_R   0.960724 0.461127 0.809653 0.624701
C146  C     C_R   0.461260 0.039407 0.809658 0.624684
C147  C     C_R   0.039270 0.538880 0.809654 0.624701
C148  C     C_R   0.538744 0.960588 0.809658 0.624685
C149  C     C_R   0.960576 0.538725 0.190342 0.624686
C150  C     C_R   0.461330 0.960522 0.190339 0.624680
C151  C     C_R   0.039423 0.461267 0.190341 0.624684
C152  C     C_R   0.538666 0.039488 0.190340 0.624685
C153  C     C_R   0.460577 0.961271 0.309658 0.624686
C154  C     C_R   0.961330 0.539476 0.309660 0.624683
C155  C     C_R   0.539418 0.038734 0.309659 0.624685
C156  C     C_R   0.038669 0.460514 0.309660 0.624686
C157  C     C_R   0.460509 0.038657 0.690339 0.624680
C158  C     C_R   0.961478 0.460381 0.690335 0.624683
C159  C     C_R   0.539490 0.961337 0.690339 0.624679
C160  C     C_R   0.038516 0.539629 0.690336 0.624686
C161  C     C_R   0.039861 0.539944 0.779900 -0.047099
C162  C     C_R   0.539803 0.959991 0.779903 -0.047067
C163  C     C_R   0.960132 0.460064 0.779899 -0.047099
C164  C     C_R   0.460200 0.040004 0.779904 -0.047064
C165  C     C_R   0.040019 0.460206 0.220096 -0.047073
C166  C     C_R   0.539724 0.040086 0.220095 -0.047069
C167  C     C_R   0.959979 0.539785 0.220096 -0.047073
C168  C     C_R   0.460271 0.959923 0.220094 -0.047068
C169  C     C_R   0.540014 0.039795 0.279904 -0.047075
C170  C     C_R   0.039728 0.459916 0.279906 -0.047072
C171  C     C_R   0.459981 0.960211 0.279903 -0.047075
C172  C     C_R   0.960270 0.540074 0.279906 -0.047070
C173  C     C_R   0.540090 0.960279 0.720094 -0.047062
C174  C     C_R   0.039571 0.540233 0.720090 -0.047072
C175  C     C_R   0.459910 0.039715 0.720094 -0.047063
C176  C     C_R   0.960423 0.459777 0.720089 -0.047070
H1    H     H_    0.308379 0.076922 0.971204 0.160948
H2    H     H_    0.923072 0.308378 0.971206 0.160963
H3    H     H_    0.691620 0.923077 0.971203 0.160948
H4    H     H_    0.076927 0.691620 0.971206 0.160964
H5    H     H_    0.308380 0.923079 0.028797 0.160937
H6    H     H_    0.923073 0.691622 0.028794 0.160947
H7    H     H_    0.691621 0.076922 0.028797 0.160936
H8    H     H_    0.076926 0.308380 0.028795 0.160946
H9    H     H_    0.808379 0.576920 0.471203 0.160933
H10   H     H_    0.423073 0.808378 0.471206 0.160946
H11   H     H_    0.191620 0.423080 0.471202 0.160933
H12   H     H_    0.576926 0.191620 0.471206 0.160946
H13   H     H_    0.808381 0.423081 0.528798 0.160918
H14   H     H_    0.423073 0.191622 0.528794 0.160940
H15   H     H_    0.191621 0.576920 0.528798 0.160917
H16   H     H_    0.576927 0.808380 0.528795 0.160940
H17   H     H_    0.110271 0.610890 0.775819 0.197792
H18   H     H_    0.610502 0.889325 0.775821 0.197786
H19   H     H_    0.889722 0.389119 0.775816 0.197792
H20   H     H_    0.389501 0.110670 0.775822 0.197786
H21   H     H_    0.110706 0.389528 0.224178 0.197786
H22   H     H_    0.610290 0.110884 0.224178 0.197787
H23   H     H_    0.889292 0.610463 0.224178 0.197786
H24   H     H_    0.389706 0.889124 0.224174 0.197786
H25   H     H_    0.610696 0.110478 0.275824 0.197787
H26   H     H_    0.110299 0.389122 0.275824 0.197786
H27   H     H_    0.389300 0.889529 0.275820 0.197787
H28   H     H_    0.889699 0.610868 0.275824 0.197787
H29   H     H_    0.610904 0.889729 0.724175 0.197786
H30   H     H_    0.109864 0.611293 0.724173 0.197793
H31   H     H_    0.389096 0.110266 0.724176 0.197786
H32   H     H_    0.890129 0.388717 0.724170 0.197793
N1    N     N_R   0.999997 0.500003 0.823810 -0.308715
N2    N     N_R   0.500002 0.999998 0.823814 -0.308695
N3    N     N_R   0.999999 0.499996 0.176186 -0.308710
N4    N     N_R   0.499998 0.000005 0.176184 -0.308702
N5    N     N_R   0.499998 0.000002 0.323814 -0.308709
N6    N     N_R   1.000000 0.499995 0.323816 -0.308707
N7    N     N_R   0.499999 0.999997 0.676184 -0.308697
N8    N     N_R   0.999997 0.500005 0.676180 -0.308678
O1    O     O_R   0.999960 0.091640 0.023680 -0.618137
O2    O     O_R   0.908360 0.999960 0.023680 -0.618136
O3    O     O_R   0.000040 0.908360 0.023680 -0.618136
O4    O     O_R   0.091640 0.000040 0.023680 -0.618137
O5    O     O_R   0.999960 0.908360 0.976320 -0.618139
O6    O     O_R   0.908360 0.000040 0.976320 -0.618139
O7    O     O_R   0.000040 0.091640 0.976320 -0.618138
O8    O     O_R   0.091640 0.999960 0.976320 -0.618138
O9    O     O_R   0.499960 0.591640 0.523680 -0.618136
O10   O     O_R   0.408360 0.499960 0.523680 -0.618136
O11   O     O_R   0.500040 0.408360 0.523680 -0.618135
O12   O     O_R   0.591640 0.500040 0.523680 -0.618136
O13   O     O_R   0.499960 0.408360 0.476320 -0.618138
O14   O     O_R   0.408360 0.500040 0.476320 -0.618137
O15   O     O_R   0.500040 0.591640 0.476320 -0.618137
O16   O     O_R   0.591640 0.499960 0.476320 -0.618136
O17   O     O_R   0.499950 0.051720 0.041990 -0.617679
O18   O     O_R   0.948280 0.499950 0.041990 -0.617687
O19   O     O_R   0.500050 0.948280 0.041990 -0.617679
O20   O     O_R   0.051720 0.500050 0.041990 -0.617688
O21   O     O_R   0.499950 0.948280 0.958010 -0.617698
O22   O     O_R   0.948280 0.500050 0.958010 -0.617715
O23   O     O_R   0.500050 0.051720 0.958010 -0.617697
O24   O     O_R   0.051720 0.499950 0.958010 -0.617715
O25   O     O_R   0.999950 0.551720 0.541990 -0.617656
O26   O     O_R   0.448280 0.999950 0.541990 -0.617679
O27   O     O_R   0.000050 0.448280 0.541990 -0.617656
O28   O     O_R   0.551720 0.000050 0.541990 -0.617680
O29   O     O_R   0.999950 0.448280 0.458010 -0.617681
O30   O     O_R   0.448280 0.000050 0.458010 -0.617690
O31   O     O_R   0.000050 0.551720 0.458010 -0.617680
O32   O     O_R   0.551720 0.999950 0.458010 -0.617690
O33   O     O_R   0.408360 0.051710 0.000060 -0.622452
O34   O     O_R   0.948290 0.408360 0.000060 -0.622448
O35   O     O_R   0.591640 0.948290 0.000060 -0.622451
O36   O     O_R   0.051710 0.591640 0.000060 -0.622447
O37   O     O_R   0.408360 0.948290 0.999940 -0.622458
O38   O     O_R   0.948290 0.591640 0.999940 -0.622459
O39   O     O_R   0.591640 0.051710 0.999940 -0.622459
O40   O     O_R   0.051710 0.408360 0.999940 -0.622458
O41   O     O_R   0.908360 0.551710 0.500060 -0.622453
O42   O     O_R   0.448290 0.908360 0.500060 -0.622453
O43   O     O_R   0.091640 0.448290 0.500060 -0.622452
O44   O     O_R   0.551710 0.091640 0.500060 -0.622453
O45   O     O_R   0.908360 0.448290 0.499940 -0.622463
O46   O     O_R   0.448290 0.091640 0.499940 -0.622457
O47   O     O_R   0.091640 0.551710 0.499940 -0.622463
O48   O     O_R   0.551710 0.908360 0.499940 -0.622457
O49   O     O_2   0.922250 0.423901 0.824374 -0.525278
O50   O     O_2   0.424165 0.078009 0.824379 -0.525323
O51   O     O_2   0.077744 0.576106 0.824376 -0.525280
O52   O     O_2   0.575840 0.921987 0.824379 -0.525321
O53   O     O_2   0.921959 0.575806 0.175621 -0.525294
O54   O     O_2   0.424308 0.921849 0.175617 -0.525307
O55   O     O_2   0.078040 0.424186 0.175620 -0.525294
O56   O     O_2   0.575688 0.078160 0.175619 -0.525306
O57   O     O_2   0.421964 0.924187 0.324378 -0.525292
O58   O     O_2   0.924306 0.578148 0.324382 -0.525297
O59   O     O_2   0.578032 0.075818 0.324381 -0.525293
O60   O     O_2   0.075693 0.421842 0.324381 -0.525296
O61   O     O_2   0.421830 0.075673 0.675618 -0.525317
O62   O     O_2   0.924601 0.421576 0.675612 -0.525342
O63   O     O_2   0.578169 0.924321 0.675618 -0.525317
O64   O     O_2   0.075394 0.578435 0.675615 -0.525339
Zn1   Zn    Zn3+2 0.000000 0.000000 0.031620 0.972415
Zn2   Zn    Zn3+2 0.000000 0.000000 0.968380 0.972403
Zn3   Zn    Zn3+2 0.500000 0.500000 0.531620 0.972425
Zn4   Zn    Zn3+2 0.500000 0.500000 0.468380 0.972415
Zn5   Zn    Zn3+2 0.500000 0.069070 0.000000 0.976334
Zn6   Zn    Zn3+2 0.930930 0.500000 0.000000 0.976294
Zn7   Zn    Zn3+2 0.500000 0.930930 0.000000 0.976334
Zn8   Zn    Zn3+2 0.069070 0.500000 0.000000 0.976294
Zn9   Zn    Zn3+2 0.000000 0.569070 0.500000 0.976403
Zn10  Zn    Zn3+2 0.430930 0.000000 0.500000 0.976352
Zn11  Zn    Zn3+2 0.000000 0.430930 0.500000 0.976403
Zn12  Zn    Zn3+2 0.569070 0.000000 0.500000 0.976353
C177  C     C_3   0.186031 0.091197 0.965008 -0.839767
H33   H     H_    0.218798 0.125486 0.955962 0.238091
H34   H     H_    0.162584 0.067927 0.946972 0.264076
H35   H     H_    0.151462 0.116911 0.977750 0.225145
C178  C     C_3   0.908797 0.186030 0.965011 -0.839771
H36   H     H_    0.874508 0.218797 0.955965 0.238091
H37   H     H_    0.932065 0.162582 0.946974 0.264077
H38   H     H_    0.883085 0.151462 0.977753 0.225143
C179  C     C_3   0.813968 0.908803 0.965007 -0.839767
H39   H     H_    0.781201 0.874515 0.955960 0.238092
H40   H     H_    0.837414 0.932074 0.946971 0.264076
H41   H     H_    0.848537 0.883090 0.977748 0.225145
C180  C     C_3   0.091201 0.813968 0.965010 -0.839770
H42   H     H_    0.125490 0.781201 0.955964 0.238092
H43   H     H_    0.067933 0.837415 0.946974 0.264077
H44   H     H_    0.116914 0.848536 0.977753 0.225142
C181  C     C_3   0.186032 0.908804 0.034993 -0.839760
H45   H     H_    0.218800 0.874517 0.044040 0.238093
H46   H     H_    0.162586 0.932075 0.053029 0.264077
H47   H     H_    0.151463 0.883090 0.022251 0.225144
C182  C     C_3   0.908798 0.813970 0.034989 -0.839765
H48   H     H_    0.874509 0.781203 0.044035 0.238093
H49   H     H_    0.932066 0.837417 0.053026 0.264078
H50   H     H_    0.883085 0.848538 0.022247 0.225143
C183  C     C_3   0.813969 0.091197 0.034993 -0.839761
H51   H     H_    0.781202 0.125485 0.044040 0.238093
H52   H     H_    0.837416 0.067927 0.053029 0.264078
H53   H     H_    0.848538 0.116911 0.022251 0.225144
C184  C     C_3   0.091201 0.186032 0.034991 -0.839765
H54   H     H_    0.125490 0.218799 0.044037 0.238094
H55   H     H_    0.067932 0.162585 0.053027 0.264078
H56   H     H_    0.116913 0.151463 0.022249 0.225142
C185  C     C_3   0.686031 0.591196 0.465007 -0.839754
H57   H     H_    0.718798 0.625483 0.455961 0.238094
H58   H     H_    0.662584 0.567925 0.446972 0.264076
H59   H     H_    0.651462 0.616910 0.477749 0.225145
C186  C     C_3   0.408796 0.686030 0.465011 -0.839761
H60   H     H_    0.374507 0.718797 0.455965 0.238095
H61   H     H_    0.432064 0.662582 0.446975 0.264077
H62   H     H_    0.383084 0.651463 0.477754 0.225142
C187  C     C_3   0.313968 0.408805 0.465006 -0.839754
H63   H     H_    0.281200 0.374518 0.455959 0.238095
H64   H     H_    0.337414 0.432077 0.446970 0.264076
H65   H     H_    0.348537 0.383091 0.477747 0.225145
C188  C     C_3   0.591202 0.313968 0.465010 -0.839760
H66   H     H_    0.625491 0.281201 0.455965 0.238096
H67   H     H_    0.567934 0.337416 0.446974 0.264077
H68   H     H_    0.616914 0.348536 0.477754 0.225142
C189  C     C_3   0.686033 0.408806 0.534994 -0.839749
H69   H     H_    0.718800 0.374519 0.544041 0.238096
H70   H     H_    0.662586 0.432078 0.553029 0.264077
H71   H     H_    0.651464 0.383091 0.522252 0.225144
C190  C     C_3   0.408797 0.313970 0.534989 -0.839756
H72   H     H_    0.374508 0.281203 0.544034 0.238097
H73   H     H_    0.432065 0.337418 0.553025 0.264078
H74   H     H_    0.383085 0.348538 0.522246 0.225142
C191  C     C_3   0.313969 0.591195 0.534994 -0.839750
H75   H     H_    0.281201 0.625483 0.544041 0.238097
H76   H     H_    0.337416 0.567924 0.553029 0.264078
H77   H     H_    0.348537 0.616910 0.522253 0.225145
C192  C     C_3   0.591202 0.686032 0.534990 -0.839754
H78   H     H_    0.625491 0.718799 0.544037 0.238097
H79   H     H_    0.567933 0.662585 0.553027 0.264077
H80   H     H_    0.616914 0.651463 0.522248 0.225142
F1    F     F_    0.598012 0.950353 0.146016 -0.630452
F2    F     F_    0.049767 0.597951 0.146018 -0.630444
F3    F     F_    0.401986 0.049656 0.146015 -0.630450
F4    F     F_    0.950233 0.402043 0.146016 -0.630444
F5    F     F_    0.597911 0.049845 0.853982 -0.630466
F6    F     F_    0.050057 0.402201 0.853978 -0.630438
F7    F     F_    0.402093 0.950150 0.853981 -0.630465
F8    F     F_    0.949938 0.597803 0.853980 -0.630437
F9    F     F_    0.098152 0.450637 0.646013 -0.630465
F10   F     F_    0.549661 0.098007 0.646017 -0.630451
F11   F     F_    0.901845 0.549373 0.646011 -0.630463
F12   F     F_    0.450339 0.901988 0.646015 -0.630449
F13   F     F_    0.098019 0.549633 0.353985 -0.630447
F14   F     F_    0.549769 0.902049 0.353982 -0.630443
F15   F     F_    0.901981 0.450358 0.353984 -0.630446
F16   F     F_    0.450227 0.097953 0.353984 -0.630443
C193  C     C_3   0.606318 0.949375 0.085602 -0.724941
H81   H     H_    0.643902 0.934853 0.100189 0.284167
H82   H     H_    0.592495 0.908417 0.072911 0.241576
H83   H     H_    0.625423 0.985256 0.071182 0.206585
C194  C     C_3   0.050741 0.606264 0.085605 -0.724860
H84   H     H_    0.065291 0.643835 0.100193 0.284152
H85   H     H_    0.091692 0.592403 0.072918 0.241599
H86   H     H_    0.014883 0.625401 0.071182 0.206582
C195  C     C_3   0.393679 0.050625 0.085600 -0.724946
H87   H     H_    0.356096 0.065147 0.100187 0.284168
H88   H     H_    0.407501 0.091582 0.072909 0.241577
H89   H     H_    0.374577 0.014743 0.071180 0.206584
C196  C     C_3   0.949260 0.393733 0.085602 -0.724858
H90   H     H_    0.934710 0.356161 0.100189 0.284151
H91   H     H_    0.908309 0.407595 0.072915 0.241600
H92   H     H_    0.985118 0.374597 0.071178 0.206580
C197  C     C_3   0.606223 0.050827 0.914395 -0.724818
H93   H     H_    0.643786 0.065398 0.899808 0.284137
H94   H     H_    0.592331 0.091771 0.927078 0.241624
H95   H     H_    0.625384 0.014989 0.928822 0.206579
C198  C     C_3   0.051039 0.393877 0.914389 -0.724652
H96   H     H_    0.065661 0.356337 0.899800 0.284108
H97   H     H_    0.091972 0.407840 0.927064 0.241661
H98   H     H_    0.015245 0.374656 0.928822 0.206572
C199  C     C_3   0.393779 0.949171 0.914393 -0.724822
H99   H     H_    0.356217 0.934599 0.899805 0.284139
H100  H     H_    0.407671 0.908227 0.927076 0.241624
H101  H     H_    0.374618 0.985009 0.928820 0.206580
C200  C     C_3   0.948960 0.606125 0.914391 -0.724645
H102  H     H_    0.934338 0.643667 0.899803 0.284106
H103  H     H_    0.908027 0.592163 0.927065 0.241660
H104  H     H_    0.984754 0.625345 0.928825 0.206569
C201  C     C_3   0.106449 0.449664 0.585596 -0.725160
H105  H     H_    0.144062 0.435213 0.600182 0.284212
H106  H     H_    0.092723 0.408690 0.572893 0.241524
H107  H     H_    0.125472 0.485605 0.571185 0.206597
C202  C     C_3   0.550636 0.106314 0.585603 -0.724927
H108  H     H_    0.565161 0.143896 0.600190 0.284168
H109  H     H_    0.591593 0.092489 0.572912 0.241580
H110  H     H_    0.514755 0.125422 0.571183 0.206585
C203  C     C_3   0.893549 0.550339 0.585594 -0.725158
H111  H     H_    0.855936 0.564790 0.600179 0.284212
H112  H     H_    0.907274 0.591312 0.572892 0.241524
H113  H     H_    0.874527 0.514396 0.571183 0.206596
C204  C     C_3   0.449365 0.893683 0.585600 -0.724927
H114  H     H_    0.434840 0.856101 0.600186 0.284168
H115  H     H_    0.408408 0.907509 0.572909 0.241581
H116  H     H_    0.485245 0.874576 0.571180 0.206584
C205  C     C_3   0.106327 0.550607 0.414400 -0.724957
H117  H     H_    0.143912 0.565125 0.399813 0.284170
H118  H     H_    0.092509 0.591564 0.427092 0.241575
H119  H     H_    0.125426 0.514721 0.428819 0.206585
C206  C     C_3   0.550743 0.893737 0.414395 -0.724853
H120  H     H_    0.565293 0.856166 0.399808 0.284151
H121  H     H_    0.591694 0.907599 0.427082 0.241602
H122  H     H_    0.514886 0.874599 0.428819 0.206580
C207  C     C_3   0.893674 0.449393 0.414399 -0.724965
H123  H     H_    0.856088 0.434874 0.399812 0.284173
H124  H     H_    0.907490 0.408436 0.427092 0.241577
H125  H     H_    0.874576 0.485280 0.428818 0.206587
C208  C     C_3   0.449255 0.106264 0.414397 -0.724852
H126  H     H_    0.434705 0.143836 0.399810 0.284151
H127  H     H_    0.408305 0.092402 0.427083 0.241602
H128  H     H_    0.485112 0.125401 0.428821 0.206579

loop_
_geom_bond_atom_site_label_1
_geom_bond_atom_site_label_2
_ccdc_geom_bond_type
C21   C26   A    
C37   F5    S    
C119  C143  S    
C206  H120  S    
C108  C120  A    
C73   N4    S    
C120  C144  S    
C24   C27   A    
C195  H88   S    
C14   C170  A    
C42   C58   A    
C153  N5    A    
C188  H66   S    
C89   C125  A    
C179  H39   S    
O2    Zn1   S    
C111  H15   S    
C91   C127  A    
C129  O19   A    
C103  H7    S    
O5    Zn2   S    
C91   C187  S    
C6    C127  S    
C199  H100  S    
C84   C180  S    
C187  H65   S    
O14   Zn4   S    
C101  C113  A    
O48   Zn12  S    
C1    C122  S    
C194  H86   S    
C2    O2    A    
C88   C104  A    
O8    Zn2   S    
C149  C167  A    
C5    C126  S    
C5    O15   A    
C85   C121  A    
C7    C128  S    
C186  H60   S    
C154  N6    A    
C154  C172  A    
C61   C71   A    
C83   C179  S    
C37   C75   A    
C203  H112  S    
C106  C118  A    
C11   C167  A    
C17   C30   A    
C82   C98   A    
O35   Zn7   S    
C19   C32   A    
O36   Zn8   S    
C192  H79   S    
O38   Zn6   S    
O27   Zn11  S    
C157  N7    A    
C15   C173  A    
C102  H6    S    
C91   C107  A    
C106  H10   S    
C88   C122  A    
C193  H83   S    
C58   C70   A    
C187  H63   S    
C110  H14   S    
C40   C76   A    
C81   C121  A    
C150  N4    A    
C183  H53   S    
C31   H31   S    
C55   C199  S    
C155  C169  A    
C137  O33   A    
C208  H128  S    
C150  C168  A    
C90   C126  A    
C190  H74   S    
C47   F15   S    
C67   C131  S    
C59   C69   A    
C23   C167  A    
C33   C73   A    
C46   C62   A    
C35   C51   A    
C197  H93   S    
C206  H122  S    
C113  C137  S    
C54   C198  S    
C93   C189  S    
C188  H68   S    
C179  H41   S    
O24   Zn8   S    
C141  O45   A    
C108  H12   S    
C21   H21   S    
C198  H96   S    
C40   F8    S    
C74   N3    S    
C1    O7    A    
C148  C162  A    
C151  C165  A    
C201  H105  S    
C47   C63   A    
C7    O11   A    
C156  C170  A    
C5    O9    A    
C156  O60   S    
C98   C114  A    
C21   C165  A    
O25   Zn9   S    
C51   C195  S    
C200  H103  S    
C26   C170  A    
C147  O51   S    
C184  H54   S    
C11   C165  A    
C153  O57   S    
C202  H108  S    
C115  C139  S    
C88   C184  S    
C30   C174  A    
C77   N8    S    
C196  H91   S    
C20   C164  A    
O44   Zn12  S    
C75   N2    S    
C191  H75   S    
C18   H18   S    
C159  O63   S    
C160  O64   S    
C110  C120  A    
C90   C186  S    
C150  O54   S    
C200  H102  S    
C8    O12   A    
O41   Zn9   S    
C38   C76   A    
C207  H123  S    
O29   Zn11  S    
C136  O32   A    
C27   H27   S    
C25   H25   S    
C142  O42   A    
C182  H49   S    
C54   C68   A    
C158  N8    A    
C6    O10   A    
C29   H29   S    
C111  C119  A    
C185  H58   S    
C62   C206  S    
C132  O22   A    
C28   C172  A    
C180  H43   S    
C22   C25   A    
C197  H95   S    
C39   C75   A    
C32   H32   S    
C36   C52   A    
C43   C59   A    
C36   F4    S    
O7    Zn2   S    
C37   C53   A    
C13   C169  A    
O23   Zn5   S    
O47   Zn9   S    
C204  H115  S    
C145  N1    A    
C189  H70   S    
C198  H98   S    
O17   Zn5   S    
C41   C57   A    
C159  N7    A    
O18   Zn6   S    
C135  O31   A    
C143  O43   A    
C201  H107  S    
C145  C163  A    
C4    O4    A    
C56   C68   A    
C146  C164  A    
C68   C132  S    
C9    C161  A    
C177  H33   S    
C184  H56   S    
C136  O30   A    
C18   C29   A    
C19   C163  A    
C23   C28   A    
C202  H110  S    
C39   F7    S    
C134  O28   A    
C92   C188  S    
C34   F2    S    
C17   C161  A    
C181  H47   S    
O12   Zn3   S    
C191  H77   S    
C6    O14   A    
C86   C124  A    
C104  C114  A    
C100  H4    S    
C200  H104  S    
C101  H5    S    
C86   C182  S    
C70   C134  S    
C207  H125  S    
C16   C174  A    
O30   Zn10  S    
C94   C190  S    
O11   Zn3   S    
C78   N7    S    
C152  C166  A    
O3    Zn1   S    
C80   N5    S    
C205  H119  S    
C100  C116  A    
C44   C78   A    
C132  O24   A    
C199  H99   S    
C46   C80   A    
C16   C176  A    
C50   C194  S    
C130  O20   A    
C186  H62   S    
C154  O58   S    
C114  C138  S    
C53   C67   A    
C194  H85   S    
C46   F14   S    
C13   C171  A    
C53   C197  S    
C12   C13   A    
C10   C162  A    
C89   C105  A    
C141  O41   A    
C145  O49   S    
C93   C109  A    
C86   C102  A    
C38   F6    S    
C203  H111  S    
C58   C202  S    
C59   C203  S    
C135  O29   A    
C140  O36   A    
O6    Zn2   S    
C144  O46   A    
C96   C192  S    
C192  H78   S    
C109  C117  A    
C32   C176  A    
C205  H117  S    
C44   F12   S    
C24   H24   S    
C177  H35   S    
C193  H82   S    
C99   C115  A    
C158  O62   S    
C33   C49   A    
C160  N8    A    
C2    O6    A    
C89   C185  S    
O40   Zn8   S    
C51   C65   A    
C9    C163  A    
O10   Zn3   S    
C134  O26   A    
C116  C140  S    
C17   H17   S    
C79   N6    S    
C39   C55   A    
C40   C56   A    
C69   C133  S    
O4    Zn1   S    
C190  H73   S    
O42   Zn10  S    
C187  H64   S    
C152  N4    A    
C3    O5    A    
C12   C166  A    
C83   C99   A    
C206  H121  S    
C105  C117  A    
C142  O48   A    
C138  O40   A    
C107  C119  A    
C188  H67   S    
C183  H52   S    
C60   C204  S    
C179  H40   S    
C49   C193  S    
C157  O61   S    
C90   C106  A    
C155  O59   S    
C147  C161  A    
C199  H101  S    
C29   C173  A    
O32   Zn12  S    
C85   C181  S    
C138  O34   A    
C189  H69   S    
C130  O18   A    
C84   C100  A    
C117  C141  S    
C99   H3    S    
C103  C115  A    
C45   F13   S    
C112  H16   S    
C96   C112  A    
C97   H1    S    
C38   C54   A    
C87   C183  S    
O31   Zn9   S    
C45   C79   A    
C178  H37   S    
C151  N3    A    
C36   C74   A    
C34   C74   A    
C104  H8    S    
C203  H113  S    
C140  O38   A    
O21   Zn7   S    
C192  H80   S    
C52   C66   A    
C3    C124  S    
C196  H90   S    
C7    O13   A    
C24   C168  A    
C160  C174  A    
C22   H22   S    
C149  N3    A    
C65   C129  S    
C94   C128  A    
O39   Zn5   S    
C148  O52   S    
C149  O53   S    
C71   C135  S    
C18   C162  A    
C182  H48   S    
C95   C191  S    
C43   F11   S    
C44   C60   A    
O45   Zn11  S    
C45   C61   A    
C94   C110  A    
C4    C121  S    
C63   C207  S    
O9    Zn3   S    
C185  H57   S    
C82   C122  A    
C41   F9    S    
C95   C127  A    
C8    C125  S    
C3    O3    A    
C180  H42   S    
C197  H94   S    
C1    O1    A    
C83   C123  A    
C147  N1    A    
C2    C123  S    
C76   N1    S    
C87   C123  A    
C19   H19   S    
C107  H11   S    
C178  H36   S    
C139  O39   A    
C47   C79   A    
C204  H114  S    
C82   C178  S    
C31   C175  A    
C181  H45   S    
C198  H97   S    
C49   C65   A    
C26   H26   S    
C9    C16   A    
C131  O21   A    
C10   C15   A    
C201  H106  S    
C41   C77   A    
C11   C14   A    
C72   C136  S    
C30   H30   S    
C23   H23   S    
C146  O50   S    
C105  H9    S    
C155  N5    A    
C81   C177  S    
C48   C64   A    
C133  O25   A    
O28   Zn12  S    
C109  H13   S    
C184  H55   S    
O19   Zn7   S    
C84   C124  A    
O20   Zn8   S    
C22   C166  A    
C202  H109  S    
O22   Zn6   S    
C196  H92   S    
C42   F10   S    
C191  H76   S    
O33   Zn5   S    
C64   C208  S    
C60   C70   A    
C92   C128  A    
C146  N2    A    
C92   C108  A    
C61   C205  S    
C207  H124  S    
O34   Zn6   S    
C34   C50   A    
C28   H28   S    
O15   Zn4   S    
C14   C172  A    
C131  O23   A    
C182  H50   S    
O13   Zn4   S    
C4    O8    A    
O46   Zn10  S    
C129  O17   A    
C185  H59   S    
C148  N2    A    
C195  H89   S    
O1    Zn1   S    
O43   Zn11  S    
C180  H44   S    
C153  C171  A    
C186  H61   S    
C62   C72   A    
O16   Zn4   S    
C50   C66   A    
C194  H84   S    
C157  C175  A    
C33   F1    S    
C52   C196  S    
C158  C176  A    
C93   C125  A    
C42   C78   A    
C35   F3    S    
C156  N6    A    
C178  H38   S    
C87   C103  A    
C98   H2    S    
C97   C113  A    
C27   C171  A    
C204  H116  S    
C85   C101  A    
C189  H71   S    
C25   C169  A    
C56   C200  S    
C35   C73   A    
C10   C164  A    
C139  O35   A    
C63   C71   A    
C118  C142  S    
C57   C201  S    
C12   C168  A    
C55   C67   A    
O37   Zn7   S    
C43   C77   A    
C208  H127  S    
C15   C175  A    
C48   F16   S    
C48   C80   A    
C177  H34   S    
C95   C111  A    
C193  H81   S    
C133  O27   A    
C112  C118  A    
C8    O16   A    
C151  O55   S    
C195  H87   S    
C181  H46   S    
C81   C97   A    
C152  O56   S    
C64   C72   A    
C183  H51   S    
C144  O44   A    
C102  C116  A    
C143  O47   A    
C205  H118  S    
C208  H126  S    
C159  C173  A    
O26   Zn10  S    
C57   C69   A    
C190  H72   S    
C20   H20   S    
C137  O37   A    
C96   C126  A    
C66   C130  S    
C20   C31   A    
