data_mof_unit_20057.cif
_audit_creation_date              2012-12-11T16:56:09-0500
_audit_creation_method            fapswitch 2.2
_symmetry_space_group_name_H-M    P1
_symmetry_Int_Tables_number       1
_space_group_crystal_system       triclinic
_cell_length_a                    6.961735
_cell_length_b                    14.52098
_cell_length_c                    16.188703
_cell_angle_alpha                 90.432823
_cell_angle_beta                  89.980953
_cell_angle_gamma                 90.009456
_cell_volume                      1636.48884382

loop_
_atom_site_label
_atom_site_type_symbol
_atom_type_description
_atom_site_fract_x
_atom_site_fract_y
_atom_site_fract_z
_atom_type_partial_charge
O1    O     O_R   0.505830 0.583360 0.413880 -0.537515
O2    O     O_R   0.175830 0.595460 0.585520 -0.542060
O3    O     O_R   0.005520 0.416640 0.586120 -0.542287
C1    C     C_R   0.344525 0.617478 0.614405 0.697986
O4    O     O_R   0.176120 0.594390 0.414490 -0.539757
O5    O     O_R   0.005810 0.415570 0.413870 -0.541424
C2    C     C_R   0.344886 0.616292 0.385984 0.701399
O6    O     O_R   0.505540 0.584430 0.586130 -0.537574
O7    O     O_3   0.339200 0.441330 0.500000 -0.371151
V1    V     V_3+5 0.064350 0.510880 0.500000 1.396367
O8    O     O_R   0.676100 0.404540 0.414480 -0.539701
C3    C     C_R   0.845151 0.382044 0.386167 0.694477
O9    O     O_R   0.675810 0.405610 0.585510 -0.539960
C4    C     C_R   0.844989 0.383727 0.613641 0.741309
V2    V     V_3+5 0.564340 0.489120 0.500000 1.400062
O10   O     O_3   0.839360 0.558670 0.500000 -0.370236
C5    C     C_2   0.721009 0.208793 0.786022 -0.130612
C6    C     C_2   0.885628 0.181823 0.822613 -0.311908
H1    H     H_    0.585614 0.179940 0.806868 0.136926
H2    H     H_    0.022694 0.210000 0.803901 0.127152
C7    C     C_2   0.708566 0.277349 0.718075 -0.135957
C8    C     C_2   0.861459 0.315426 0.680452 -0.309760
H3    H     H_    0.565058 0.296403 0.698216 0.135000
H4    H     H_    0.006099 0.297011 0.698412 0.129468
C9    C     C_R   0.725586 0.245052 0.191847 0.096926
C10   C     C_R   0.882618 0.185463 0.183473 -0.116637
C11   C     C_R   0.035040 0.196403 0.239853 -0.175151
H5    H     H_    0.158264 0.151396 0.236226 0.150022
C12   C     C_R   0.023211 0.260660 0.305335 -0.178846
H6    H     H_    0.138959 0.264240 0.349736 0.135516
C13   C     C_R   0.857946 0.315308 0.316693 -0.108432
C14   C     C_R   0.713466 0.308351 0.256846 0.097647
C15   C     C_3   0.504188 0.291174 0.267926 -0.416770
C16   C     C_3   0.517313 0.222609 0.196844 -0.394578
H7    H     H_    0.416214 0.352804 0.253272 0.170162
H8    H     H_    0.472311 0.258374 0.328213 0.178048
H9    H     H_    0.437566 0.244746 0.140931 0.170391
H10   H     H_    0.492196 0.150152 0.215768 0.194856
C17   C     C_R   0.509200 0.747061 0.691348 0.109776
C18   C     C_R   0.352415 0.687414 0.681787 -0.111935
C19   C     C_R   0.200319 0.696989 0.738662 -0.176878
H11   H     H_    0.076881 0.652198 0.734180 0.130632
C20   C     C_R   0.212558 0.759480 0.805653 -0.180942
H12   H     H_    0.096862 0.761932 0.850166 0.127933
C21   C     C_R   0.377984 0.813786 0.818234 -0.109420
C22   C     C_R   0.521681 0.808594 0.757791 0.107731
C23   C     C_3   0.731380 0.791804 0.767673 -0.417835
C24   C     C_3   0.717866 0.725232 0.695041 -0.398170
H13   H     H_    0.764739 0.757403 0.827059 0.167930
H14   H     H_    0.818265 0.854133 0.754146 0.177295
H15   H     H_    0.744262 0.652320 0.712157 0.165869
H16   H     H_    0.796216 0.749265 0.639375 0.178911
C25   C     C_R   0.499098 0.751963 0.315504 0.078427
C26   C     C_R   0.352417 0.686097 0.319640 -0.100326
C27   C     C_R   0.205218 0.691975 0.259980 -0.156523
H17   H     H_    0.085725 0.644389 0.261513 0.111233
C28   C     C_R   0.217542 0.755231 0.194279 -0.125777
H18   H     H_    0.106523 0.754818 0.147503 0.109437
C29   C     C_R   0.376842 0.814758 0.186619 -0.107879
C30   C     C_R   0.510219 0.814761 0.251314 0.118715
C31   C     C_3   0.724677 0.813409 0.251321 -0.195004
C32   C     C_3   0.712241 0.743943 0.321809 -0.443885
H19   H     H_    0.785009 0.784356 0.193183 0.100795
H20   H     H_    0.766545 0.769746 0.382315 0.182103
H21   H     H_    0.763355 0.674053 0.304143 0.164493
O11   O     O_R   0.229930 0.912420 0.917160 -0.541643
O12   O     O_R   0.559420 0.902500 0.088780 -0.544636
O13   O     O_R   0.729660 0.081330 0.089380 -0.531301
C33   C     C_R   0.390311 0.880568 0.117249 0.716383
O14   O     O_R   0.559650 0.901420 0.917750 -0.541992
O15   O     O_R   0.729880 0.080250 0.917130 -0.538278
C34   C     C_R   0.390663 0.879251 0.889002 0.686235
O16   O     O_R   0.229700 0.913500 0.089410 -0.531769
O17   O     O_3   0.396250 0.055540 0.003280 -0.371989
V3    V     V_3+5 0.671130 0.986010 0.003260 1.412332
O18   O     O_R   0.059600 0.091310 0.917720 -0.545813
C35   C     C_R   0.890925 0.113193 0.889560 0.739299
O19   O     O_R   0.059370 0.092380 0.088750 -0.543155
C36   C     C_R   0.890648 0.114512 0.117349 0.724159
V4    V     V_3+5 0.171120 0.007820 0.003230 1.411333
O20   O     O_3   0.896130 0.938240 0.003240 -0.376195
C37   C     C_2   0.811884 0.904331 0.276737 0.799901
O21   O     O_2   0.983984 0.908849 0.291072 -0.558087
O22   O     O_R   0.697387 0.983214 0.283465 -0.671239
H22   H     H_    0.772970 0.039355 0.301953 0.286348

loop_
_geom_bond_atom_site_label_1
_geom_bond_atom_site_label_2
_ccdc_geom_bond_type
C27   H17   S    
C11   C12   A    
C16   H9    S    
C19   H11   S    
C1    O6    A    
C23   H13   S    
C21   C22   A    
O13   V3    S    
C10   C11   A    
C31   C37   S    
O5    C3    A    
C15   H7    S    
O19   V4    S    
C28   C29   A    
V2    O10   S    
C15   H8    S    
C31   H19   S    
C32   H20   S    
O1    C2    A    
C22   C23   S    
O8    V2    S    
C24   H15   S    
O11   C34   A    
C13   C14   A    
C33   O16   A    
O1    V2    S    
O7    V1    S    
C9    C16   S    
C9    C14   A    
C29   C30   A    
O17   V4    S    
C7    C8    D    
C21   C34   S    
C19   C20   A    
C25   C30   A    
C5    C6    D    
C23   H14   S    
C7    H3    S    
O17   V3    S    
C1    C18   S    
O22   H22   S    
C17   C18   A    
O4    C2    A    
O19   C36   A    
V3    O20   S    
C9    C10   A    
C25   C26   A    
C5    C7    S    
C30   C31   S    
O12   C33   A    
O2    C1    A    
C20   H12   S    
C12   H6    S    
C25   C32   S    
C23   C24   S    
C15   C16   S    
O18   C35   A    
C20   C21   A    
O3    C4    A    
C29   C33   S    
C17   C22   A    
C18   C19   A    
O6    V2    S    
C37   O22   S    
O9    V2    S    
C3    C13   S    
C8    H4    S    
O12   V3    S    
O2    V1    S    
O15   C35   A    
C26   C27   A    
C32   H21   S    
C16   H10   S    
O18   V4    S    
V4    O20   S    
O5    V1    S    
O8    C3    A    
O11   V4    S    
C10   C36   S    
C14   C15   S    
C4    C8    S    
C27   C28   A    
O7    V2    S    
O4    V1    S    
C12   C13   A    
O3    V1    S    
V1    O10   S    
O15   V3    S    
C28   H18   S    
O13   C36   A    
C6    C35   S    
C5    H1    S    
O16   V4    S    
C6    H2    S    
C31   C32   S    
C24   H16   S    
C37   O21   D    
O14   V3    S    
O14   C34   A    
C2    C26   S    
O9    C4    A    
C17   C24   S    
C11   H5    S    
