data_mof_unit_61920.cif
_audit_creation_date              2012-12-10T20:59:42-0500
_audit_creation_method            fapswitch 2.2
_symmetry_space_group_name_H-M    P1
_symmetry_Int_Tables_number       1
_space_group_crystal_system       triclinic
_cell_length_a                    15.845274
_cell_length_b                    15.087953
_cell_length_c                    10.656699
_cell_angle_alpha                 90.057355
_cell_angle_beta                  89.970365
_cell_angle_gamma                 89.995905
_cell_volume                      2547.7247054

loop_
_atom_site_label
_atom_site_type_symbol
_atom_type_description
_atom_site_fract_x
_atom_site_fract_y
_atom_site_fract_z
_atom_type_partial_charge
C1    C     C_R   0.338893 0.500004 0.500069 0.900944
C2    C     C_1   0.175645 0.499993 0.501649 -0.061613
C3    C     C_1   0.250493 0.500010 0.500842 -0.171687
C4    C     C_1   0.749482 0.499994 0.500925 -0.155674
C5    C     C_R   0.496769 0.953237 0.393785 0.549699
C6    C     C_R   0.496761 0.046612 0.393786 0.550292
C7    C     C_R   0.499920 0.499793 0.257120 0.864970
C8    C     C_R   0.500287 0.904951 0.506533 -0.397416
C9    C     C_R   0.500257 0.095056 0.506536 -0.394167
C10   C     C_R   0.503887 0.953029 0.621616 0.398051
C11   C     C_R   0.503851 0.047135 0.621619 0.395968
C12   C     C_3   0.585145 0.544996 0.929152 0.816779
C13   C     C_1   0.500121 0.807022 0.502291 0.244978
C14   C     C_1   0.500107 0.192981 0.502293 0.235455
C15   C     C_R   0.661092 0.499999 0.499987 0.897736
C16   C     C_R   0.500481 0.499923 0.742877 0.855815
C17   C     C_3   0.423281 0.550835 0.071753 -0.414878
C18   C     C_3   0.498012 0.402585 0.071071 -0.354478
C19   C     C_3   0.422221 0.548405 0.928038 -0.487381
C20   C     C_3   0.498429 0.402662 0.928477 -0.404983
C21   C     C_3   0.583003 0.544335 0.074551 -0.392732
C22   C     C_3   0.500952 0.499312 0.121174 0.020846
C23   C     C_R   0.956215 0.580257 0.513575 -0.161556
C24   C     C_3   0.502098 0.499727 0.879092 0.022378
C25   C     C_R   0.956238 0.419598 0.492004 -0.166542
C26   C     C_R   0.913114 0.499932 0.502691 0.160720
C27   C     C_R   0.043747 0.419605 0.491920 -0.170531
C28   C     C_R   0.043727 0.580265 0.513490 -0.171044
C29   C     C_R   0.086851 0.499947 0.502520 0.160829
C30   C     C_1   0.824324 0.499975 0.501827 -0.046045
F1    F     F_    0.493293 0.090101 0.282403 -0.591336
F2    F     F_    0.493300 0.909594 0.282401 -0.590405
H1    H     H_    0.425432 0.621044 0.103860 0.210007
H2    H     H_    0.638688 0.508094 0.112495 0.184061
H3    H     H_    0.077643 0.642381 0.521670 0.152895
H4    H     H_    0.077677 0.357510 0.483425 0.152618
H5    H     H_    0.922281 0.642368 0.521802 0.156428
H6    H     H_    0.922323 0.357499 0.483555 0.154039
H7    H     H_    0.507349 0.846339 0.726385 0.336007
H8    H     H_    0.507026 0.153968 0.726410 0.328750
H9    H     H_    0.549093 0.670064 0.922856 0.328822
H10   H     H_    0.665431 0.508138 0.799591 0.340543
H11   H     H_    0.553519 0.364382 0.105515 0.210648
H12   H     H_    0.364042 0.520985 0.108827 0.184037
H13   H     H_    0.439981 0.368480 0.105012 0.204633
H14   H     H_    0.364468 0.513085 0.895644 0.192454
H15   H     H_    0.440370 0.368839 0.893997 0.196526
H16   H     H_    0.417830 0.616991 0.890555 0.199717
H17   H     H_    0.553449 0.363609 0.894162 0.224727
H18   H     H_    0.587325 0.613023 0.112312 0.178023
N1    N     N_1   0.500020 0.270550 0.499960 -0.094726
N2    N     N_1   0.500020 0.729450 0.499960 -0.089208
O1    O     O_R   0.378020 0.573650 0.500000 -0.611507
O2    O     O_3   0.507434 0.088892 0.737172 -0.655126
O3    O     O_3   0.593749 0.632799 0.884522 -0.747094
O4    O     O_3   0.656224 0.495963 0.890104 -0.761819
O5    O     O_R   0.378020 0.426350 0.500000 -0.608659
O6    O     O_R   0.499990 0.573670 0.314770 -0.613778
O7    O     O_R   0.499990 0.426330 0.314770 -0.615966
O8    O     O_R   0.621980 0.573680 0.499940 -0.597697
O9    O     O_R   0.621980 0.426320 0.499940 -0.607986
O10   O     O_R   0.500010 0.573660 0.685180 -0.593834
O11   O     O_R   0.500010 0.426340 0.685180 -0.633591
O12   O     O_3   0.507531 0.911431 0.737163 -0.650621
Zn1   Zn    Zn3+2 0.500000 0.598370 0.499960 1.011988
Zn2   Zn    Zn3+2 0.500000 0.401630 0.499960 0.991697

loop_
_geom_bond_atom_site_label_1
_geom_bond_atom_site_label_2
_ccdc_geom_bond_type
C2    C3    T    
C5    C8    A    
C19   H14   S    
C9    C14   S    
C8    C13   S    
C16   O11   A    
C1    O5    A    
C27   H4    S    
C25   C27   A    
C7    C22   S    
O1    Zn1   S    
C15   O8    A    
C12   C24   S    
O6    Zn1   S    
H8    O2    S    
C14   N1    T    
O5    Zn2   S    
C5    F2    S    
C6    C9    A    
H9    O3    S    
C19   C24   S    
C15   O9    A    
O11   Zn2   S    
C16   C24   S    
C18   C22   S    
C21   C22   S    
H7    O12   S    
C9    C11   A    
C12   O4    S    
C11   O2    S    
C17   H1    S    
C4    C15   S    
C2    C29   S    
C20   H17   S    
C12   C21   S    
C7    O7    A    
C28   C29   A    
C17   C19   S    
O8    Zn1   S    
C26   C30   S    
C18   C20   S    
O7    Zn2   S    
C5    C6    A    
C25   H6    S    
C10   O12   S    
C17   H12   S    
C20   H15   S    
C23   C28   A    
C10   C11   A    
C13   N2    T    
C18   H13   S    
C12   O3    S    
C27   C29   A    
C8    C10   A    
C23   C26   A    
C18   H11   S    
C17   C22   S    
C1    O1    A    
C19   H16   S    
C21   H18   S    
C6    F1    S    
C21   H2    S    
C7    O6    A    
O10   Zn1   S    
H10   O4    S    
C25   C26   A    
C23   H5    S    
O9    Zn2   S    
C16   O10   A    
C4    C30   T    
N2    Zn1   S    
C20   C24   S    
C28   H3    S    
C1    C3    S    
N1    Zn2   S    
