data_mof_unit_8555.cif
_audit_creation_date              2012-12-11T14:30:55-0500
_audit_creation_method            fapswitch 2.2
_symmetry_space_group_name_H-M    P1
_symmetry_Int_Tables_number       1
_space_group_crystal_system       triclinic
_cell_length_a                    17.543677
_cell_length_b                    24.378736
_cell_length_c                    15.056803
_cell_angle_alpha                 90.085066
_cell_angle_beta                  125.594102
_cell_angle_gamma                 89.834237
_cell_volume                      5236.47597526

loop_
_atom_site_label
_atom_site_type_symbol
_atom_type_description
_atom_site_fract_x
_atom_site_fract_y
_atom_site_fract_z
_atom_type_partial_charge
C1    C     C_R   0.809481 0.625452 0.906593 -0.057435
C2    C     C_R   0.187420 0.629582 0.094586 -0.059252
C3    C     C_R   0.309480 0.125452 0.906593 -0.057433
C4    C     C_R   0.687421 0.129580 0.094586 -0.059251
C5    C     C_R   0.884539 0.318017 0.998402 -0.011565
C6    C     C_R   0.117865 0.318233 0.002268 -0.000283
C7    C     C_R   0.384540 0.818017 0.998402 -0.011565
C8    C     C_R   0.617865 0.818233 0.002268 -0.000282
C9    C     C_R   0.067485 0.503355 0.366519 0.028991
C10   C     C_R   0.007177 0.502539 0.683388 0.075984
C11   C     C_R   0.567485 0.003356 0.366519 0.028989
C12   C     C_R   0.507175 0.002539 0.683387 0.075988
C13   C     C_R   0.691623 0.500224 0.643775 0.018227
C14   C     C_R   0.311563 0.500053 0.351699 -0.004331
C15   C     C_R   0.191623 0.000224 0.643775 0.018229
C16   C     C_R   0.811563 0.000053 0.351699 -0.004333
C17   C     C_3   0.528844 0.455112 0.562913 -0.200358
C18   C     C_3   0.474614 0.453343 0.437199 -0.198296
C19   C     C_3   0.028844 0.955112 0.562915 -0.200359
C20   C     C_3   0.974614 0.953343 0.437202 -0.198296
C21   C     C_3   0.464156 0.501020 0.553343 -0.050893
C22   C     C_3   0.538961 0.497839 0.442135 -0.055789
C23   C     C_3   0.964156 0.001021 0.553344 -0.050892
C24   C     C_3   0.038961 0.997837 0.442135 -0.055789
C25   C     C_3   0.411112 0.499439 0.430084 0.076722
C26   C     C_3   0.592008 0.499737 0.565354 0.069352
C27   C     C_3   0.911112 0.999439 0.430085 0.076724
C28   C     C_3   0.092008 0.999737 0.565354 0.069352
C29   C     C_3   0.474348 0.543817 0.432481 -0.080467
C30   C     C_3   0.528368 0.545580 0.558280 -0.081170
C31   C     C_3   0.974348 0.043817 0.432480 -0.080468
C32   C     C_3   0.028368 0.045581 0.558278 -0.081171
C33   C     C_2   0.253177 0.685468 0.921665 -0.139885
C34   C     C_2   0.747030 0.682724 0.083751 -0.128002
C35   C     C_2   0.753176 0.185468 0.921663 -0.139882
C36   C     C_2   0.247030 0.182724 0.083752 -0.128002
C37   C     C_2   0.252509 0.679209 0.009140 -0.157630
C38   C     C_2   0.739064 0.668905 0.992932 -0.154002
C39   C     C_2   0.752513 0.179206 0.009140 -0.157628
C40   C     C_2   0.239064 0.168904 0.992932 -0.154001
C41   C     C_2   0.795091 0.234426 0.912269 -0.058806
C42   C     C_2   0.208423 0.234681 0.089187 -0.056715
C43   C     C_2   0.295094 0.734425 0.912270 -0.058810
C44   C     C_2   0.708423 0.734681 0.089187 -0.056715
C45   C     C_R   0.944673 0.349433 0.090078 -0.119553
C46   C     C_R   0.056650 0.349429 0.910426 -0.145165
C47   C     C_R   0.444673 0.849433 0.090077 -0.119554
C48   C     C_R   0.556650 0.849429 0.910426 -0.145168
C49   C     C_2   0.869085 0.259323 0.999611 -0.105231
C50   C     C_2   0.134015 0.259419 0.001608 -0.107503
C51   C     C_2   0.369087 0.759323 0.999612 -0.105232
C52   C     C_2   0.634014 0.759419 0.001608 -0.107505
C53   C     C_2   0.102061 0.549655 0.528396 -0.097992
C54   C     C_2   0.085167 0.545394 0.612033 -0.125042
C55   C     C_2   0.602060 0.049656 0.528394 -0.097993
C56   C     C_2   0.585162 0.045395 0.612028 -0.125041
C57   C     C_2   0.105664 0.504076 0.481693 -0.137136
C58   C     C_2   0.031992 0.504471 0.607571 -0.126845
C59   C     C_2   0.605663 0.004077 0.481693 -0.137136
C60   C     C_2   0.531991 0.004471 0.607570 -0.126847
C61   C     C_R   0.049652 0.547959 0.301523 -0.090691
C62   C     C_R   0.990659 0.547654 0.724657 -0.103170
C63   C     C_R   0.549653 0.047959 0.301523 -0.090690
C64   C     C_R   0.490657 0.047654 0.724656 -0.103172
C65   C     C_R   0.740285 0.455191 0.704673 -0.124530
C66   C     C_R   0.261927 0.454999 0.291960 -0.133884
C67   C     C_R   0.240285 0.955192 0.704673 -0.124531
C68   C     C_R   0.761926 0.954999 0.291960 -0.133883
C69   C     C_R   0.050258 0.457175 0.304553 -0.180610
C70   C     C_R   0.989967 0.456257 0.722203 -0.191169
C71   C     C_R   0.550259 0.957175 0.304553 -0.180610
C72   C     C_R   0.489966 0.956257 0.722202 -0.191171
C73   C     C_R   0.743176 0.546233 0.697388 -0.133079
C74   C     C_R   0.258663 0.546210 0.300781 -0.117602
C75   C     C_R   0.243176 0.046233 0.697388 -0.133080
C76   C     C_R   0.758663 0.046210 0.300782 -0.117603
C77   C     C_R   0.856063 0.350060 0.908750 0.421015
C78   C     C_R   0.145103 0.350246 0.091647 0.412801
C79   C     C_R   0.356063 0.850060 0.908750 0.421017
C80   C     C_R   0.645103 0.850246 0.091648 0.412801
C81   C     C_R   0.901878 0.625819 0.089710 -0.079190
C82   C     C_R   0.094097 0.632415 0.911943 -0.082777
C83   C     C_R   0.401878 0.125819 0.089710 -0.079190
C84   C     C_R   0.594098 0.132414 0.911943 -0.082773
C85   C     C_R   0.813022 0.639056 0.997711 0.077182
C86   C     C_R   0.181523 0.646788 0.004228 0.080030
C87   C     C_R   0.313022 0.139055 0.997711 0.077181
C88   C     C_R   0.681525 0.146785 0.004228 0.080028
H1    H     H_    0.750017 0.630572 0.822878 0.111855
H2    H     H_    0.246068 0.635521 0.178281 0.116497
H3    H     H_    0.250016 0.130572 0.822878 0.111856
H4    H     H_    0.746070 0.135518 0.178281 0.116494
H5    H     H_    0.552441 0.418917 0.617683 0.158035
H6    H     H_    0.451349 0.415678 0.386335 0.157009
H7    H     H_    0.052441 0.918919 0.617687 0.158035
H8    H     H_    0.951349 0.915677 0.386339 0.157010
H9    H     H_    0.450144 0.579889 0.377296 0.164063
H10   H     H_    0.551932 0.583117 0.609568 0.165370
H11   H     H_    0.950144 0.079887 0.377293 0.164062
H12   H     H_    0.051932 0.083118 0.609566 0.165370
H13   H     H_    0.205205 0.662349 0.847498 0.131515
H14   H     H_    0.801073 0.664221 0.161354 0.136555
H15   H     H_    0.705200 0.162352 0.847494 0.131514
H16   H     H_    0.301074 0.164221 0.161354 0.136555
H17   H     H_    0.297839 0.703014 0.083055 0.147013
H18   H     H_    0.686746 0.687651 0.914898 0.143946
H19   H     H_    0.797846 0.203008 0.083057 0.147011
H20   H     H_    0.186745 0.187650 0.914898 0.143946
H21   H     H_    0.750999 0.254669 0.834317 0.191502
H22   H     H_    0.254042 0.256360 0.165274 0.187358
H23   H     H_    0.251003 0.754667 0.834317 0.191505
H24   H     H_    0.754042 0.756359 0.165274 0.187358
H25   H     H_    0.911327 0.238310 0.077711 0.151322
H26   H     H_    0.089445 0.237867 0.924617 0.149839
H27   H     H_    0.411327 0.738310 0.077712 0.151323
H28   H     H_    0.589445 0.737867 0.924617 0.149840
H29   H     H_    0.093626 0.589900 0.493145 0.135225
H30   H     H_    0.107783 0.578874 0.669911 0.128875
H31   H     H_    0.593628 0.089900 0.493145 0.135226
H32   H     H_    0.607771 0.078878 0.669901 0.128874
H33   H     H_    0.119455 0.464707 0.522265 0.166565
H34   H     H_    0.005966 0.471801 0.547607 0.162525
H35   H     H_    0.619453 0.964708 0.522264 0.166563
H36   H     H_    0.505971 0.971799 0.547612 0.162528
H37   H     H_    0.991416 0.332999 0.171200 0.201932
H38   H     H_    0.010763 0.332705 0.829443 0.201975
H39   H     H_    0.491416 0.832999 0.171200 0.201934
H40   H     H_    0.510764 0.832705 0.829443 0.201976
H41   H     H_    0.067823 0.590096 0.327716 0.131780
H42   H     H_    0.983857 0.589469 0.697828 0.116279
H43   H     H_    0.567823 0.090096 0.327716 0.131779
H44   H     H_    0.483854 0.089469 0.697826 0.116278
H45   H     H_    0.720330 0.412985 0.682353 0.183636
H46   H     H_    0.282690 0.412759 0.313057 0.187409
H47   H     H_    0.220330 0.912984 0.682353 0.183637
H48   H     H_    0.782690 0.912759 0.313057 0.187409
H49   H     H_    0.928997 0.631855 0.174290 0.102202
H50   H     H_    0.064742 0.644890 0.829453 0.103808
H51   H     H_    0.428997 0.131855 0.174290 0.102202
H52   H     H_    0.564744 0.144888 0.829453 0.103805
N1    N     N_R   0.892320 0.603520 0.941090 -0.038587
N2    N     N_R   0.107680 0.603520 0.058910 -0.041393
N3    N     N_R   0.392320 0.103520 0.941090 -0.038586
N4    N     N_R   0.607680 0.103520 0.058910 -0.041393
N5    N     N_R   0.953790 0.399020 0.058440 -0.073865
N6    N     N_R   0.046210 0.399020 0.941560 -0.072872
N7    N     N_R   0.453790 0.899020 0.058440 -0.073865
N8    N     N_R   0.546210 0.899020 0.941560 -0.072871
N9    N     N_R   0.026760 0.529450 0.205590 -0.049657
N10   N     N_R   0.973240 0.529450 0.794410 -0.044153
N11   N     N_R   0.526760 0.029450 0.205590 -0.049658
N12   N     N_R   0.473240 0.029450 0.794410 -0.044153
N13   N     N_R   0.819350 0.473090 0.793940 -0.052103
N14   N     N_R   0.180650 0.473090 0.206060 -0.050168
N15   N     N_R   0.319350 0.973090 0.793940 -0.052103
N16   N     N_R   0.680650 0.973090 0.206060 -0.050168
N17   N     N_R   0.027860 0.473090 0.206590 -0.063173
N18   N     N_R   0.972140 0.473090 0.793410 -0.071393
N19   N     N_R   0.527860 0.973090 0.206590 -0.063173
N20   N     N_R   0.472140 0.973090 0.793410 -0.071393
N21   N     N_R   0.818250 0.529450 0.792940 -0.062931
N22   N     N_R   0.181750 0.529450 0.207060 -0.062476
N23   N     N_R   0.318250 0.029450 0.792940 -0.062931
N24   N     N_R   0.681750 0.029450 0.207060 -0.062476
N25   N     N_R   0.896320 0.399020 0.944720 -0.084708
N26   N     N_R   0.103680 0.399020 0.055280 -0.084146
N27   N     N_R   0.396320 0.899020 0.944720 -0.084708
N28   N     N_R   0.603680 0.899020 0.055280 -0.084146
N29   N     N_R   0.949790 0.603520 0.054810 -0.045758
N30   N     N_R   0.050210 0.603520 0.945190 -0.044212
N31   N     N_R   0.449790 0.103520 0.054810 -0.045758
N32   N     N_R   0.550210 0.103520 0.945190 -0.044212
Ni1   Ni    Ni4+2 0.934100 0.565890 0.869590 0.281467
Ni2   Ni    Ni4+2 0.065900 0.565890 0.130410 0.273226
Ni3   Ni    Ni4+2 0.434100 0.065890 0.869590 0.281467
Ni4   Ni    Ni4+2 0.565900 0.065890 0.130410 0.273226
Ni5   Ni    Ni4+2 0.068420 0.436630 0.132700 0.258627
Ni6   Ni    Ni4+2 0.931580 0.436630 0.867300 0.250408
Ni7   Ni    Ni4+2 0.568420 0.936630 0.132700 0.258627
Ni8   Ni    Ni4+2 0.431580 0.936630 0.867300 0.250408
C89   C     C_2   0.075624 0.400991 0.348190 1.050381
O1    O     O_2   0.015111 0.370793 0.336582 -0.583834
O2    O     O_R   0.168647 0.383115 0.410082 -0.696407
H53   H     H_    0.213604 0.412928 0.421655 0.314143
C90   C     C_2   0.973996 0.400747 0.675887 1.021517
O3    O     O_2   0.031924 0.379962 0.665791 -0.576018
O4    O     O_R   0.891635 0.372296 0.639085 -0.709438
H54   H     H_    0.845618 0.395087 0.643510 0.320913
C91   C     C_2   0.575626 0.900991 0.348191 1.050384
O5    O     O_2   0.515113 0.870793 0.336581 -0.583836
O6    O     O_R   0.668649 0.883116 0.410085 -0.696407
H55   H     H_    0.713606 0.912930 0.421661 0.314142
C92   C     C_2   0.473994 0.900747 0.675886 1.021515
O7    O     O_2   0.531921 0.879962 0.665786 -0.576019
O8    O     O_R   0.391635 0.872296 0.639088 -0.709437
H56   H     H_    0.345619 0.895087 0.643514 0.320914
C93   C     C_2   0.738463 0.598831 0.645390 0.964091
O9    O     O_2   0.802526 0.631799 0.695475 -0.640092
O10   O     O_R   0.663258 0.609995 0.537753 -0.797099
H57   H     H_    0.668990 0.646935 0.511326 0.353682
C94   C     C_2   0.265703 0.598919 0.354151 0.948105
O11   O     O_2   0.200358 0.631427 0.307814 -0.650843
O12   O     O_R   0.344847 0.610891 0.458767 -0.797763
H58   H     H_    0.340280 0.647804 0.486470 0.353821
C95   C     C_2   0.238463 0.098830 0.645390 0.964091
O13   O     O_2   0.302525 0.131799 0.695476 -0.640093
O14   O     O_R   0.163260 0.109994 0.537752 -0.797098
H59   H     H_    0.168992 0.146934 0.511324 0.353681
C96   C     C_2   0.765703 0.098919 0.354151 0.948105
O15   O     O_2   0.700358 0.131427 0.307813 -0.650842
O16   O     O_R   0.844848 0.110892 0.458766 -0.797764
H60   H     H_    0.840280 0.147805 0.486468 0.353822
Cl1   Cl    Cl    0.823460 0.325002 0.781524 -0.718176
Cl2   Cl    Cl    0.177580 0.325100 0.218847 -0.705979
Cl3   Cl    Cl    0.323460 0.825002 0.781524 -0.718178
Cl4   Cl    Cl    0.677580 0.825100 0.218847 -0.705981
C97   C     C_2   0.419712 0.502346 0.613249 1.043944
O17   O     O_2   0.368660 0.464826 0.601780 -0.641361
O18   O     O_R   0.436804 0.546490 0.681770 -0.779256
H61   H     H_    0.402460 0.542912 0.717124 0.332658
C98   C     C_2   0.583684 0.495726 0.382630 1.045994
O19   O     O_2   0.635557 0.457540 0.398633 -0.627045
O20   O     O_R   0.565997 0.537468 0.309399 -0.779743
H62   H     H_    0.600390 0.531610 0.274546 0.333334
C99   C     C_2   0.919713 0.002348 0.613251 1.043944
O21   O     O_2   0.868661 0.964829 0.601783 -0.641362
O22   O     O_R   0.936806 0.046493 0.681770 -0.779256
H63   H     H_    0.902461 0.042916 0.717124 0.332659
C100  C     C_2   0.083683 0.995723 0.382629 1.045994
O23   O     O_2   0.135556 0.957537 0.398635 -0.627044
O24   O     O_R   0.065996 0.037465 0.309397 -0.779743
H64   H     H_    0.100389 0.031606 0.274544 0.333334

loop_
_geom_bond_atom_site_label_1
_geom_bond_atom_site_label_2
_ccdc_geom_bond_type
C76   C96   S    
C49   H25   S    
C55   C56   S    
N12   N20   A    
C22   C29   S    
C55   C59   D    
C56   H32   S    
C94   O11   D    
C62   H42   S    
C36   C42   S    
O20   H62   S    
N3    Ni3   S    
O12   H58   S    
N23   Ni3   S    
C78   Cl2   S    
C83   H51   S    
C90   O3    D    
C65   H45   S    
C77   Cl1   S    
N2    Ni2   S    
C55   H31   S    
C95   O13   D    
C39   H19   S    
C34   H14   S    
C7    C79   A    
C64   N12   A    
C9    C61   A    
C17   C26   S    
C14   C74   A    
C40   C87   S    
C3    H3    S    
C10   C58   S    
C9    C69   A    
C11   C63   A    
C6    C46   A    
C12   C64   A    
N16   Ni7   S    
C53   H29   S    
C82   N30   A    
C90   O4    S    
C83   N31   A    
C77   N25   A    
N6    Ni6   S    
C67   N15   A    
N9    Ni2   S    
C2    H2    S    
N20   Ni8   S    
C65   N13   A    
C70   C90   S    
C99   O22   S    
C67   H47   S    
C66   H46   S    
N12   Ni3   S    
C1    N1    A    
C64   H44   S    
C53   C54   S    
C45   H37   S    
C92   O8    S    
C73   C93   S    
C17   C18   S    
C69   N17   A    
N29   Ni2   S    
C2    C86   A    
C16   C68   A    
C31   H11   S    
N4    N32   A    
C29   C30   S    
C62   N10   A    
C8    C52   S    
C21   C30   S    
N32   Ni3   S    
C61   H41   S    
N2    N30   A    
C44   C52   D    
C16   C27   S    
C16   C76   A    
N27   Ni8   S    
C20   H8    S    
O10   H57   S    
N8    Ni8   S    
C41   H21   S    
C84   H52   S    
C25   C29   S    
N25   Ni6   S    
C94   O12   S    
C79   N27   A    
C5    C49   S    
C10   C62   A    
C18   C25   S    
C43   H23   S    
C39   C88   S    
C11   C59   S    
C41   C49   D    
C23   C99   S    
C46   H38   S    
C96   O15   D    
C23   C27   S    
C52   H28   S    
C7    C51   S    
C59   H35   S    
C22   C98   S    
C47   N7    A    
C78   N26   A    
C58   H34   S    
C38   C85   S    
C3    C87   A    
O14   H59   S    
C33   C43   S    
C20   C24   S    
C37   C86   S    
C28   C32   S    
C32   H12   S    
C3    N3    A    
C80   Cl4   S    
C24   C100  S    
C89   O2    S    
O18   H61   S    
C74   N22   A    
C53   C57   D    
C19   C23   S    
C34   C38   D    
N5    N25   A    
C84   N32   A    
C97   O17   D    
C89   O1    D    
C27   C31   S    
C71   C91   S    
C56   C60   D    
N13   N21   A    
C50   H26   S    
C7    C47   A    
C38   H18   S    
C35   C39   D    
O2    H53   S    
C8    C48   A    
O16   H60   S    
C37   H17   S    
C100  O23   D    
C45   N5    A    
C48   H40   S    
C98   O19   D    
N21   Ni1   S    
C73   N21   A    
O22   H63   S    
C36   C40   D    
C15   C67   A    
N4    Ni4   S    
N1    N29   A    
C99   O21   D    
C14   C66   A    
C34   C44   S    
C91   O5    D    
N26   Ni5   S    
N17   Ni5   S    
C6    C50   S    
C68   H48   S    
C19   C28   S    
C63   N11   A    
C35   C41   S    
N7    N27   A    
C42   C50   D    
N22   Ni2   S    
C44   H24   S    
C75   N23   A    
C20   C27   S    
C13   C73   A    
C26   C30   S    
C63   H43   S    
C54   H30   S    
C8    C80   A    
C2    N2    A    
C33   H13   S    
C13   C26   S    
C76   N24   A    
C1    C85   A    
C17   H5    S    
C5    C77   A    
C10   C70   A    
C72   C92   S    
C19   H7    S    
N15   Ni8   S    
C66   N14   A    
C15   C75   A    
C54   C58   D    
N1    Ni1   S    
O6    H55   S    
C21   C25   S    
N13   Ni6   S    
C1    H1    S    
N11   Ni4   S    
N10   N18   A    
C18   C22   S    
N14   N22   A    
C31   C32   S    
C24   C28   S    
N19   Ni7   S    
C68   N16   A    
C69   C89   S    
C83   C87   A    
C4    N4    A    
C47   H39   S    
N18   Ni6   S    
C4    C88   A    
C74   C94   S    
C60   H36   S    
C97   O18   S    
N28   Ni7   S    
C71   N19   A    
N31   Ni4   S    
C30   H10   S    
C35   H15   S    
C81   N29   A    
C72   N20   A    
C29   H9    S    
C36   H16   S    
N15   N23   A    
C23   C32   S    
C19   C20   S    
C93   O10   S    
C42   H22   S    
C24   C31   S    
N3    N31   A    
O4    H54   S    
C98   O20   S    
C82   C86   A    
C82   H50   S    
C75   C95   S    
C43   C51   D    
C15   C28   S    
C46   N6    A    
C84   C88   A    
C5    C45   A    
C61   N9    A    
N8    N28   A    
C48   N8    A    
C79   Cl3   S    
C96   O16   S    
N24   Ni4   S    
C9    C57   S    
C14   C25   S    
C12   C72   A    
C93   O9    D    
C13   C65   A    
C33   C37   D    
C6    C78   A    
C51   H27   S    
C57   H33   S    
O8    H56   S    
C12   C60   S    
N7    Ni7   S    
C40   H20   S    
N10   Ni1   S    
N16   N24   A    
C100  O24   S    
C92   O7    D    
C22   C26   S    
N14   Ni5   S    
N5    Ni5   S    
O24   H64   S    
C81   H49   S    
C18   H6    S    
C21   C97   S    
N6    N26   A    
C91   O6    S    
C95   O14   S    
N9    N17   A    
C80   N28   A    
C11   C71   A    
C81   C85   A    
C70   N18   A    
N11   N19   A    
C4    H4    S    
N30   Ni1   S    
C17   C21   S    
