data_mof_unit_5217.cif
_audit_creation_date              2012-10-26T19:24:18-0400
_audit_creation_method            fapswitch 2.2
_symmetry_space_group_name_H-M    P1
_symmetry_Int_Tables_number       1
_space_group_crystal_system       triclinic
_cell_length_a                    27.779789
_cell_length_b                    10.752673
_cell_length_c                    9.637913
_cell_angle_alpha                 90.861788
_cell_angle_beta                  89.751443
_cell_angle_gamma                 93.586495
_cell_volume                      2872.93195165

loop_
_atom_site_label
_atom_site_type_symbol
_atom_type_description
_atom_site_fract_x
_atom_site_fract_y
_atom_site_fract_z
_atom_type_partial_charge
C1    C     C_R   0.497789 0.262621 0.499187 0.533183
C2    C     C_R   0.972009 0.392413 0.517688 0.029308
C3    C     C_R   0.977586 0.622094 0.515962 -0.021538
C4    C     C_R   0.407572 0.500017 0.500274 0.528979
C5    C     C_R   0.949409 0.507529 0.514349 -0.007372
C6    C     C_R   0.942736 0.281769 0.543467 0.220568
C7    C     C_R   0.892737 0.283564 0.539925 -0.035999
C8    C     C_R   0.870249 0.394581 0.520114 -0.016789
C9    C     C_R   0.898304 0.508000 0.510896 -0.077271
C10   C     C_R   0.875241 0.621354 0.499004 0.033192
C11   C     C_R   0.824204 0.616137 0.494331 0.427859
C12   C     C_R   0.279422 0.520072 0.627199 -0.059185
C13   C     C_R   0.819886 0.394979 0.515668 0.406345
C14   C     C_R   0.721766 0.502088 0.375213 -0.054991
C15   C     C_R   0.671504 0.500300 0.374365 -0.153135
C16   C     C_R   0.497938 0.736785 0.500492 0.547302
C17   C     C_R   0.670740 0.498834 0.626058 -0.134144
C18   C     C_R   0.720930 0.500254 0.626595 -0.058729
C19   C     C_R   0.746533 0.502234 0.501317 0.242174
C20   C     C_R   0.022747 0.393792 0.497976 0.036472
C21   C     C_R   0.050902 0.507625 0.512764 0.036600
C22   C     C_R   0.028465 0.621637 0.529014 0.021503
C23   C     C_R   0.253691 0.505731 0.502805 0.243236
C24   C     C_R   0.046160 0.286845 0.455465 -0.091496
C25   C     C_R   0.107923 0.729439 0.559284 -0.102585
C26   C     C_R   0.954070 0.733583 0.502154 -0.087956
C27   C     C_R   0.904089 0.734451 0.492725 0.265244
C28   C     C_R   0.592445 0.499667 0.499812 0.564291
C29   C     C_R   0.057895 0.731360 0.556237 -0.132106
C30   C     C_R   0.421152 0.119399 0.647836 -0.106376
C31   C     C_R   0.385943 0.049747 0.721763 -0.113208
C32   C     C_R   0.386040 0.920408 0.722485 -0.108849
C33   C     C_R   0.421389 0.859925 0.649462 -0.113688
C34   C     C_R   0.101948 0.507541 0.508838 -0.027704
C35   C     C_R   0.457999 0.928734 0.575869 0.016107
C36   C     C_R   0.457849 0.060203 0.574823 0.024054
C37   C     C_R   0.493702 0.128173 0.497193 -0.003954
C38   C     C_R   0.527059 0.067326 0.416700 -0.155769
C39   C     C_R   0.527223 0.939263 0.417877 -0.163374
C40   C     C_R   0.175081 0.398162 0.476977 0.401642
C41   C     C_R   0.494148 0.870108 0.499965 -0.004520
C42   C     C_R   0.571996 0.640229 0.150067 -0.111528
C43   C     C_R   0.615268 0.676397 0.087620 -0.232300
C44   C     C_R   0.618958 0.668261 0.945880 -0.156020
C45   C     C_R   0.124531 0.396547 0.479040 0.023955
C46   C     C_R   0.577018 0.641385 0.867167 0.301947
C47   C     C_R   0.536850 0.568939 0.927671 0.155336
C48   C     C_R   0.535781 0.568920 0.077021 0.116294
C49   C     C_R   0.465907 0.433827 0.072817 -0.005233
C50   C     C_R   0.465799 0.434207 0.925312 -0.018608
C51   C     C_R   0.180872 0.615833 0.531397 0.400368
C52   C     C_R   0.278411 0.489716 0.377529 -0.055036
C53   C     C_R   0.328564 0.488002 0.376498 -0.138739
C54   C     C_R   0.329557 0.517900 0.626560 -0.156222
C55   C     C_3   0.583038 0.832242 0.753887 0.009715
C56   C     C_R   0.096199 0.287531 0.448585 -0.105652
C57   C     C_3   0.546076 0.894176 0.847757 -0.277736
C58   C     C_3   0.552811 0.035992 0.843230 -0.460167
C59   C     C_R   0.130404 0.618569 0.533400 0.025833
C60   C     C_R   0.354604 0.501786 0.501120 0.003237
C61   C     C_R   0.645504 0.499561 0.499906 0.005056
Cl1   Cl    Cl    0.880947 0.882530 0.472980 -0.455674
Cl2   Cl    Cl    0.964986 0.143998 0.609361 -0.573901
Cu1   Cu    Cu3+1 0.500000 0.499990 0.640660 0.966462
Cu2   Cu    Cu3+1 0.500000 0.500010 0.359340 0.933526
H1    H     H_    0.348648 0.529279 0.724112 0.122279
H2    H     H_    0.358074 0.096280 0.777182 0.123900
H3    H     H_    0.260483 0.532306 0.724410 0.130219
H4    H     H_    0.358262 0.866563 0.778494 0.129184
H5    H     H_    0.419178 0.759280 0.649917 0.138139
H6    H     H_    0.554327 0.893931 0.357622 0.117784
H7    H     H_    0.437933 0.379113 0.126878 0.116343
H8    H     H_    0.568804 0.669139 0.255487 0.190718
H9    H     H_    0.644788 0.719016 0.148239 0.144284
H10   H     H_    0.652016 0.704579 0.897327 0.131784
H11   H     H_    0.437754 0.379886 0.869949 0.108460
H12   H     H_    0.258695 0.478776 0.280990 0.130471
H13   H     H_    0.112544 0.202400 0.418029 0.171730
H14   H     H_    0.653107 0.499248 0.275626 0.138539
H15   H     H_    0.741495 0.503117 0.278056 0.132643
H16   H     H_    0.871367 0.197453 0.557867 0.231399
H17   H     H_    0.026199 0.202998 0.420561 0.185009
H18   H     H_    0.346862 0.475370 0.278314 0.126436
H19   H     H_    0.580777 0.870641 0.648266 0.153990
H20   H     H_    0.620414 0.859185 0.787968 0.127060
H21   H     H_    0.508968 0.864255 0.814280 0.189581
H22   H     H_    0.550238 0.865240 0.956958 0.154786
H23   H     H_    0.128945 0.815810 0.580740 0.175684
H24   H     H_    0.588769 0.067882 0.884961 0.156777
H25   H     H_    0.524551 0.077886 0.907384 0.159203
H26   H     H_    0.549844 0.068761 0.735209 0.167197
H27   H     H_    0.974035 0.822415 0.493154 0.171320
H28   H     H_    0.651801 0.496910 0.724400 0.136608
H29   H     H_    0.740006 0.500036 0.724327 0.129675
H30   H     H_    0.043139 0.819764 0.579489 0.140382
H31   H     H_    0.554067 0.119566 0.355872 0.136120
H32   H     H_    0.418587 0.219265 0.646458 0.129365
N1    N     N_R   0.202090 0.506605 0.503862 -0.398887
N2    N     N_R   0.798137 0.504379 0.502543 -0.408979
N3    N     N_R   0.500460 0.501210 0.147910 -0.238686
N4    N     N_R   0.500480 0.501290 0.852040 -0.237560
O1    O     O_R   0.500000 0.319640 0.618810 -0.512032
O2    O     O_R   0.569730 0.499970 0.618800 -0.448334
O3    O     O_R   0.569740 0.499990 0.381230 -0.526222
O4    O     O_2   0.197098 0.292073 0.449657 -0.489037
O5    O     O_3   0.573988 0.700477 0.741670 -0.521771
O6    O     O_2   0.792697 0.286819 0.524467 -0.464950
O7    O     O_2   0.208541 0.721558 0.555510 -0.490523
O8    O     O_2   0.800388 0.720855 0.482845 -0.403138
O9    O     O_R   0.500000 0.319660 0.381240 -0.494800
O10   O     O_R   0.430260 0.500010 0.618770 -0.528574
O11   O     O_R   0.430270 0.500030 0.381200 -0.503190
O12   O     O_R   0.500000 0.680340 0.618760 -0.452073
O13   O     O_R   0.500000 0.680360 0.381190 -0.520546

loop_
_geom_bond_atom_site_label_1
_geom_bond_atom_site_label_2
_ccdc_geom_bond_type
C10   C27   A    
Cu1   O2    S    
C13   N2    A    
C8    C13   A    
C47   N4    A    
C22   C29   A    
C11   O8    S    
Cu2   O13   S    
C35   C36   A    
C13   O6    S    
C16   O12   A    
C23   C52   A    
C7    C8    A    
C39   C41   A    
C54   C60   A    
C31   H2    S    
C12   H3    S    
C30   H32   S    
C26   C27   A    
C36   C37   A    
C40   N1    A    
C30   C31   A    
C31   C32   A    
C26   H27   S    
C56   H13   S    
C57   H21   S    
C11   N2    A    
C18   C19   A    
C24   H17   S    
C17   C61   A    
C15   H14   S    
C20   C24   A    
C45   C56   A    
C51   O7    S    
C49   H7    S    
C14   H15   S    
C9    C10   A    
C1    C37   S    
C28   C61   S    
C51   N1    A    
C4    O11   A    
C21   C22   A    
C2    C6    A    
C53   C60   A    
C44   C46   A    
C25   C29   A    
C40   C45   A    
C48   N3    A    
C55   O5    S    
C2    C20   A    
C29   H30   S    
C19   N2    S    
C8    C9    A    
Cu1   O10   S    
Cu1   N4    S    
C25   H23   S    
C57   H22   S    
C6    Cl2   S    
C55   H20   S    
C44   H10   S    
Cu1   O1    S    
C43   C44   A    
Cu2   O11   S    
C5    C9    A    
C37   C38   A    
C27   Cl1   S    
C50   H11   S    
C1    O9    A    
C28   O3    A    
C47   C48   A    
C12   C23   A    
C4    C60   S    
C17   C18   A    
C15   C61   A    
C34   C45   A    
C42   C48   A    
C58   H25   S    
C32   H4    S    
C33   H5    S    
C54   H1    S    
C7    H16   S    
C4    O10   A    
C55   C57   S    
C34   C59   A    
C18   H29   S    
C2    C5    A    
C51   C59   A    
C42   C43   A    
C52   H12   S    
C52   C53   A    
C58   H26   S    
C46   C47   A    
C42   H8    S    
Cu1   O12   S    
C14   C19   A    
C3    C26   A    
Cu2   N3    S    
C3    C5    A    
C16   O13   A    
C6    C7    A    
C21   C34   A    
C24   C56   A    
C30   C36   A    
C53   H18   S    
Cu1   Cu2   S    
C32   C33   A    
C49   N3    A    
C28   O2    A    
C57   C58   S    
C38   C39   A    
C43   H9    S    
C46   O5    S    
C33   C35   A    
C35   C41   A    
C58   H24   S    
Cu2   O9    S    
C10   C11   A    
C23   N1    S    
C17   H28   S    
C20   C21   A    
C50   N4    A    
C49   C50   A    
C38   H31   S    
C39   H6    S    
C14   C15   A    
C3    C22   A    
C25   C59   A    
Cu2   O3    S    
C55   H19   S    
C1    O1    A    
C12   C54   A    
C40   O4    S    
C16   C41   S    
