data_mof_unit_64719.cif
_audit_creation_date              2012-12-10T19:44:57-0500
_audit_creation_method            fapswitch 2.2
_symmetry_space_group_name_H-M    P1
_symmetry_Int_Tables_number       1
_space_group_crystal_system       triclinic
_cell_length_a                    18.744503
_cell_length_b                    18.747797
_cell_length_c                    18.741154
_cell_angle_alpha                 109.404743
_cell_angle_beta                  109.454459
_cell_angle_gamma                 109.410531
_cell_volume                      5078.87557074

loop_
_atom_site_label
_atom_site_type_symbol
_atom_type_description
_atom_site_fract_x
_atom_site_fract_y
_atom_site_fract_z
_atom_type_partial_charge
C1    C     C_R   0.120468 0.000567 0.619868 0.873904
C2    C     C_R   0.534820 0.492660 0.792834 -0.264229
C3    C     C_R   0.522222 0.564157 0.824202 0.451438
C4    C     C_R   0.120214 0.120192 0.499968 0.906637
C5    C     C_R   0.442265 0.557219 0.777228 -0.128129
C6    C     C_R   0.375165 0.480968 0.698847 0.382987
C7    C     C_R   0.388651 0.409319 0.666998 -0.029611
C8    C     C_R   0.273026 0.052412 0.714115 0.027035
C9    C     C_R   0.185579 0.001029 0.686140 -0.114610
C10   C     C_R   0.162439 0.961957 0.732820 -0.184304
C11   C     C_R   0.226608 0.963594 0.798846 -0.180039
C12   C     C_R   0.977138 0.973582 0.164097 -0.257941
C13   C     C_R   0.313854 0.005769 0.818730 -0.093165
C14   C     C_R   0.336579 0.055001 0.780050 0.024273
C15   C     C_3   0.393753 0.059357 0.740026 -0.371163
C16   C     C_R   0.878841 0.999206 0.379867 0.898742
C17   C     C_3   0.323242 0.055266 0.665965 0.455697
C18   C     C_R   0.797871 0.732026 0.469680 0.134677
C19   C     C_R   0.811808 0.815881 0.499320 -0.203643
C20   C     C_R   0.759406 0.837035 0.531929 -0.194246
C21   C     C_R   0.695172 0.773962 0.534198 0.431148
C22   C     C_R   0.684560 0.688782 0.503395 -0.209786
C23   C     C_R   0.246622 0.244741 0.424437 -0.218541
C24   C     C_R   0.737868 0.671715 0.472756 0.086406
C25   C     C_3   0.757714 0.602855 0.433941 -0.491640
C26   C     C_3   0.827461 0.672516 0.431313 -0.435287
C27   C     C_R   0.793443 0.958787 0.227815 0.056057
C28   C     C_R   0.879101 0.880184 0.499410 0.918271
C29   C     C_R   0.814049 0.001243 0.314374 -0.064267
C30   C     C_R   0.773660 0.048852 0.337588 -0.259371
C31   C     C_R   0.708013 0.047442 0.273048 0.080295
C32   C     C_R   0.685473 0.000391 0.185594 -0.030920
C33   C     C_R   0.731275 0.959807 0.164085 -0.124009
C34   C     C_R   0.314722 0.317161 0.503993 -0.122271
C35   C     C_3   0.699800 0.867547 0.098662 -0.172869
C36   C     C_3   0.768363 0.866988 0.170403 0.296268
C37   C     C_R   0.500646 0.620831 0.620190 0.902166
C38   C     C_R   0.380116 0.381664 0.501850 0.904523
C39   C     C_R   0.500109 0.380054 0.380306 0.913913
C40   C     C_R   0.051755 0.969199 0.203899 -0.130595
C41   C     C_R   0.619687 0.620186 0.500375 0.876846
C42   C     C_R   0.500976 0.120117 0.120704 0.899069
C43   C     C_R   0.379715 0.000689 0.880258 0.923520
C44   C     C_R   0.500898 0.880056 0.881013 0.922205
C45   C     C_R   0.320357 0.326847 0.583819 -0.097495
C46   C     C_R   0.619755 0.998818 0.118743 0.880471
C47   C     C_R   0.423902 0.684449 0.677975 -0.139249
C48   C     C_R   0.501423 0.686509 0.687143 -0.164707
C49   C     C_R   0.579634 0.747581 0.766185 -0.144886
C50   C     C_R   0.582216 0.812527 0.832220 0.448745
C51   C     C_R   0.503622 0.813641 0.818721 -0.168165
C52   C     C_R   0.118653 0.034161 0.288859 0.468168
C53   C     C_R   0.425013 0.746787 0.743835 -0.129345
C54   C     C_3   0.353830 0.751694 0.681391 0.748041
C55   C     C_3   0.353505 0.683256 0.607646 0.440871
C56   C     C_R   0.256134 0.259956 0.582346 0.408842
C57   C     C_R   0.427270 0.244603 0.244274 0.017463
C58   C     C_R   0.503502 0.316859 0.315910 -0.143169
C59   C     C_R   0.584190 0.324590 0.325129 0.091514
C60   C     C_R   0.584945 0.260712 0.259726 0.029677
C61   C     C_R   0.504506 0.186698 0.188627 -0.136794
C62   C     C_R   0.427904 0.181064 0.184885 0.051359
C63   C     C_3   0.331100 0.125054 0.132823 -0.431942
C64   C     C_R   0.109691 0.105066 0.335022 0.010477
C65   C     C_3   0.329856 0.197138 0.201891 -0.088584
C66   C     C_R   0.033146 0.108354 0.294850 0.103638
C67   C     C_R   0.187326 0.187040 0.501067 -0.151205
C68   C     C_R   0.967824 0.042667 0.209016 -0.179593
C69   C     C_R   0.182336 0.179350 0.421973 -0.059795
C70   C     C_R   0.468351 0.415852 0.715259 -0.184598
H1    H     H_    0.926206 0.923131 0.098097 0.167470
H2    H     H_    0.702434 0.549443 0.368164 0.205520
H3    H     H_    0.895446 0.692762 0.476901 0.203347
H4    H     H_    0.812894 0.658738 0.364106 0.213562
H5    H     H_    0.789901 0.083847 0.404849 0.173763
H6    H     H_    0.713487 0.862392 0.044532 0.185835
H7    H     H_    0.821197 0.861903 0.158360 0.080086
H8    H     H_    0.639721 0.747191 0.775379 0.180527
H9    H     H_    0.303991 0.118070 0.066765 0.199056
H10   H     H_    0.308657 0.062928 0.134171 0.199857
H11   H     H_    0.305289 0.176755 0.242280 0.168428
H12   H     H_    0.432255 0.611999 0.801779 0.175626
H13   H     H_    0.909530 0.044988 0.176624 0.152828
H14   H     H_    0.243764 0.239028 0.363833 0.160592
H15   H     H_    0.479240 0.361446 0.692084 0.189169
H16   H     H_    0.596024 0.496340 0.828347 0.143713
H17   H     H_    0.638652 0.635887 0.925446 0.328812
H18   H     H_    0.256496 0.423397 0.601849 0.345576
H19   H     H_    0.299129 0.129966 0.623036 0.339283
H20   H     H_    0.253314 0.920905 0.586383 0.174624
H21   H     H_    0.233169 0.976355 0.534940 0.205076
H22   H     H_    0.609329 0.751459 0.572861 0.330649
H23   H     H_    0.094849 0.927447 0.715829 0.143702
H24   H     H_    0.630290 0.060486 0.323204 0.204734
H25   H     H_    0.707769 0.154834 0.344469 0.181058
H26   H     H_    0.568219 0.811389 0.020231 0.197127
H27   H     H_    0.595722 0.820505 0.119368 0.244359
H28   H     H_    0.720301 0.752638 0.158034 0.344833
H29   H     H_    0.230853 0.071575 0.385292 0.344794
H30   H     H_    0.655102 0.911052 0.951394 0.324353
H31   H     H_    0.274647 0.686858 0.713065 0.325939
H32   H     H_    0.334643 0.828082 0.638779 0.357356
H33   H     H_    0.282099 0.555234 0.511288 0.222989
H34   H     H_    0.207555 0.929333 0.831615 0.169164
H35   H     H_    0.258081 0.573719 0.591647 0.202571
H36   H     H_    0.440242 0.764679 0.594996 0.360575
H37   H     H_    0.696757 0.372861 0.433951 0.206648
H38   H     H_    0.703791 0.426474 0.377904 0.190957
H39   H     H_    0.669364 0.215517 0.257264 0.206771
H40   H     H_    0.673191 0.286183 0.218971 0.215381
H41   H     H_    0.015607 0.172937 0.391507 0.176258
H42   H     H_    0.965894 0.175020 0.300305 0.186648
H43   H     H_    0.294179 0.290662 0.216886 0.211704
H44   H     H_    0.323739 0.270116 0.139991 0.210829
H45   H     H_    0.455663 0.122924 0.780326 0.215304
H46   H     H_    0.312829 0.312961 0.710179 0.352181
H47   H     H_    0.402195 0.001157 0.720993 0.196931
H48   H     H_    0.768085 0.902168 0.555660 0.195147
H49   H     H_    0.057972 0.915009 0.168186 0.162489
H50   H     H_    0.785505 0.582592 0.480787 0.216747
N1    N     N_3   0.282574 0.976288 0.581924 -0.421727
N2    N     N_3   0.661821 0.090082 0.295846 -0.471446
N3    N     N_3   0.609618 0.805247 0.068414 -0.358377
N4    N     N_3   0.272221 0.599099 0.553053 -0.393079
N5    N     N_3   0.664827 0.397172 0.399916 -0.438706
N6    N     N_3   0.667402 0.272803 0.267248 -0.468967
N7    N     N_3   0.023263 0.179561 0.340902 -0.438800
N8    N     N_3   0.289420 0.240840 0.165744 -0.426195
O1    O     O_R   0.091630 0.948280 0.539910 -0.644735
O2    O     O_R   0.448290 0.040010 0.091660 -0.615693
O3    O     O_R   0.460120 0.051750 0.908410 -0.617748
O4    O     O_R   0.091590 0.051710 0.643320 -0.593086
O5    O     O_R   0.356670 0.948360 0.908460 -0.618840
O6    O     O_R   0.551710 0.960090 0.908440 -0.605665
O7    O     O_R   0.448260 0.856700 0.908490 -0.621031
O8    O     O_R   0.643330 0.051740 0.091640 -0.631748
O9    O     O_R   0.539880 0.948350 0.091690 -0.626932
O10   O     O_R   0.091640 0.039900 0.448300 -0.642074
O11   O     O_R   0.091600 0.143340 0.551710 -0.562651
O12   O     O_R   0.551690 0.591610 0.643360 -0.633165
O13   O     O_R   0.908410 0.948290 0.356680 -0.598544
O14   O     O_R   0.908370 0.051720 0.460090 -0.646389
O15   O     O_R   0.908400 0.856660 0.448290 -0.610836
O16   O     O_R   0.908360 0.960100 0.551700 -0.633130
O17   O     O_R   0.448260 0.591640 0.539950 -0.591688
O18   O     O_3   0.586346 0.641286 0.900294 -0.760943
O19   O     O_3   0.298315 0.479710 0.656653 -0.792686
O20   O     O_3   0.352158 0.131904 0.661073 -0.726575
O21   O     O_3   0.646574 0.798892 0.567662 -0.744105
O22   O     O_3   0.733187 0.810938 0.198847 -0.723519
O23   O     O_R   0.356650 0.408410 0.448330 -0.633455
O24   O     O_3   0.190953 0.025604 0.323380 -0.772008
O25   O     O_3   0.662468 0.873874 0.906068 -0.775184
O26   O     O_3   0.276020 0.723690 0.685236 -0.760787
O27   O     O_3   0.383185 0.833842 0.687295 -0.771608
O28   O     O_3   0.380378 0.713426 0.556373 -0.713295
O29   O     O_3   0.257993 0.262758 0.657868 -0.750738
O30   O     O_R   0.460080 0.408380 0.551740 -0.616877
O31   O     O_R   0.448280 0.408420 0.356720 -0.641920
O32   O     O_R   0.551710 0.408390 0.460130 -0.602446
O33   O     O_R   0.539890 0.591650 0.448340 -0.607630
O34   O     O_R   0.643320 0.591620 0.551750 -0.617168
O35   O     O_R   0.551740 0.143400 0.091610 -0.639415
Zn1   Zn    Zn3+2 0.000030 0.930940 0.430950 0.978743
Zn2   Zn    Zn3+2 0.999970 0.069060 0.569050 1.004871
Zn3   Zn    Zn3+2 0.430920 0.500040 0.430990 0.991066
Zn4   Zn    Zn3+2 0.569050 0.499990 0.569090 0.972115
Zn5   Zn    Zn3+2 0.569070 0.069080 0.000020 0.977078
Zn6   Zn    Zn3+2 0.430930 0.931020 0.000080 0.981613

loop_
_geom_bond_atom_site_label_1
_geom_bond_atom_site_label_2
_ccdc_geom_bond_type
H30   O25   S    
H19   O20   S    
C66   C68   A    
C63   C65   S    
C5    H12   S    
H17   O18   S    
C41   O33   A    
C39   O32   A    
C27   C29   A    
C23   C69   A    
C35   C36   S    
C18   C26   S    
C1    O4    A    
C7    C70   A    
C20   H48   S    
C57   C62   A    
H43   N8    S    
C63   H9    S    
C53   C54   S    
C27   C33   A    
C12   C68   A    
C56   O29   S    
C18   C24   A    
C7    C45   S    
C22   C24   A    
C21   C22   A    
C1    O1    A    
C36   H7    S    
C30   C31   A    
C22   C41   S    
O2    Zn6   S    
O13   Zn1   S    
C26   H3    S    
C49   H8    S    
O11   Zn2   S    
C18   C19   A    
O32   Zn4   S    
C60   N6    S    
C43   O5    A    
O5    Zn6   S    
H42   N7    S    
C33   C35   S    
C55   N4    S    
C47   C48   A    
C45   C56   A    
C8    C9    A    
C37   O12   A    
C2    H16   S    
C11   H34   S    
C28   O16   A    
C21   O21   S    
H38   N5    S    
C9    C10   A    
O9    Zn6   S    
O33   Zn3   S    
C47   C53   A    
C44   O7    A    
C59   C60   A    
C41   O34   A    
H33   N4    S    
O30   Zn4   S    
C63   H10   S    
C44   O6    A    
C55   O28   S    
C66   N7    S    
C35   H6    S    
C23   H14   S    
C65   N8    S    
C17   O20   S    
C1    C9    S    
O4    Zn2   S    
C38   O30   A    
C52   C64   A    
C54   O27   S    
C28   O15   A    
C42   O35   A    
O8    Zn5   S    
C10   H23   S    
C25   C26   S    
C40   C52   A    
C39   C58   S    
C4    O10   A    
C15   H47   S    
O1    Zn1   S    
C60   C61   A    
C67   C69   A    
C64   C66   A    
C12   C40   A    
C16   O14   A    
C29   C30   A    
H44   N8    S    
C65   H11   S    
C31   C32   A    
C52   O24   S    
C23   C34   A    
C62   C63   S    
C50   C51   A    
C42   O2    A    
C25   H2    S    
C64   C69   S    
C24   C25   S    
C37   C48   S    
C19   C28   S    
C42   C61   S    
H37   N5    S    
C34   C45   A    
H40   N6    S    
C46   O9    A    
H24   N2    S    
H25   N2    S    
C17   N1    S    
C48   C49   A    
C12   H1    S    
O3    Zn5   S    
H36   O28   S    
H41   N7    S    
H20   N1    S    
O6    Zn5   S    
C58   C59   A    
O23   Zn3   S    
C25   H50   S    
C38   O23   A    
C13   C43   S    
C44   C51   S    
C47   C55   S    
H28   O22   S    
C15   C17   S    
C54   C55   S    
C8    C14   A    
H26   N3    S    
C39   O31   A    
C34   C38   S    
C68   H13   S    
C32   C46   S    
C31   N2    S    
C57   C65   S    
C3    C5    A    
C54   O26   S    
C4    C67   S    
C6    C7    A    
C27   C36   S    
C59   N5    S    
C56   C67   A    
H29   O24   S    
C8    C17   S    
O31   Zn3   S    
O16   Zn2   S    
C37   O17   A    
C32   C33   A    
C19   C20   A    
C43   O3    A    
C16   O13   A    
C16   C29   S    
O35   Zn5   S    
H46   O29   S    
H27   N3    S    
C2    C70   A    
O14   Zn2   S    
C6    O19   S    
C11   C13   A    
C36   O22   S    
C57   C58   A    
C5    C6    A    
H31   O26   S    
O12   Zn4   S    
C35   N3    S    
C26   H4    S    
H18   O19   S    
O15   Zn1   S    
C2    C3    A    
C15   H45   S    
O17   Zn3   S    
O7    Zn6   S    
C61   C62   A    
C10   C11   A    
C46   O8    A    
O34   Zn4   S    
H39   N6    S    
C40   H49   S    
C30   H5    S    
C20   C21   A    
H35   N4    S    
C3    O18   S    
C49   C50   A    
H21   N1    S    
H22   O21   S    
C14   C15   S    
O10   Zn1   S    
C50   O25   S    
C51   C53   A    
C13   C14   A    
C70   H15   S    
H32   O27   S    
C4    O11   A    
