data_mof_unit_30209.cif
_audit_creation_date              2013-03-05T16:47:54-0500
_audit_creation_method            fapswitch 2.2
_symmetry_space_group_name_H-M    P1
_symmetry_Int_Tables_number       1
_space_group_crystal_system       triclinic
_cell_length_a                    8.110643
_cell_length_b                    8.929699
_cell_length_c                    16.749835
_cell_angle_alpha                 90.01598
_cell_angle_beta                  86.740935
_cell_angle_gamma                 90.002873
_cell_volume                      1211.15482556

loop_
_atom_site_label
_atom_site_type_symbol
_atom_site_description
_atom_site_fract_x
_atom_site_fract_y
_atom_site_fract_z
_atom_type_partial_charge
O1    O     O_R   0.363150 0.714660 0.500000 -0.621671
O2    O     O_R   0.636850 0.285340 0.500000 -0.609403
O3    O     O_R   0.636850 0.714660 0.500000 -0.621870
O4    O     O_R   0.363150 0.285340 0.500000 -0.612028
C1    C     C_R   0.499999 0.781993 0.500027 0.920789
C2    C     C_R   0.499997 0.218002 0.500005 0.934095
O5    O     O_R   0.346950 0.500000 0.615800 -0.627122
O6    O     O_R   0.653050 0.500000 0.384200 -0.630413
O7    O     O_R   0.620700 0.500000 0.615800 -0.565596
O8    O     O_R   0.379300 0.500000 0.384200 -0.564957
C3    C     C_R   0.480212 0.490785 0.653698 0.912310
C4    C     C_R   0.519904 0.499341 0.346005 0.917224
Zn1   Zn    Zn3+2 0.317220 0.500000 0.500010 1.004734
Zn2   Zn    Zn3+2 0.682780 0.500000 0.499990 1.005898
N1    N     N_1   0.926360 0.500000 0.499990 -0.020486
N2    N     N_1   0.073640 0.500000 0.500010 -0.021500
C5    C     C_R   0.475378 0.435562 0.736271 -0.292967
C6    C     C_R   0.525878 0.480566 0.259110 -0.280170
C7    C     C_R   0.622437 0.386901 0.770024 0.434920
C8    C     C_R   0.379617 0.453521 0.219494 0.418369
C9    C     C_R   0.613301 0.304926 0.840680 0.413281
C10   C     C_R   0.389816 0.404426 0.140153 0.424634
C11   C     C_R   0.462565 0.296746 0.885936 -0.080169
C12   C     C_R   0.543046 0.409336 0.096340 -0.051752
C13   C     C_R   0.315277 0.345031 0.853543 0.147916
C14   C     C_R   0.687605 0.450610 0.133897 0.136534
C15   C     C_R   0.322678 0.410076 0.777533 -0.278491
C16   C     C_R   0.678488 0.479630 0.215850 -0.287579
C17   C     C_2   0.469832 0.282203 0.972333 -0.094249
C18   C     C_2   0.549798 0.390423 0.009610 -0.087701
C19   C     C_1   0.499998 0.934802 0.500038 -0.197501
C20   C     C_1   0.499993 0.065202 0.500034 -0.190167
H1    H     H_    0.790422 0.503582 0.245780 0.199696
H2    H     H_    0.209673 0.444565 0.751438 0.200082
H3    H     H_    0.618181 0.474580 0.974375 0.146753
H4    H     H_    0.398943 0.196136 0.004234 0.166065
C21   C     C_3   0.152504 0.336108 0.901094 -0.797105
H5    H     H_    0.049297 0.372535 0.865142 0.274652
H6    H     H_    0.128859 0.219064 0.920865 0.232912
H7    H     H_    0.154651 0.410193 0.954186 0.269383
C22   C     C_3   0.852007 0.461970 0.087647 -0.833326
H8    H     H_    0.952857 0.487080 0.127497 0.275435
H9    H     H_    0.880531 0.354756 0.056302 0.263862
H10   H     H_    0.848902 0.553664 0.043050 0.218368
O9    O     O_3   0.247415 0.367967 0.102657 -0.621189
C23   C     C_3   0.184686 0.230447 0.133352 -0.336614
H11   H     H_    0.107852 0.248430 0.189491 0.229153
H12   H     H_    0.283493 0.146702 0.143272 0.135693
H13   H     H_    0.103764 0.181021 0.089113 0.176276
O10   O     O_3   0.757702 0.254641 0.871674 -0.601559
C24   C     C_3   0.766424 0.098116 0.861394 -0.306019
H14   H     H_    0.766746 0.067121 0.796965 0.171977
H15   H     H_    0.663823 0.040243 0.895893 0.149246
H16   H     H_    0.883916 0.057626 0.884438 0.180505
O11   O     O_3   0.776630 0.413312 0.733176 -0.557519
C25   C     C_3   0.831714 0.554460 0.758736 -0.272031
H17   H     H_    0.846822 0.555876 0.824361 0.148075
H18   H     H_    0.746640 0.645886 0.742353 0.142034
H19   H     H_    0.953835 0.578033 0.728231 0.181355
O12   O     O_3   0.225483 0.470131 0.258221 -0.583201
C26   C     C_3   0.174014 0.619625 0.248424 -0.275931
H20   H     H_    0.162590 0.647454 0.184207 0.155420
H21   H     H_    0.259463 0.699877 0.275765 0.151876
H22   H     H_    0.050618 0.633895 0.279499 0.180764

loop_
_geom_bond_atom_site_label_1
_geom_bond_atom_site_label_2
_geom_bond_distance
_ccdc_geom_bond_type
C26   H22   1.108844 S    
C2    C20   1.364456 S    
O11   C25   1.411708 S    
C17   C18   1.337921 D    
C13   C15   1.397721 A    
C22   H9    1.109829 S    
C22   H8    1.107627 S    
C14   C16   1.394696 A    
C19   C20   1.164432 T    
C23   H13   1.108933 S    
C25   H19   1.108570 S    
O6    C4    1.286103 A    
C24   H16   1.108932 S    
C13   C21   1.504691 S    
C9    C11   1.403302 A    
O10   C24   1.409527 S    
C21   H6    1.109857 S    
O9    C23   1.414822 S    
O5    C3    1.286856 A    
O7    C3    1.275086 A    
C17   H4    1.082594 S    
O2    C2    1.262344 A    
O3    Zn2   1.952728 S    
O8    C4    1.275479 A    
C18   H3    1.087956 S    
O1    C1    1.262323 A    
C11   C17   1.457517 S    
C9    O10   1.382805 S    
C7    C9    1.390125 A    
C21   H5    1.107513 S    
C25   H18   1.113388 S    
C16   H1    1.083021 S    
C21   H7    1.109143 S    
C12   C18   1.460382 S    
C11   C13   1.407563 A    
C15   H2    1.082402 S    
C26   H20   1.113016 S    
O2    Zn2   1.952693 S    
C22   H10   1.109756 S    
C10   C12   1.407594 A    
O1    Zn1   1.952692 S    
C8    C10   1.397268 A    
C4    C6    1.463118 S    
N1    N2    1.194555 T    
C5    C15   1.402170 A    
C23   H12   1.115505 S    
O3    C1    1.262349 A    
O5    Zn1   1.967952 S    
C10   O9    1.384445 S    
C6    C16   1.398289 A    
C25   H17   1.112988 S    
C6    C8    1.412534 A    
O4    C2    1.262365 A    
Zn1   N2    1.975590 S    
C7    O11   1.383063 S    
O4    Zn1   1.952729 S    
C26   H21   1.113308 S    
O7    Zn2   1.976180 S    
Zn2   N1    1.975590 S    
C3    C5    1.466907 S    
O6    Zn2   1.967952 S    
C5    C7    1.417020 A    
C24   H15   1.113069 S    
C8    O12   1.383239 S    
C23   H11   1.109781 S    
C24   H14   1.113897 S    
C14   C22   1.506972 S    
C12   C14   1.410650 A    
O12   C26   1.411105 S    
C1    C19   1.364538 S    
O8    Zn1   1.976180 S    
