data_mof_unit_28669.cif
_audit_creation_date              2013-03-05T16:02:29-0500
_audit_creation_method            fapswitch 2.2
_symmetry_space_group_name_H-M    P1
_symmetry_Int_Tables_number       1
_space_group_crystal_system       triclinic
_cell_length_a                    16.54678
_cell_length_b                    7.254225
_cell_length_c                    15.228881
_cell_angle_alpha                 90.009601
_cell_angle_beta                  94.769326
_cell_angle_gamma                 89.999821
_cell_volume                      1821.65509839

loop_
_atom_site_label
_atom_site_type_symbol
_atom_site_description
_atom_site_fract_x
_atom_site_fract_y
_atom_site_fract_z
_atom_type_partial_charge
O1    O     O_R   0.663460 0.361760 0.165970 -0.582420
O2    O     O_R   0.336540 0.638240 0.834030 -0.582419
O3    O     O_R   0.836540 0.861760 0.334030 -0.582455
O4    O     O_R   0.163460 0.138240 0.665970 -0.582455
O5    O     O_R   0.827100 0.689870 0.163730 -0.574260
O6    O     O_R   0.172900 0.310130 0.836270 -0.574260
O7    O     O_R   0.672900 0.189870 0.336270 -0.573914
O8    O     O_R   0.327100 0.810130 0.663730 -0.573914
H1    H     H_    0.211345 0.063924 0.500409 0.121667
H2    H     H_    0.788655 0.936076 0.499591 0.121667
H3    H     H_    0.288405 0.558754 0.000191 0.121129
H4    H     H_    0.711595 0.441246 0.999809 0.121129
C1    C     C_R   0.853259 0.522926 0.143557 0.943759
C2    C     C_R   0.146741 0.477074 0.856442 0.943759
C3    C     C_R   0.646738 0.022938 0.356441 0.943905
C4    C     C_R   0.353262 0.977062 0.643559 0.943904
O9    O     O_R   0.663490 0.691370 0.155500 -0.581244
O10   O     O_R   0.336510 0.308630 0.844500 -0.581244
O11   O     O_R   0.836510 0.191370 0.344500 -0.581224
O12   O     O_R   0.163490 0.808630 0.655500 -0.581224
O13   O     O_R   0.671770 0.863320 0.325740 -0.579780
O14   O     O_R   0.328230 0.136680 0.674260 -0.579780
O15   O     O_R   0.828230 0.363320 0.174260 -0.579769
O16   O     O_R   0.171770 0.636680 0.825740 -0.579768
C5    C     C_R   0.636101 0.522869 0.133857 0.908797
C6    C     C_R   0.363898 0.477131 0.866142 0.908797
C7    C     C_R   0.863915 0.022882 0.366124 0.908874
C8    C     C_R   0.136084 0.977118 0.633876 0.908874
O17   O     O_3   0.752910 0.528800 0.305860 -0.278755
O18   O     O_3   0.247090 0.471200 0.694140 -0.278755
O19   O     O_3   0.747090 0.028800 0.194140 -0.279026
O20   O     O_3   0.252910 0.971200 0.805860 -0.279025
V1    V     V_3+5 0.749460 0.803010 0.239640 1.206642
V2    V     V_3+5 0.250540 0.196990 0.760360 1.206642
V3    V     V_3+5 0.750540 0.303010 0.260360 1.206961
V4    V     V_3+5 0.249460 0.696990 0.739640 1.206961
C9    C     C_1   0.468782 0.994702 0.530064 0.177201
C10   C     C_1   0.531218 0.005298 0.469936 0.177201
C11   C     C_1   0.031225 0.494705 0.969943 0.178679
C12   C     C_1   0.968775 0.505295 0.030056 0.178679
H5    H     H_    0.766113 0.854078 0.648861 0.188140
H6    H     H_    0.233887 0.145922 0.351138 0.188140
H7    H     H_    0.734326 0.363300 0.850057 0.189385
H8    H     H_    0.265674 0.636700 0.149943 0.189385
C13   C     C_R   0.028693 0.097432 0.325071 -0.307714
C14   C     C_R   0.971307 0.902568 0.674929 -0.307714
C15   C     C_R   0.471098 0.592751 0.175474 -0.307892
C16   C     C_R   0.528902 0.407249 0.824526 -0.307892
C17   C     C_R   0.107657 0.132521 0.302033 0.402917
C18   C     C_R   0.892343 0.867479 0.697966 0.402917
C19   C     C_R   0.392017 0.625391 0.198808 0.401170
C20   C     C_R   0.607983 0.374609 0.801192 0.401170
C21   C     C_R   0.172326 0.120150 0.367039 -0.149548
C22   C     C_R   0.827674 0.879849 0.632961 -0.149548
C23   C     C_R   0.327322 0.612762 0.133833 -0.147088
C24   C     C_R   0.672678 0.387238 0.866167 -0.147087
C25   C     C_R   0.158860 0.072960 0.453247 -0.192454
C26   C     C_R   0.841140 0.927040 0.546752 -0.192454
C27   C     C_R   0.340890 0.567917 0.047351 -0.193186
C28   C     C_R   0.659110 0.432084 0.952649 -0.193187
C29   C     C_R   0.079845 0.037081 0.477623 0.112354
C30   C     C_R   0.920155 0.962919 0.522377 0.112354
C31   C     C_R   0.420024 0.534553 0.022682 0.111855
C32   C     C_R   0.579976 0.465447 0.977318 0.111855
C33   C     C_R   0.013372 0.049906 0.412314 0.069128
C34   C     C_R   0.986628 0.950094 0.587686 0.069128
C35   C     C_R   0.486509 0.547450 0.087976 0.069056
C36   C     C_R   0.513491 0.452550 0.912023 0.069056
C37   C     C_R   0.066633 0.986991 0.565305 -0.238629
C38   C     C_R   0.933366 0.013009 0.434695 -0.238629
C39   C     C_R   0.433361 0.486992 0.934701 -0.238337
C40   C     C_R   0.566639 0.513007 0.065299 -0.238337
C41   C     C_1   0.415942 0.986150 0.581402 -0.235873
C42   C     C_1   0.584058 0.013850 0.418598 -0.235873
C43   C     C_1   0.084068 0.486172 0.918607 -0.235835
C44   C     C_1   0.915932 0.513828 0.081393 -0.235834
H9    H     H_    0.979344 0.107191 0.274072 0.166803
H10   H     H_    0.020656 0.892809 0.725928 0.166803
H11   H     H_    0.520477 0.602631 0.226438 0.166746
H12   H     H_    0.479523 0.397369 0.773562 0.166746
N1    N     N_R   0.122105 0.179635 0.212772 0.237858
O21   O     O_R   0.194747 0.221212 0.192347 -0.399608
O22   O     O_R   0.062944 0.179675 0.150859 -0.417763
N2    N     N_R   0.877895 0.820365 0.787227 0.237858
O23   O     O_R   0.805253 0.778788 0.807653 -0.399608
O24   O     O_R   0.937056 0.820325 0.849141 -0.417763
N3    N     N_R   0.377488 0.670384 0.288313 0.237918
O25   O     O_R   0.304503 0.707040 0.309301 -0.397617
O26   O     O_R   0.436957 0.673642 0.349865 -0.416554
N4    N     N_R   0.622511 0.329616 0.711687 0.237918
O27   O     O_R   0.695497 0.292960 0.690699 -0.397617
O28   O     O_R   0.563043 0.326358 0.650134 -0.416555

loop_
_geom_bond_atom_site_label_1
_geom_bond_atom_site_label_2
_geom_bond_distance
_ccdc_geom_bond_type
C26   C30   1.412694 A    
N3    O25   1.302115 A    
C23   C27   1.392776 A    
C20   N4    1.441036 S    
C8    C37   1.488862 S    
O10   C6    1.335351 A    
C15   H11   1.081487 S    
N1    O21   1.301805 A    
C18   N2    1.440830 S    
C30   C38   1.418284 A    
C18   C22   1.398928 A    
C2    O16   1.327802 A    
C32   C36   1.423312 A    
H2    C26   1.081961 S    
N2    O24   1.301468 A    
C14   C34   1.415806 A    
H6    C21   1.082702 S    
C22   C26   1.392562 A    
C34   C37   1.419647 A    
O13   V1    1.960442 S    
O3    V1    1.994859 S    
O2    V4    1.994960 S    
C33   C38   1.419647 A    
C1    O15   1.327801 A    
C35   C40   1.419798 A    
O8    V4    1.976796 S    
C17   N1    1.440830 S    
C9    C41   1.221981 T    
N1    O22   1.301468 A    
O5    V1    1.976634 S    
O19   V1    1.777736 S    
C11   C43   1.221977 T    
O11   C7    1.335393 A    
O5    C1    1.330549 A    
O7    C3    1.330573 A    
O8    C4    1.330574 A    
O1    C5    1.331682 A    
C6    C39   1.488852 S    
O9    V1    2.004468 S    
H3    C27   1.081993 S    
C15   C35   1.415945 A    
O4    C8    1.331616 A    
O4    V2    1.994858 S    
O14   V2    1.960442 S    
C31   C35   1.423312 A    
C30   C34   1.423302 A    
C4    C41   1.462641 S    
N2    O23   1.301805 A    
H1    C25   1.081961 S    
C19   N3    1.441036 S    
C11   C12   1.438420 S    
C14   H10   1.081463 S    
C21   C25   1.392562 A    
C15   C19   1.404239 A    
O12   C8    1.335393 A    
O6    V2    1.976634 S    
O20   V2    1.777737 S    
C9    C10   1.438421 S    
C29   C33   1.423302 A    
O6    C2    1.330550 A    
N4    O28   1.301582 A    
C1    C44   1.462626 S    
C13   C17   1.404041 A    
O2    C6    1.331683 A    
C5    C40   1.488852 S    
O16   V4    1.960541 S    
C16   C36   1.415945 A    
O10   V2    2.004469 S    
C7    C38   1.488862 S    
H4    C28   1.081992 S    
C31   C39   1.418436 A    
O15   V3    1.960542 S    
N3    O26   1.301583 A    
C13   C33   1.415806 A    
O1    V3    1.994960 S    
C10   C42   1.221981 T    
C29   C37   1.418284 A    
C14   C18   1.404041 A    
C4    O14   1.327749 A    
O7    V3    1.976799 S    
C25   C29   1.412694 A    
O17   V3    1.777524 S    
C27   C31   1.412809 A    
O18   V4    1.777522 S    
C28   C32   1.412809 A    
O9    C5    1.335351 A    
C2    C43   1.462626 S    
C16   H12   1.081487 S    
O3    C7    1.331616 A    
O11   V3    2.004638 S    
H8    C23   1.082822 S    
N4    O27   1.302115 A    
C3    O13   1.327749 A    
C36   C39   1.419798 A    
C17   C21   1.398928 A    
C19   C23   1.399028 A    
C32   C40   1.418436 A    
H5    C22   1.082702 S    
O12   V4    2.004638 S    
C12   C44   1.221977 T    
H7    C24   1.082822 S    
C16   C20   1.404239 A    
C3    C42   1.462641 S    
C24   C28   1.392776 A    
C13   H9    1.081463 S    
C20   C24   1.399028 A    
