data_mof_unit_59583.cif
_audit_creation_date              2012-12-10T17:31:28-0500
_audit_creation_method            fapswitch 2.2
_symmetry_space_group_name_H-M    P1
_symmetry_Int_Tables_number       1
_space_group_crystal_system       triclinic
_cell_length_a                    18.959994
_cell_length_b                    18.443417
_cell_length_c                    12.360695
_cell_angle_alpha                 90.027433
_cell_angle_beta                  129.210465
_cell_angle_gamma                 89.970788
_cell_volume                      3349.1013757

loop_
_atom_site_label
_atom_site_type_symbol
_atom_type_description
_atom_site_fract_x
_atom_site_fract_y
_atom_site_fract_z
_atom_type_partial_charge
C1    C     C_R   0.613271 0.898691 0.653903 0.824030
C2    C     C_R   0.613514 0.101087 0.654270 0.826035
C3    C     C_R   0.113255 0.398679 0.653884 0.823857
C4    C     C_R   0.113517 0.601084 0.654274 0.825904
C5    C     C_R   0.242036 0.779172 0.033019 0.111438
C6    C     C_R   0.242086 0.221179 0.033429 0.098759
C7    C     C_R   0.742024 0.279183 0.033000 0.111443
C8    C     C_R   0.742097 0.721180 0.033427 0.098892
C9    C     C_R   0.658084 0.280589 0.008338 0.086672
C10   C     C_R   0.658833 0.721143 0.010832 0.076440
C11   C     C_R   0.158089 0.780590 0.008335 0.086632
C12   C     C_R   0.158884 0.221252 0.011013 0.076213
C13   C     C_R   0.581116 0.248803 0.888431 -0.191732
C14   C     C_R   0.581773 0.753154 0.891440 -0.200749
C15   C     C_R   0.081121 0.748810 0.888420 -0.191744
C16   C     C_R   0.081820 0.253291 0.891677 -0.200952
C17   C     C_R   0.587339 0.211964 0.797122 -0.162100
C18   C     C_R   0.587299 0.788811 0.798487 -0.159870
C19   C     C_R   0.087349 0.711968 0.797118 -0.162074
C20   C     C_R   0.087296 0.288883 0.798620 -0.159788
C21   C     C_R   0.317032 0.813735 0.152760 -0.326946
C22   C     C_R   0.317058 0.186142 0.152418 -0.339842
C23   C     C_R   0.817022 0.313745 0.152740 -0.326888
C24   C     C_R   0.817071 0.686178 0.152479 -0.340015
C25   C     C_R   0.226640 0.850742 0.220007 0.501193
C26   C     C_R   0.228133 0.151786 0.223510 0.501996
C27   C     C_R   0.726643 0.350735 0.220018 0.501227
C28   C     C_R   0.728017 0.651604 0.223247 0.501985
C29   C     C_R   0.681447 0.157470 0.744068 -0.234628
C30   C     C_R   0.680665 0.841762 0.742802 -0.245637
C31   C     C_R   0.181461 0.657457 0.744088 -0.234634
C32   C     C_R   0.180604 0.341713 0.742722 -0.245740
C33   C     C_R   0.685489 0.997404 0.287874 -0.252198
C34   C     C_R   0.185488 0.497322 0.287876 -0.251868
C35   C     C_R   0.343281 0.000672 0.627442 0.085647
C36   C     C_R   0.843282 0.500676 0.627443 0.085621
C37   C     C_R   0.308853 0.000696 0.699064 -0.282900
C38   C     C_R   0.808854 0.500702 0.699066 -0.282986
C39   C     C_R   0.383588 0.098568 0.342016 0.823896
C40   C     C_R   0.383414 0.901647 0.341730 0.826802
C41   C     C_R   0.883575 0.598554 0.341995 0.824059
C42   C     C_R   0.883414 0.401647 0.341729 0.826839
C43   C     C_R   0.367889 0.000062 0.844706 -0.158686
C44   C     C_R   0.867890 0.500065 0.844708 -0.158594
C45   C     C_R   0.462956 0.999336 0.921490 -0.009124
C46   C     C_R   0.962957 0.499328 0.921491 -0.009120
C47   C     C_R   0.495042 0.999244 0.843065 0.217612
C48   C     C_R   0.995042 0.499230 0.843066 0.217745
C49   C     C_R   0.527084 0.999024 0.072370 -0.107008
C50   C     C_R   0.027086 0.499008 0.072370 -0.107108
C51   C     C_R   0.621714 0.997493 0.141081 0.049370
C52   C     C_R   0.121715 0.497431 0.141080 0.049520
C53   C     C_R   0.652137 0.995561 0.063213 0.423409
C54   C     C_R   0.152144 0.495465 0.063221 0.423420
C55   C     C_R   0.589569 0.998435 0.917632 -0.261654
C56   C     C_R   0.089568 0.498394 0.917631 -0.261955
C57   C     C_R   0.501893 0.000198 0.159365 0.037511
C58   C     C_R   0.001894 0.500212 0.159364 0.037530
C59   C     C_R   0.656263 0.998738 0.366372 0.118775
C60   C     C_R   0.156262 0.498691 0.366372 0.118708
C61   C     C_R   0.651315 0.315324 0.102278 -0.264558
C62   C     C_R   0.652771 0.687488 0.106272 -0.268669
C63   C     C_R   0.151312 0.815333 0.102262 -0.264553
C64   C     C_R   0.152892 0.187693 0.106596 -0.268322
C65   C     C_R   0.308787 0.852643 0.240941 -0.155208
C66   C     C_R   0.309387 0.148153 0.241992 -0.154580
C67   C     C_R   0.808785 0.352645 0.240937 -0.155228
C68   C     C_R   0.809344 0.648106 0.241921 -0.154442
C69   C     C_R   0.761893 0.160053 0.760197 0.618302
C70   C     C_R   0.760595 0.838285 0.757568 0.617291
C71   C     C_R   0.261918 0.660021 0.760246 0.618217
C72   C     C_R   0.260474 0.338142 0.757334 0.617137
C73   C     C_R   0.332924 0.705055 0.859595 -0.213670
C74   C     C_R   0.331222 0.292759 0.856076 -0.218210
C75   C     C_R   0.832887 0.205105 0.859518 -0.213605
C76   C     C_R   0.831383 0.792955 0.856401 -0.218101
C77   C     C_R   0.327372 0.745213 0.948950 -0.290144
C78   C     C_R   0.326110 0.253252 0.946411 -0.296432
C79   C     C_R   0.827338 0.245258 0.948880 -0.290077
C80   C     C_R   0.826240 0.753405 0.946665 -0.296449
C81   C     C_R   0.748152 0.243130 0.937528 0.117830
C82   C     C_R   0.747601 0.756371 0.936675 0.101681
C83   C     C_R   0.248172 0.743108 0.937563 0.117825
C84   C     C_R   0.247539 0.256316 0.936586 0.101695
C85   C     C_R   0.671693 0.203697 0.825521 0.005660
C86   C     C_R   0.671161 0.795999 0.825033 -0.016265
C87   C     C_R   0.171707 0.703687 0.825538 0.005595
C88   C     C_R   0.171121 0.295994 0.825026 -0.016052
Cu1   Cu    Cu3+1 0.526340 0.000000 0.421010 0.986309
Cu2   Cu    Cu3+1 0.026340 0.500000 0.421010 0.986327
Cu3   Cu    Cu3+1 0.473640 0.000000 0.578990 0.949042
Cu4   Cu    Cu3+1 0.973640 0.500000 0.578990 0.949075
H1    H     H_    0.758017 0.996108 0.342596 0.197361
H2    H     H_    0.258015 0.495984 0.342604 0.197416
H3    H     H_    0.431578 0.001183 0.115776 0.128184
H4    H     H_    0.931580 0.501229 0.115775 0.128191
H5    H     H_    0.296807 0.001170 0.514593 0.201315
H6    H     H_    0.796808 0.501170 0.514595 0.201309
H7    H     H_    0.337324 0.000064 0.894355 0.139381
H8    H     H_    0.837326 0.500067 0.894357 0.139368
H9    H     H_    0.235973 0.001218 0.641313 0.155555
H10   H     H_    0.735974 0.501226 0.641315 0.155455
H11   H     H_    0.618710 0.000347 0.867191 0.222173
H12   H     H_    0.118687 0.500344 0.867166 0.222056
H13   H     H_    0.515694 0.252203 0.865082 0.139167
H14   H     H_    0.516788 0.750763 0.869675 0.141226
H15   H     H_    0.015694 0.752219 0.865055 0.139239
H16   H     H_    0.016874 0.250976 0.870039 0.141224
H17   H     H_    0.586839 0.316806 0.082418 0.151878
H18   H     H_    0.588858 0.687195 0.088188 0.154103
H19   H     H_    0.086831 0.816824 0.082385 0.151839
H20   H     H_    0.089047 0.187520 0.088713 0.154246
H21   H     H_    0.383183 0.812467 0.179547 0.170674
H22   H     H_    0.382693 0.186265 0.177451 0.171610
H23   H     H_    0.883171 0.312480 0.179515 0.170727
H24   H     H_    0.882749 0.686383 0.177654 0.171567
H25   H     H_    0.385794 0.778268 0.023828 0.155914
H26   H     H_    0.384420 0.220000 0.020878 0.159148
H27   H     H_    0.885749 0.278332 0.023732 0.155947
H28   H     H_    0.884582 0.720199 0.021213 0.159147
H29   H     H_    0.394293 0.707016 0.870778 0.156744
H30   H     H_    0.392127 0.290055 0.866086 0.156566
H31   H     H_    0.894246 0.207084 0.870673 0.156796
H32   H     H_    0.892342 0.790328 0.866538 0.156574
H33   H     H_    0.524552 0.191338 0.702713 0.162826
H34   H     H_    0.524358 0.809479 0.704418 0.168845
H35   H     H_    0.024562 0.691348 0.702700 0.162955
H36   H     H_    0.024345 0.309559 0.704586 0.168928
H37   H     H_    0.705545 0.998451 0.479174 0.212066
H38   H     H_    0.205543 0.498387 0.479174 0.212022
N1    N     N_R   0.566260 0.000000 0.302220 -0.194515
N2    N     N_R   0.066260 0.500000 0.302220 -0.194507
N3    N     N_R   0.434410 0.000000 0.697680 -0.199494
N4    N     N_R   0.934410 0.500000 0.697680 -0.199454
O1    O     O_R   0.608610 0.924520 0.551740 -0.515844
O2    O     O_R   0.608610 0.075480 0.551740 -0.519100
O3    O     O_R   0.108610 0.424520 0.551740 -0.515753
O4    O     O_R   0.108610 0.575480 0.551740 -0.519102
O5    O     O_R   0.564110 0.924510 0.685150 -0.622928
O6    O     O_R   0.564110 0.075490 0.685150 -0.615001
O7    O     O_R   0.064110 0.424510 0.685150 -0.622988
O8    O     O_R   0.064110 0.575490 0.685150 -0.615006
O9    O     O_R   0.435880 0.075470 0.314850 -0.599733
O10   O     O_R   0.435880 0.924530 0.314850 -0.600094
O11   O     O_R   0.935880 0.575470 0.314850 -0.599767
O12   O     O_R   0.935880 0.424530 0.314850 -0.600086
O13   O     O_R   0.391380 0.075460 0.448260 -0.553356
O14   O     O_R   0.391380 0.924540 0.448260 -0.552859
O15   O     O_R   0.891380 0.575460 0.448260 -0.553223
O16   O     O_R   0.891380 0.424540 0.448260 -0.552859
O17   O     O_3   0.216617 0.890131 0.304704 -0.564436
C89   C     C_3   0.217848 0.841579 0.394006 -0.290733
H39   H     H_    0.212425 0.873245 0.464773 0.181900
H40   H     H_    0.282986 0.810726 0.460313 0.165711
H41   H     H_    0.158928 0.803714 0.334337 0.158061
O18   O     O_3   0.218682 0.113809 0.310039 -0.563722
C90   C     C_3   0.224045 0.163363 0.401910 -0.289915
H42   H     H_    0.290623 0.192216 0.466887 0.161701
H43   H     H_    0.218724 0.132845 0.473779 0.185498
H44   H     H_    0.166942 0.202986 0.344590 0.159717
O19   O     O_3   0.716623 0.390116 0.304726 -0.564362
C91   C     C_3   0.717899 0.341558 0.394063 -0.290698
H45   H     H_    0.712459 0.373220 0.464822 0.181890
H46   H     H_    0.783061 0.310734 0.460381 0.165712
H47   H     H_    0.659003 0.303666 0.334419 0.158067
O20   O     O_3   0.718518 0.613457 0.309582 -0.563567
C92   C     C_3   0.722959 0.662936 0.400760 -0.290089
H48   H     H_    0.789137 0.692398 0.465699 0.161662
H49   H     H_    0.717871 0.632246 0.472729 0.185396
H50   H     H_    0.665285 0.702042 0.342833 0.159549
O21   O     O_3   0.744617 0.996300 0.130745 -0.576667
C93   C     C_3   0.770304 0.928406 0.112700 -0.291318
H51   H     H_    0.746114 0.922429 0.004617 0.170428
H52   H     H_    0.745528 0.882506 0.139389 0.159763
H53   H     H_    0.845687 0.925379 0.184178 0.196610
O22   O     O_3   0.244645 0.496128 0.130831 -0.576829
C94   C     C_3   0.270169 0.428469 0.111648 -0.290716
H54   H     H_    0.246643 0.423355 0.003804 0.170344
H55   H     H_    0.244644 0.382228 0.136418 0.159781
H56   H     H_    0.345547 0.425097 0.183945 0.196418
F1    F     F_    0.773641 0.117200 0.683320 -0.663243
F2    F     F_    0.772125 0.880550 0.679878 -0.666330
F3    F     F_    0.273666 0.617161 0.683375 -0.663308
F4    F     F_    0.271984 0.380356 0.679569 -0.666412

loop_
_geom_bond_atom_site_label_1
_geom_bond_atom_site_label_2
_ccdc_geom_bond_type
C83   C87   A    
O21   C93   S    
C80   H28   S    
C90   H42   S    
Cu1   O1    S    
C72   C74   A    
C14   C18   A    
C26   O18   S    
C37   H9    S    
C3    O7    A    
C61   H17   S    
C35   N3    A    
Cu3   O13   S    
O19   C91   S    
C32   C72   A    
C15   C19   A    
C59   N1    A    
C18   C86   A    
C2    C29   S    
C9    C61   A    
C48   N4    A    
O18   C90   S    
C78   H26   S    
C43   H7    S    
C5    C11   A    
Cu2   O11   S    
C77   H25   S    
C6    C12   A    
C12   C64   A    
C64   H20   S    
C41   O15   A    
C77   C83   A    
C54   O22   S    
C6    C22   A    
C55   H11   S    
C49   C57   A    
C48   C56   A    
C25   C63   A    
C15   H15   S    
C29   C69   A    
C9    C13   A    
C22   C66   A    
C58   H4    S    
C27   C61   A    
C30   C70   A    
C11   C15   A    
C70   F2    S    
C12   C16   A    
C58   N2    A    
C94   H55   S    
C79   H27   S    
C50   C52   A    
O17   C89   S    
C3    O3    A    
C30   C86   A    
Cu4   O8    S    
C29   C85   A    
C1    O5    A    
C93   H53   S    
C28   O20   S    
C38   H10   S    
Cu2   N2    S    
C45   C47   A    
C33   C59   A    
Cu1   O2    S    
C47   N3    A    
C34   C60   A    
C60   N2    A    
O20   C92   S    
C10   C62   A    
C17   C85   A    
C21   C65   A    
Cu3   O14   S    
Cu2   O4    S    
C52   C54   A    
C92   H50   S    
C91   H46   S    
C53   C55   A    
C54   C56   A    
C13   H13   S    
C31   C87   A    
C28   C62   A    
C40   O14   A    
C76   H32   S    
C76   C80   A    
C6    C84   A    
C56   H12   S    
C92   H49   S    
C10   C14   A    
C60   H38   S    
C92   H48   S    
C71   C73   A    
C35   H5    S    
C16   H16   S    
C44   C46   A    
C49   C51   A    
C82   C86   A    
C24   C68   A    
C23   H23   S    
C2    O2    A    
C33   H1    S    
C51   C53   A    
C5    C21   A    
C26   C66   A    
C37   C43   A    
C38   C44   A    
C71   F3    S    
C91   H47   S    
Cu2   Cu4   S    
Cu3   N3    S    
C89   H41   S    
C45   C49   A    
C16   C20   A    
C94   H56   S    
C50   C58   A    
C25   C65   A    
C89   H39   S    
Cu4   O7    S    
C43   C45   A    
C72   F4    S    
Cu3   O5    S    
C21   H21   S    
O22   C94   S    
C7    C81   A    
C89   H40   S    
C24   H24   S    
C90   H44   S    
C73   H29   S    
C40   C65   S    
C40   O10   A    
Cu4   O16   S    
C42   C67   S    
C39   C66   S    
C75   H31   S    
Cu1   Cu3   S    
C42   O12   A    
Cu2   O3    S    
C93   H51   S    
C35   C37   A    
C47   C55   A    
C91   H45   S    
C57   H3    S    
C7    C9    A    
C41   C68   S    
C59   H37   S    
C74   H30   S    
C57   N1    A    
C8    C10   A    
Cu4   N4    S    
C34   H2    S    
C39   O9    A    
C28   C68   A    
C36   N4    A    
C79   C81   A    
C5    C83   A    
C20   H36   S    
C26   C64   A    
C33   C51   A    
Cu1   O10   S    
C46   C50   A    
C22   H22   S    
C34   C52   A    
Cu1   N1    S    
C13   C17   A    
C25   O17   S    
C2    O6    A    
C36   C38   A    
C19   C87   A    
Cu2   O12   S    
Cu1   O9    S    
C18   H34   S    
C70   C76   A    
C44   H8    S    
C17   H33   S    
C4    O8    A    
C84   C88   A    
C23   C67   A    
C62   H18   S    
C7    C23   A    
C20   C88   A    
C19   H35   S    
C1    C30   S    
C93   H52   S    
C80   C82   A    
C69   C75   A    
C63   H19   S    
C3    C32   S    
C42   O16   A    
C81   C85   A    
C4    C31   S    
C27   C67   A    
C53   O21   S    
C4    O4    A    
Cu3   O6    S    
C46   C48   A    
C78   C84   A    
C8    C82   A    
C41   O11   A    
C8    C24   A    
C90   H43   S    
C94   H54   S    
C74   C78   A    
C14   H14   S    
C39   O13   A    
Cu4   O15   S    
C73   C77   A    
C36   H6    S    
C1    O1    A    
C11   C63   A    
C75   C79   A    
C27   O19   S    
C69   F1    S    
C31   C71   A    
C32   C88   A    
