data_mof_unit_62048.cif
_audit_creation_date              2012-12-10T18:21:20-0500
_audit_creation_method            fapswitch 2.2
_symmetry_space_group_name_H-M    P1
_symmetry_Int_Tables_number       1
_space_group_crystal_system       triclinic
_cell_length_a                    35.608096
_cell_length_b                    35.608582
_cell_length_c                    23.713409
_cell_angle_alpha                 90.014985
_cell_angle_beta                  90.020359
_cell_angle_gamma                 89.999491
_cell_volume                      30067.5042738

loop_
_atom_site_label
_atom_site_type_symbol
_atom_type_description
_atom_site_fract_x
_atom_site_fract_y
_atom_site_fract_z
_atom_type_partial_charge
C1    C     C_R   1.000000 0.427715 0.499997 0.783325
C2    C     C_R   0.427706 1.000000 0.500005 0.783953
C3    C     C_R   0.000000 0.572316 0.499994 0.785211
C4    C     C_R   0.572285 0.000000 0.500003 0.783328
C5    C     C_R   0.500000 0.927716 0.999997 0.783133
C6    C     C_R   0.927706 0.500000 0.000005 0.783701
C7    C     C_R   0.500000 0.072285 0.999996 0.783187
C8    C     C_R   0.072288 0.499999 0.000003 0.783429
C9    C     C_1   0.999987 0.267242 0.500013 -0.064597
C10   C     C_1   0.267216 0.999984 0.500043 -0.064446
C11   C     C_1   0.000032 0.732848 0.499986 -0.064704
C12   C     C_1   0.732756 0.000019 0.499975 -0.064543
C13   C     C_1   0.499996 0.767242 0.000007 -0.064530
C14   C     C_1   0.767214 0.499981 0.000037 -0.064661
C15   C     C_1   0.500027 0.232762 0.999984 -0.064473
C16   C     C_1   0.232772 0.499922 0.000072 -0.064092
C17   C     C_R   0.974867 0.327271 0.465726 -0.150841
C18   C     C_R   0.327227 0.026491 0.467418 -0.151712
C19   C     C_R   0.028637 0.672831 0.471565 -0.153063
C20   C     C_R   0.672713 0.974804 0.465690 -0.150898
C21   C     C_R   0.971399 0.672856 0.528401 -0.152963
C22   C     C_R   0.327258 0.973493 0.532650 -0.151764
C23   C     C_R   0.025125 0.327283 0.534271 -0.150822
C24   C     C_R   0.672730 0.025213 0.534297 -0.150919
C25   C     C_R   0.475077 0.827275 0.965341 -0.150704
C26   C     C_R   0.827228 0.525895 0.967258 -0.151214
C27   C     C_R   0.525018 0.172711 0.965491 -0.150783
C28   C     C_R   0.172721 0.474421 0.966095 -0.151318
C29   C     C_R   0.475007 0.172734 0.034472 -0.150683
C30   C     C_R   0.827257 0.474084 0.032802 -0.151253
C31   C     C_R   0.524923 0.827288 0.034650 -0.150694
C32   C     C_R   0.172749 0.525505 0.033981 -0.150836
C33   C     C_R   0.974626 0.366534 0.466098 -0.188969
C34   C     C_R   0.366488 0.026733 0.467809 -0.188598
C35   C     C_R   0.028818 0.633580 0.471966 -0.188299
C36   C     C_R   0.633449 0.974552 0.466080 -0.188937
C37   C     C_R   0.971196 0.633605 0.527996 -0.188353
C38   C     C_R   0.366519 0.973260 0.532244 -0.188586
C39   C     C_R   0.025371 0.366546 0.533889 -0.188997
C40   C     C_R   0.633466 0.025454 0.533924 -0.188895
C41   C     C_R   0.474828 0.866539 0.965716 -0.188924
C42   C     C_R   0.866490 0.526129 0.967629 -0.188975
C43   C     C_R   0.525259 0.133447 0.965867 -0.188890
C44   C     C_R   0.133458 0.474196 0.966462 -0.188642
C45   C     C_R   0.474751 0.133470 0.034097 -0.188967
C46   C     C_R   0.866518 0.473862 0.032421 -0.188970
C47   C     C_R   0.525173 0.866552 0.034270 -0.188926
C48   C     C_R   0.133485 0.525774 0.033572 -0.188955
C49   C     C_R   0.999999 0.386410 0.499993 -0.023172
C50   C     C_R   0.386386 0.999998 0.500021 -0.023313
C51   C     C_R   0.000003 0.613677 0.499982 -0.026144
C52   C     C_R   0.613588 0.000001 0.500005 -0.022878
C53   C     C_R   0.500000 0.886414 0.999993 -0.022828
C54   C     C_R   0.886386 0.499998 0.000021 -0.024601
C55   C     C_R   0.500002 0.113588 0.999984 -0.022961
C56   C     C_R   0.113597 0.499994 0.000008 -0.022875
C57   C     C_R   0.999994 0.307573 0.500003 0.140792
C58   C     C_R   0.307542 0.999990 0.500037 0.142776
C59   C     C_R   0.000023 0.692536 0.499985 0.143445
C60   C     C_R   0.692425 0.000012 0.499988 0.141162
C61   C     C_R   0.500000 0.807575 0.999999 0.141001
C62   C     C_R   0.807542 0.499986 0.000032 0.140706
C63   C     C_R   0.500017 0.192429 0.999982 0.141006
C64   C     C_R   0.192440 0.499949 0.000052 0.141745
C65   C     C_R   0.927697 0.000003 0.499992 0.823784
C66   C     C_R   0.999998 0.072302 0.500006 0.823791
C67   C     C_R   0.072299 1.000000 0.500009 0.823764
C68   C     C_R   0.000001 0.927708 0.499994 0.823902
C69   C     C_R   0.427701 0.500005 0.999993 0.823399
C70   C     C_R   0.499998 0.572301 0.000006 0.823461
C71   C     C_R   0.572298 0.499999 0.000009 0.823559
C72   C     C_R   0.500002 0.427700 0.999994 0.823464
C73   C     C_R   0.000006 0.499997 0.608245 0.823798
C74   C     C_R   0.499999 0.000004 0.608244 0.823175
C75   C     C_R   0.999994 0.499999 0.391755 0.823779
C76   C     C_R   0.500002 0.999996 0.391756 0.823190
C77   C     C_R   0.500006 0.999999 0.108244 0.822791
C78   C     C_R   0.999999 0.500004 0.108244 0.823158
C79   C     C_R   0.499994 0.000001 0.891755 0.822780
C80   C     C_R   0.000001 0.499996 0.891756 0.823171
C81   C     C_1   0.000016 0.499991 0.669079 -0.179016
C82   C     C_1   0.499993 0.000012 0.669078 -0.179107
C83   C     C_1   0.999984 0.500003 0.330921 -0.178997
C84   C     C_1   0.500008 0.999988 0.330922 -0.179129
C85   C     C_1   0.500016 0.999994 0.169078 -0.179164
C86   C     C_1   0.999993 0.500011 0.169078 -0.179039
C87   C     C_1   0.499984 0.000006 0.830922 -0.179141
C88   C     C_1   0.000008 0.499987 0.830922 -0.179055
C89   C     C_1   0.000018 0.499987 0.720103 0.004409
C90   C     C_1   0.499988 0.000013 0.720102 0.004271
C91   C     C_1   0.999983 0.500007 0.279897 0.004419
C92   C     C_1   0.500014 0.999987 0.279898 0.004254
C93   C     C_1   0.500018 0.999990 0.220103 0.004231
C94   C     C_1   0.999987 0.500011 0.220102 0.004380
C95   C     C_1   0.499983 0.000010 0.779897 0.004249
C96   C     C_1   0.000014 0.499985 0.779898 0.004369
C97   C     C_R   0.981383 0.173028 0.456007 0.274760
C98   C     C_R   0.173014 0.018631 0.456045 0.274174
C99   C     C_R   0.018774 0.827015 0.456147 0.274593
C100  C     C_R   0.826953 0.981525 0.455784 0.274143
C101  C     C_R   0.981316 0.827019 0.543912 0.274346
C102  C     C_R   0.173024 0.981311 0.543935 0.274809
C103  C     C_R   0.018541 0.173041 0.544135 0.274190
C104  C     C_R   0.826972 0.018559 0.544064 0.274595
C105  C     C_R   0.481137 0.673022 0.956325 0.275019
C106  C     C_R   0.673008 0.518833 0.956299 0.274461
C107  C     C_R   0.518962 0.326974 0.956411 0.274841
C108  C     C_R   0.326980 0.480971 0.956432 0.274332
C109  C     C_R   0.481135 0.326977 0.043637 0.274992
C110  C     C_R   0.673018 0.481110 0.043690 0.274833
C111  C     C_R   0.518809 0.673034 0.043793 0.274493
C112  C     C_R   0.326978 0.518854 0.043552 0.274404
C113  C     C_R   0.981902 0.133427 0.456711 -0.218331
C114  C     C_R   0.133415 0.018148 0.456798 -0.218168
C115  C     C_R   0.018243 0.866609 0.456845 -0.218205
C116  C     C_R   0.866554 0.982008 0.456556 -0.218315
C117  C     C_R   0.981799 0.866612 0.543158 -0.218223
C118  C     C_R   0.133424 0.981830 0.543224 -0.218427
C119  C     C_R   0.018056 0.133440 0.543366 -0.218186
C120  C     C_R   0.866574 0.018041 0.543354 -0.218370
C121  C     C_R   0.481656 0.633420 0.957013 -0.218250
C122  C     C_R   0.633409 0.518340 0.957028 -0.217912
C123  C     C_R   0.518423 0.366577 0.957085 -0.217951
C124  C     C_R   0.366582 0.481529 0.957118 -0.217655
C125  C     C_R   0.481627 0.366578 0.042918 -0.218236
C126  C     C_R   0.633416 0.481636 0.042996 -0.218038
C127  C     C_R   0.518312 0.633432 0.043055 -0.218000
C128  C     C_R   0.366580 0.518402 0.042858 -0.218589
C129  C     C_R   0.999987 0.113752 0.500023 -0.143186
C130  C     C_R   0.113743 0.999995 0.500020 -0.143155
C131  C     C_R   0.000010 0.886279 0.499988 -0.143138
C132  C     C_R   0.886246 0.000016 0.499971 -0.143146
C133  C     C_R   0.499989 0.613748 0.000021 -0.143280
C134  C     C_R   0.613738 0.499994 0.000020 -0.143322
C135  C     C_R   0.500013 0.386255 0.999989 -0.143259
C136  C     C_R   0.386258 0.499994 0.999979 -0.143151
C137  C     C_R   0.999970 0.192711 0.500060 -0.013669
C138  C     C_R   0.192693 0.999977 0.500004 -0.013584
C139  C     C_R   0.000044 0.807349 0.500022 -0.013578
C140  C     C_R   0.807286 0.000036 0.499932 -0.013713
C141  C     C_R   0.499982 0.692707 0.000049 -0.013456
C142  C     C_R   0.692689 0.499974 0.000005 -0.013541
C143  C     C_R   0.500049 0.307296 0.000020 -0.013390
C144  C     C_R   0.307304 0.499888 0.000016 -0.013046
C145  C     C_1   0.999977 0.233336 0.500030 -0.049834
C146  C     C_1   0.233313 0.999977 0.500035 -0.050282
C147  C     C_1   0.000041 0.766743 0.499994 -0.050967
C148  C     C_1   0.766662 0.000029 0.499959 -0.049627
C149  C     C_1   0.499988 0.733335 0.000022 -0.050636
C150  C     C_1   0.733310 0.499975 0.000032 -0.050797
C151  C     C_1   0.500040 0.266669 0.999993 -0.050662
C152  C     C_1   0.266679 0.499903 0.000062 -0.050398
Cu1   Cu    Cu3+1 0.037270 0.500000 0.500000 0.958253
Cu2   Cu    Cu3+1 0.500000 0.962730 0.500000 0.958777
Cu3   Cu    Cu3+1 0.962730 0.500000 0.500000 0.958312
Cu4   Cu    Cu3+1 0.500000 0.037270 0.500000 0.958851
Cu5   Cu    Cu3+1 0.537270 0.000000 0.000000 0.959278
Cu6   Cu    Cu3+1 0.000000 0.462730 0.000000 0.958869
Cu7   Cu    Cu3+1 0.462730 0.000000 0.000000 0.959348
Cu8   Cu    Cu3+1 0.000000 0.537270 0.000000 0.959102
Cu9   Cu    Cu3+1 0.000000 0.000000 0.555780 0.937176
Cu10  Cu    Cu3+1 0.000000 0.000000 0.444220 0.937172
Cu11  Cu    Cu3+1 0.500000 0.500000 0.055780 0.937474
Cu12  Cu    Cu3+1 0.500000 0.500000 0.944220 0.937470
H1    H     H_    0.967909 0.117422 0.423853 0.162190
H2    H     H_    0.117389 0.032222 0.424068 0.162187
H3    H     H_    0.032348 0.882615 0.424138 0.162104
H4    H     H_    0.882565 0.968046 0.423676 0.162270
H5    H     H_    0.967677 0.882638 0.575842 0.162133
H6    H     H_    0.117424 0.967774 0.575984 0.162135
H7    H     H_    0.032068 0.117425 0.576184 0.162220
H8    H     H_    0.882580 0.031987 0.576269 0.162250
H9    H     H_    0.467464 0.617408 0.924406 0.162013
H10   H     H_    0.617376 0.532567 0.924488 0.162028
H11   H     H_    0.532670 0.382588 0.924574 0.161941
H12   H     H_    0.382611 0.467243 0.924673 0.161892
H13   H     H_    0.467370 0.382603 0.075423 0.161962
H14   H     H_    0.617407 0.467423 0.075557 0.162001
H15   H     H_    0.532519 0.617411 0.075625 0.162014
H16   H     H_    0.382578 0.532677 0.075365 0.162022
H17   H     H_    0.955497 0.312249 0.438762 0.133964
H18   H     H_    0.312195 0.046931 0.441723 0.133798
H19   H     H_    0.050769 0.687844 0.449108 0.134274
H20   H     H_    0.687724 0.955379 0.438694 0.133926
H21   H     H_    0.949276 0.687887 0.550863 0.134389
H22   H     H_    0.312251 0.953048 0.558348 0.133711
H23   H     H_    0.044490 0.312270 0.561241 0.134034
H24   H     H_    0.687755 0.044644 0.561284 0.133856
H25   H     H_    0.455875 0.812253 0.938079 0.133767
H26   H     H_    0.812199 0.545871 0.941444 0.134383
H27   H     H_    0.544284 0.187718 0.938352 0.133787
H28   H     H_    0.187728 0.454727 0.939381 0.133598
H29   H     H_    0.455749 0.187760 0.061614 0.133902
H30   H     H_    0.812251 0.454101 0.058616 0.134317
H31   H     H_    0.544125 0.812276 0.061917 0.133820
H32   H     H_    0.187778 0.545184 0.060706 0.134015
H33   H     H_    0.955121 0.381441 0.439259 0.142336
H34   H     H_    0.381374 0.047311 0.442235 0.143205
H35   H     H_    0.051068 0.618715 0.449598 0.145815
H36   H     H_    0.618530 0.954986 0.439221 0.142256
H37   H     H_    0.948939 0.618758 0.550364 0.145838
H38   H     H_    0.381431 0.952685 0.557812 0.143184
H39   H     H_    0.044876 0.381462 0.560727 0.142345
H40   H     H_    0.618560 0.045018 0.560786 0.142245
H41   H     H_    0.455486 0.881450 0.938584 0.142035
H42   H     H_    0.881373 0.546246 0.941929 0.143573
H43   H     H_    0.544661 0.118525 0.938859 0.142173
H44   H     H_    0.118537 0.454378 0.939867 0.142415
H45   H     H_    0.455345 0.118567 0.061107 0.142192
H46   H     H_    0.881425 0.453750 0.058117 0.143532
H47   H     H_    0.544514 0.881472 0.061402 0.142046
H48   H     H_    0.118585 0.545607 0.060153 0.142467
O1    O     O_R   0.031480 0.445630 0.499980 -0.582059
O2    O     O_R   0.445630 0.968520 0.499980 -0.582663
O3    O     O_R   0.968520 0.554370 0.499980 -0.583724
O4    O     O_R   0.554370 0.031480 0.499980 -0.582082
O5    O     O_R   0.031480 0.554370 0.500020 -0.583751
O6    O     O_R   0.445630 0.031480 0.500020 -0.582626
O7    O     O_R   0.968520 0.445630 0.500020 -0.582061
O8    O     O_R   0.554370 0.968520 0.500020 -0.582086
O9    O     O_R   0.531480 0.945630 0.999980 -0.581954
O10   O     O_R   0.945630 0.468520 0.999980 -0.582463
O11   O     O_R   0.468520 0.054370 0.999980 -0.581979
O12   O     O_R   0.054370 0.531480 0.999980 -0.582181
O13   O     O_R   0.531480 0.054370 0.000020 -0.582010
O14   O     O_R   0.945630 0.531480 0.000020 -0.582414
O15   O     O_R   0.468520 0.945630 0.000020 -0.581959
O16   O     O_R   0.054370 0.468520 0.000020 -0.582228
O17   O     O_R   0.031480 0.500000 0.581380 -0.577355
O18   O     O_R   0.500000 0.968520 0.581380 -0.577284
O19   O     O_R   0.968520 0.500000 0.581380 -0.577126
O20   O     O_R   0.500000 0.031480 0.581380 -0.577289
O21   O     O_R   0.031480 0.500000 0.418620 -0.577157
O22   O     O_R   0.500000 0.031480 0.418620 -0.577258
O23   O     O_R   0.968520 0.500000 0.418620 -0.577332
O24   O     O_R   0.500000 0.968520 0.418620 -0.577312
O25   O     O_R   0.531480 0.000000 0.081380 -0.577303
O26   O     O_R   0.000000 0.468520 0.081380 -0.577291
O27   O     O_R   0.468520 0.000000 0.081380 -0.577257
O28   O     O_R   0.000000 0.531480 0.081380 -0.577220
O29   O     O_R   0.531480 0.000000 0.918620 -0.577291
O30   O     O_R   0.000000 0.531480 0.918620 -0.577186
O31   O     O_R   0.468520 0.000000 0.918620 -0.577269
O32   O     O_R   0.000000 0.468520 0.918620 -0.577323
O33   O     O_R   0.945750 0.999990 0.547080 -0.584783
O34   O     O_R   0.999990 0.054250 0.547080 -0.584769
O35   O     O_R   0.054250 0.000010 0.547080 -0.584703
O36   O     O_R   0.000010 0.945750 0.547080 -0.584789
O37   O     O_R   0.945750 0.000010 0.452920 -0.584800
O38   O     O_R   0.999990 0.945750 0.452920 -0.584735
O39   O     O_R   0.054250 0.999990 0.452920 -0.584784
O40   O     O_R   0.000010 0.054250 0.452920 -0.584738
O41   O     O_R   0.445750 0.499990 0.047080 -0.584561
O42   O     O_R   0.499990 0.554250 0.047080 -0.584680
O43   O     O_R   0.554250 0.500010 0.047080 -0.584626
O44   O     O_R   0.500010 0.445750 0.047080 -0.584601
O45   O     O_R   0.445750 0.500010 0.952920 -0.584618
O46   O     O_R   0.499990 0.445750 0.952920 -0.584602
O47   O     O_R   0.554250 0.499990 0.952920 -0.584672
O48   O     O_R   0.500010 0.554250 0.952920 -0.584609
N1    N     N_2   0.961867 0.193541 0.412532 -0.423694
H49   H     H_    0.972903 0.219122 0.401491 0.257276
C153  C     C_3   0.943751 0.173834 0.366654 -0.700380
H50   H     H_    0.929047 0.194337 0.339284 0.228800
H51   H     H_    0.922351 0.153993 0.383045 0.235157
H52   H     H_    0.964887 0.158661 0.341177 0.226862
N2    N     N_2   0.193531 0.038209 0.412678 -0.422146
H53   H     H_    0.219101 0.026950 0.401494 0.256719
C154  C     C_3   0.173825 0.055669 0.366107 -0.699633
H54   H     H_    0.194305 0.070262 0.338524 0.228418
H55   H     H_    0.153751 0.077137 0.381817 0.234941
H56   H     H_    0.158927 0.034079 0.340965 0.226401
N3    N     N_2   0.038461 0.806497 0.412898 -0.423853
H57   H     H_    0.027524 0.780871 0.401906 0.257985
C155  C     C_3   0.056489 0.826176 0.366924 -0.700715
H58   H     H_    0.071260 0.805680 0.339641 0.228880
H59   H     H_    0.077830 0.846125 0.383222 0.235038
H60   H     H_    0.035288 0.841210 0.341381 0.227055
N4    N     N_2   0.806420 0.962097 0.412182 -0.422229
H61   H     H_    0.780858 0.973375 0.401013 0.256575
C156  C     C_3   0.826116 0.944608 0.365630 -0.699165
H62   H     H_    0.805614 0.930077 0.337934 0.228257
H63   H     H_    0.846123 0.923078 0.381377 0.234925
H64   H     H_    0.841095 0.966184 0.340571 0.226313
N5    N     N_2   0.961667 0.806501 0.587204 -0.422440
H65   H     H_    0.972844 0.780895 0.598369 0.257213
C157  C     C_3   0.944106 0.826204 0.633648 -0.700009
H66   H     H_    0.929459 0.805722 0.661144 0.228617
H67   H     H_    0.922685 0.846274 0.617825 0.234935
H68   H     H_    0.965624 0.841105 0.658887 0.226606
N6    N     N_2   0.193552 0.961716 0.587279 -0.423593
H69   H     H_    0.219119 0.972803 0.598431 0.257352
C158  C     C_3   0.173857 0.943561 0.633088 -0.700839
H70   H     H_    0.194363 0.928810 0.660374 0.228938
H71   H     H_    0.153988 0.922203 0.616636 0.235150
H72   H     H_    0.158720 0.964667 0.658649 0.226942
N7    N     N_2   0.038036 0.193568 0.587648 -0.422254
H73   H     H_    0.026816 0.219155 0.598755 0.256627
C159  C     C_3   0.055477 0.173873 0.634250 -0.699265
H74   H     H_    0.070024 0.194368 0.661922 0.228286
H75   H     H_    0.076984 0.153826 0.618565 0.234933
H76   H     H_    0.033871 0.158945 0.659308 0.226359
N8    N     N_2   0.806459 0.038012 0.587629 -0.423529
H77   H     H_    0.780889 0.026930 0.598692 0.257192
C160  C     C_3   0.826170 0.056050 0.633595 -0.700080
H78   H     H_    0.805668 0.070711 0.661042 0.228681
H79   H     H_    0.846009 0.077488 0.617278 0.235127
H80   H     H_    0.841347 0.034856 0.658996 0.226762
N9    N     N_2   0.461361 0.693531 0.913228 -0.423843
H81   H     H_    0.472313 0.719127 0.902190 0.257372
C161  C     C_3   0.443120 0.673834 0.867480 -0.701241
H82   H     H_    0.428280 0.694328 0.840334 0.229062
H83   H     H_    0.421841 0.653927 0.883971 0.235233
H84   H     H_    0.464165 0.658745 0.841793 0.227078
N10   N     N_2   0.693517 0.538645 0.913258 -0.422305
H85   H     H_    0.719128 0.527516 0.902155 0.256866
C162  C     C_3   0.673825 0.556146 0.866725 -0.700364
H86   H     H_    0.694291 0.570871 0.839348 0.228644
H87   H     H_    0.653648 0.577493 0.882442 0.234975
H88   H     H_    0.659057 0.534589 0.841410 0.226608
N11   N     N_2   0.538847 0.306462 0.913484 -0.423745
H89   H     H_    0.527942 0.280841 0.902507 0.257433
C163  C     C_3   0.556945 0.326137 0.867595 -0.701462
H90   H     H_    0.571832 0.305656 0.840523 0.229130
H91   H     H_    0.578171 0.346167 0.883932 0.235191
H92   H     H_    0.535807 0.341073 0.841883 0.227121
N12   N     N_2   0.306472 0.461036 0.913562 -0.423401
H93   H     H_    0.280790 0.471905 0.902735 0.257256
C164  C     C_3   0.326148 0.443380 0.867203 -0.700623
H94   H     H_    0.305671 0.428579 0.839946 0.228831
H95   H     H_    0.346331 0.422107 0.883070 0.235027
H96   H     H_    0.340912 0.464825 0.841762 0.226913
N13   N     N_2   0.461291 0.306461 0.086603 -0.422442
H97   H     H_    0.472495 0.280892 0.097907 0.256577
C165  C     C_3   0.443376 0.326169 0.132631 -0.701400
H98   H     H_    0.428541 0.305690 0.159783 0.229146
H99   H     H_    0.422122 0.346237 0.116457 0.235226
H100  H     H_    0.464631 0.341071 0.158220 0.226795
N14   N     N_2   0.693536 0.461280 0.086710 -0.423545
H101  H     H_    0.719146 0.472240 0.097738 0.257483
C166  C     C_3   0.673865 0.443259 0.132698 -0.701143
H102  H     H_    0.694349 0.428415 0.159860 0.228996
H103  H     H_    0.653840 0.421989 0.116438 0.235155
H104  H     H_    0.658925 0.464457 0.158327 0.227021
N15   N     N_2   0.538575 0.693553 0.086918 -0.422656
H105  H     H_    0.527502 0.719172 0.097958 0.256849
C167  C     C_3   0.556187 0.673866 0.133334 -0.700167
H106  H     H_    0.570885 0.694351 0.160760 0.228613
H107  H     H_    0.577563 0.653763 0.117496 0.235032
H108  H     H_    0.534705 0.659005 0.158634 0.226620
N16   N     N_2   0.306422 0.538578 0.086541 -0.423869
H109  H     H_    0.281348 0.526925 0.098375 0.257480
C168  C     C_3   0.326118 0.557662 0.131521 -0.701662
H110  H     H_    0.305579 0.572607 0.158404 0.229549
H111  H     H_    0.345710 0.578933 0.114203 0.235513
H112  H     H_    0.341570 0.537163 0.157692 0.226554

loop_
_geom_bond_atom_site_label_1
_geom_bond_atom_site_label_2
_ccdc_geom_bond_type
N7    C159  S    
N6    H69   S    
C7    C55   S    
C32   H32   S    
C99   C139  A    
C8    C56   S    
Cu1   O1    S    
C90   C95   S    
N8    C160  S    
N13   H97   S    
C156  H64   S    
C27   H27   S    
C98   C138  A    
C21   C59   A    
C103  C137  A    
C98   C114  A    
C3    O3    A    
C22   C38   A    
C18   C58   A    
C121  H9    S    
C48   H48   S    
Cu4   O4    S    
C157  H67   S    
C128  H16   S    
C79   O31   A    
C97   N1    S    
C20   H20   S    
C125  C135  A    
N9    C161  S    
C78   O26   A    
C79   C87   S    
C114  C130  A    
C108  C124  A    
C73   C81   S    
C168  H111  S    
C168  H110  S    
C66   O40   A    
N10   C162  S    
C163  H90   S    
C36   H36   S    
Cu9   O36   S    
C25   C41   A    
C165  H99   S    
C46   H46   S    
C28   C44   A    
C104  C140  A    
C29   C45   A    
Cu11  O42   S    
C7    O11   A    
N8    H77   S    
C101  N5    S    
Cu6   O32   S    
Cu6   O26   S    
Cu8   O12   S    
C2    O2    A    
C154  H55   S    
C35   C51   A    
C107  C143  A    
C108  C144  A    
C66   O34   A    
C153  H51   S    
C106  C142  A    
C22   C58   A    
C68   C131  S    
Cu10  O37   S    
C83   C91   T    
C89   C96   S    
C80   C88   S    
C19   C35   A    
C91   C94   S    
C31   H31   S    
C29   H29   S    
C29   C63   A    
C126  H14   S    
C79   O29   A    
C165  H98   S    
C126  C134  A    
N5    C157  S    
N11   H89   S    
C38   H38   S    
C2    O6    A    
C116  H4    S    
C76   O22   A    
Cu8   O30   S    
C119  H7    S    
C102  N6    S    
C6    O10   A    
C4    O4    A    
C47   H47   S    
N16   H109  S    
C75   C83   S    
C70   O42   A    
C73   O17   A    
C101  C139  A    
C35   H35   S    
C68   O36   A    
C158  H70   S    
C10   C58   S    
N1    H49   S    
C71   O47   A    
C14   C62   S    
Cu11  O41   S    
Cu4   O20   S    
C122  C134  A    
C2    C50   S    
C105  N9    S    
C67   O35   A    
C40   H40   S    
Cu4   O22   S    
C160  H79   S    
C87   C95   T    
C33   H33   S    
Cu1   O5    S    
C36   C52   A    
C3    O5    A    
N4    C156  S    
C77   C85   S    
Cu12  O45   S    
Cu5   O9    S    
C164  H95   S    
Cu1   O17   S    
C97   C137  A    
C106  N10   S    
C166  H103  S    
C107  N11   S    
C155  H60   S    
C32   C64   A    
N12   C164  S    
C72   C135  S    
C7    O13   A    
C19   C59   A    
C122  H10   S    
C45   H45   S    
C5    O15   A    
C123  C135  A    
C163  H91   S    
C22   H22   S    
Cu9   O33   S    
Cu10  O39   S    
C159  H75   S    
C34   H34   S    
C116  C132  A    
C71   O43   A    
C106  C122  A    
C76   O24   A    
C15   C151  T    
Cu11  O43   S    
C41   C53   A    
C110  C126  A    
C43   C55   A    
C39   C49   A    
C10   C146  T    
C161  H83   S    
C100  N4    S    
Cu1   Cu3   S    
C125  H13   S    
C73   O19   A    
C65   C132  S    
C26   C42   A    
C69   O45   A    
C68   O38   A    
C23   C57   A    
Cu7   O27   S    
C30   C46   A    
C123  H11   S    
N2    H53   S    
C124  H12   S    
C156  H63   S    
C141  C149  S    
C47   C53   A    
C127  H15   S    
C144  C152  S    
C25   H25   S    
C12   C148  T    
C167  H108  S    
C23   H23   S    
C138  C146  S    
C143  C151  S    
N3    C155  S    
Cu8   O14   S    
C117  C131  A    
C112  N16   S    
C111  C141  A    
C117  H5    S    
C45   C55   A    
Cu12  O47   S    
C84   C92   T    
C97   C113  A    
C77   O25   A    
C88   C96   T    
C39   H39   S    
C31   C61   A    
C155  H58   S    
C100  C116  A    
C107  C123  A    
Cu2   O2    S    
C76   C84   S    
C71   C134  S    
Cu9   Cu10  S    
C153  H50   S    
C137  C145  S    
C6    C54   S    
Cu9   O35   S    
C158  H72   S    
C65   O37   A    
C128  C136  A    
C113  H1    S    
C33   C49   A    
C164  H94   S    
C162  H87   S    
C4    O8    A    
N4    H61   S    
Cu3   O7    S    
C20   C60   A    
Cu2   Cu4   S    
C110  N14   S    
C8    O12   A    
Cu5   O13   S    
C66   C129  S    
C81   C89   T    
C70   O48   A    
N10   H85   S    
Cu5   Cu7   S    
C31   C47   A    
C154  H54   S    
Cu6   Cu8   S    
C32   C48   A    
C17   C33   A    
C72   O44   A    
C11   C59   S    
Cu7   O31   S    
N13   C165  S    
C26   H26   S    
C124  C136  A    
C43   H43   S    
C74   O20   A    
C167  H106  S    
C3    C51   S    
N9    H81   S    
C159  H74   S    
N5    H65   S    
C118  C130  A    
C44   C56   A    
N14   H101  S    
C14   C150  T    
C157  H68   S    
Cu1   O21   S    
C16   C152  T    
C25   C61   A    
Cu3   O3    S    
C27   C63   A    
C28   C64   A    
Cu5   O25   S    
C104  N8    S    
C30   C62   A    
C1    O1    A    
C67   C130  S    
Cu2   O8    S    
C168  H112  S    
C103  N7    S    
C65   O33   A    
C111  N15   S    
N6    C158  S    
C127  C133  A    
C165  H100  S    
N16   C168  S    
C21   H21   S    
C82   C90   T    
C24   H24   S    
C101  C117  A    
C142  C150  S    
N12   H93   S    
C42   C54   A    
N2    C154  S    
C11   C147  T    
C30   H30   S    
C6    O14   A    
C99   C115  A    
C9    C145  T    
C92   C93   S    
C80   O30   A    
C42   H42   S    
C112  C128  A    
C20   C36   A    
C27   C43   A    
C21   C37   A    
C158  H71   S    
C160  H78   S    
C154  H56   S    
C77   O27   A    
C18   H18   S    
C17   C57   A    
C104  C120  A    
C153  H52   S    
C5    O9    A    
C161  H82   S    
C72   O46   A    
Cu12  O46   S    
C162  H88   S    
N7    H73   S    
Cu11  Cu12  S    
C74   O18   A    
C140  C148  S    
C99   N3    S    
C69   O41   A    
C115  C131  A    
C166  H102  S    
C139  C147  S    
C113  C129  A    
C4    C52   S    
C5    C53   S    
C155  H59   S    
C105  C141  A    
C37   C51   A    
Cu7   O11   S    
C118  H6    S    
C44   H44   S    
C102  C138  A    
C110  C142  A    
Cu5   O29   S    
Cu10  O40   S    
C100  C140  A    
C119  C129  A    
C157  H66   S    
N11   C163  S    
C70   C133  S    
C75   O23   A    
Cu7   O15   S    
C86   C94   T    
C102  C118  A    
C78   C86   S    
Cu6   O10   S    
Cu2   O18   S    
C46   C54   A    
Cu11  O44   S    
C85   C93   T    
C28   H28   S    
C159  H76   S    
C114  H2    S    
C34   C50   A    
C109  C143  A    
C19   H19   S    
N1    C153  S    
C120  H8    S    
C156  H62   S    
C40   C52   A    
C80   O32   A    
C37   H37   S    
C17   H17   S    
C167  H107  S    
Cu3   O23   S    
C98   N2    S    
C24   C60   A    
C160  H80   S    
C108  N12   S    
N3    H57   S    
C105  C121  A    
C1    O7    A    
C18   C34   A    
C109  C125  A    
N14   C166  S    
Cu12  O48   S    
C111  C127  A    
C164  H96   S    
C115  H3    S    
Cu6   O16   S    
C74   C82   S    
C166  H104  S    
C48   C56   A    
C78   O28   A    
Cu8   O28   S    
C120  C132  A    
C103  C119  A    
C38   C50   A    
C69   C136  S    
C163  H92   S    
C112  C144  A    
C26   C62   A    
C13   C149  T    
Cu9   O34   S    
Cu10  O38   S    
C109  N13   S    
N15   C167  S    
C8    O16   A    
C23   C39   A    
Cu3   O19   S    
C24   C40   A    
C75   O21   A    
C9    C57   S    
C41   H41   S    
C162  H86   S    
C12   C60   S    
C13   C61   S    
C161  H84   S    
Cu2   O24   S    
C15   C63   S    
Cu4   O6    S    
C16   C64   S    
C121  C133  A    
N15   H105  S    
C1    C49   S    
C67   O39   A    
