data_mof_unit_10475.cif
_audit_creation_date              2012-12-10T17:36:39-0500
_audit_creation_method            fapswitch 2.2
_symmetry_space_group_name_H-M    P1
_symmetry_Int_Tables_number       1
_space_group_crystal_system       triclinic
_cell_length_a                    12.025989
_cell_length_b                    12.889617
_cell_length_c                    15.730751
_cell_angle_alpha                 90.678373
_cell_angle_beta                  85.855442
_cell_angle_gamma                 92.116358
_cell_volume                      2430.29129201

loop_
_atom_site_label
_atom_site_type_symbol
_atom_type_description
_atom_site_fract_x
_atom_site_fract_y
_atom_site_fract_z
_atom_type_partial_charge
C1    C     C_R   0.520609 0.699780 0.497927 0.971491
C2    C     C_R   0.479393 0.300219 0.502078 0.971461
C3    C     C_R   0.579294 0.956072 0.590992 0.442936
C4    C     C_R   0.420692 0.043918 0.409028 0.442991
C5    C     C_R   0.586103 0.851940 0.571479 -0.327169
C6    C     C_R   0.413893 0.148052 0.428536 -0.327150
C7    C     C_R   0.465373 0.870213 0.455175 0.508355
C8    C     C_R   0.534644 0.129784 0.544832 0.508372
C9    C     C_R   0.471400 0.978217 0.465194 -0.159995
C10   C     C_R   0.528605 0.021778 0.534817 -0.160050
C11   C     C_R   0.958356 0.401266 0.420785 0.422076
C12   C     C_R   0.041645 0.598741 0.579209 0.422066
C13   C     C_R   0.841771 0.412932 0.426719 0.390391
C14   C     C_R   0.158231 0.587076 0.573274 0.390425
C15   C     C_R   0.856180 0.540591 0.535368 -0.092479
C16   C     C_R   0.143820 0.459407 0.464633 -0.092518
C17   C     C_R   0.974162 0.535247 0.529033 -0.160583
C18   C     C_R   0.025838 0.464752 0.470967 -0.160566
C19   C     C_R   0.499865 0.500046 0.662064 0.915013
C20   C     C_R   0.500135 0.499953 0.337936 0.915018
C21   C     C_3   0.443455 0.584489 0.031561 -0.481942
C22   C     C_3   0.556545 0.415509 0.968439 -0.481942
C23   C     C_3   0.549823 0.587244 0.970007 0.469118
C24   C     C_3   0.450177 0.412754 0.029993 0.469121
C25   C     C_1   0.499539 0.499503 0.750904 -0.111402
C26   C     C_1   0.500461 0.500497 0.249096 -0.111395
C27   C     C_3   0.395054 0.494146 0.978328 0.478258
C28   C     C_3   0.604945 0.505853 0.021672 0.478258
C29   C     C_3   0.500372 0.498450 0.916872 -0.086564
C30   C     C_3   0.499628 0.501548 0.083128 -0.086565
C31   C     C_1   0.499718 0.498938 0.826115 0.125148
C32   C     C_1   0.500281 0.501061 0.173885 0.125152
C33   C     C_R   0.469916 0.190090 0.495660 -0.213473
C34   C     C_R   0.530095 0.809907 0.504347 -0.213507
H1    H     H_    0.398450 0.651832 0.059573 0.192546
H2    H     H_    0.601550 0.348166 0.940427 0.192542
H3    H     H_    0.373385 0.198367 0.386392 0.202346
H4    H     H_    0.626603 0.801624 0.613626 0.202356
H5    H     H_    0.185123 0.406726 0.419668 0.198913
H6    H     H_    0.814877 0.593271 0.580335 0.198910
N1    N     N_R   0.207800 0.519340 0.515560 -0.165362
N2    N     N_R   0.792200 0.480660 0.484440 -0.165341
O1    O     O_R   0.421700 0.658830 0.504150 -0.570581
O2    O     O_R   0.578300 0.341170 0.495850 -0.570654
O3    O     O_R   0.609310 0.646410 0.494170 -0.640991
O4    O     O_R   0.390690 0.353590 0.505830 -0.640972
O5    O     O_R   0.406210 0.506220 0.628210 -0.556745
O6    O     O_R   0.593790 0.493780 0.371790 -0.556737
O7    O     O_R   0.593830 0.493800 0.618230 -0.628537
O8    O     O_R   0.406170 0.506200 0.381770 -0.628551
Zn1   Zn    Zn3+2 0.374730 0.508290 0.506660 1.009764
Zn2   Zn    Zn3+2 0.625270 0.491710 0.493340 1.009767
O9    O     O_3   0.603711 0.675155 0.930726 -0.593297
C35   C     C_3   0.626767 0.750118 0.993486 -0.192790
H7    H     H_    0.676819 0.718412 0.043303 0.180013
H8    H     H_    0.548474 0.782418 0.022906 0.172162
H9    H     H_    0.676669 0.815177 0.962566 0.203560
O10   O     O_3   0.396290 0.324843 0.069274 -0.593298
C36   C     C_3   0.373231 0.249881 0.006514 -0.192795
H10   H     H_    0.451523 0.217584 0.977090 0.172163
H11   H     H_    0.323174 0.281588 0.956700 0.180016
H12   H     H_    0.323333 0.184820 0.037434 0.203559
O11   O     O_3   0.712346 0.514990 0.052245 -0.588461
C37   C     C_3   0.793153 0.502662 0.983867 -0.215639
H13   H     H_    0.783511 0.558826 0.931990 0.189413
H14   H     H_    0.790510 0.421767 0.958635 0.166668
H15   H     H_    0.876908 0.517876 0.007608 0.186906
O12   O     O_3   0.287653 0.485008 0.947755 -0.588468
C38   C     C_3   0.206847 0.497336 0.016133 -0.215638
H16   H     H_    0.209489 0.578231 0.041365 0.166675
H17   H     H_    0.216489 0.441172 0.068010 0.189416
H18   H     H_    0.123092 0.482122 0.992392 0.186904
O13   O     O_3   0.604298 0.178446 0.600819 -0.565295
C39   C     C_3   0.715341 0.180574 0.563790 -0.181309
H19   H     H_    0.764921 0.240349 0.597399 0.180937
H20   H     H_    0.721324 0.200822 0.495092 0.170283
H21   H     H_    0.754629 0.104935 0.570800 0.170656
O14   O     O_3   0.395676 0.821549 0.399222 -0.565290
C40   C     C_3   0.284662 0.819367 0.436317 -0.181246
H22   H     H_    0.278775 0.799628 0.505124 0.170066
H23   H     H_    0.235214 0.759202 0.403024 0.180842
H24   H     H_    0.245158 0.894826 0.428938 0.170959
Cl1   Cl    Cl    0.623221 0.994742 0.691827 -0.558831
Cl2   Cl    Cl    0.376749 0.005242 0.308200 -0.558880
Cl3   Cl    Cl    0.238465 0.660484 0.643044 -0.549812
Cl4   Cl    Cl    0.761541 0.339539 0.356936 -0.549795
O15   O     O_3   0.006078 0.332260 0.362125 -0.568222
C41   C     C_3   0.013256 0.235706 0.402335 -0.253486
H25   H     H_    0.066670 0.241966 0.457216 0.139260
H26   H     H_    0.052343 0.180433 0.355646 0.214749
H27   H     H_    0.929197 0.202650 0.423621 0.162023
O16   O     O_3   0.993924 0.667761 0.637859 -0.568214
C42   C     C_3   0.986741 0.764303 0.597632 -0.253546
H28   H     H_    0.947597 0.819571 0.644299 0.214740
H29   H     H_    0.933377 0.758019 0.542723 0.139249
H30   H     H_    0.070805 0.797381 0.576383 0.162067

loop_
_geom_bond_atom_site_label_1
_geom_bond_atom_site_label_2
_ccdc_geom_bond_type
C25   C31   T    
O15   C41   S    
C11   C18   A    
C26   C32   T    
C42   H28   S    
C22   C29   S    
C27   C29   S    
O13   C39   S    
C24   C27   S    
O1    Zn1   S    
O9    C35   S    
C2    O4    A    
C39   H20   S    
C23   C29   S    
C19   O5    A    
C17   C18   A    
C38   H17   S    
O16   C42   S    
C20   O8    A    
C27   O12   S    
C1    O1    A    
C11   O15   S    
O12   C38   S    
C39   H21   S    
C13   Cl4   S    
C9    C10   A    
O2    Zn2   S    
C21   C27   S    
C36   H10   S    
C42   H29   S    
C22   C28   S    
C5    H4    S    
C13   N2    A    
C1    C34   S    
C23   O9    S    
C35   H8    S    
C36   H11   S    
C39   H19   S    
C37   H15   S    
C14   Cl3   S    
C4    C6    A    
C2    O2    A    
C40   H23   S    
O14   C40   S    
O5    Zn1   S    
O3    Zn2   S    
O10   C36   S    
O4    Zn1   S    
O11   C37   S    
C37   H14   S    
C12   C17   A    
C38   H18   S    
C19   O7    A    
C4    Cl2   S    
C41   H27   S    
O7    Zn2   S    
C5    C34   A    
O8    Zn1   S    
C6    H3    S    
C16   C18   A    
C23   C28   S    
C20   O6    A    
C14   N1    A    
C2    C33   S    
C8    C10   A    
C41   H26   S    
C42   H30   S    
C21   C23   S    
C3    Cl1   S    
C7    C34   A    
C22   C24   S    
C15   C17   A    
C35   H7    S    
C36   H12   S    
C12   O16   S    
C15   N2    A    
C12   C14   A    
C3    C5    A    
C40   H24   S    
C21   H1    S    
C22   H2    S    
C21   C30   S    
C6    C33   A    
C37   H13   S    
C28   C30   S    
C29   C31   S    
C3    C10   A    
C30   C32   S    
C11   C13   A    
C1    O3    A    
C20   C26   S    
C8    O13   S    
C8    C33   A    
C38   H16   S    
C19   C25   S    
C24   C30   S    
C15   H6    S    
C16   H5    S    
C7    O14   S    
C40   H22   S    
C28   O11   S    
C7    C9    A    
O6    Zn2   S    
C41   H25   S    
C24   O10   S    
C4    C9    A    
C16   N1    A    
N1    Zn1   S    
N2    Zn2   S    
C35   H9    S    
