data_mof_unit_61091.cif
_audit_creation_date              2012-12-11T21:17:30-0500
_audit_creation_method            fapswitch 2.2
_symmetry_space_group_name_H-M    P1
_symmetry_Int_Tables_number       1
_space_group_crystal_system       triclinic
_cell_length_a                    23.360089
_cell_length_b                    29.659911
_cell_length_c                    8.403183
_cell_angle_alpha                 90.0
_cell_angle_beta                  93.017485
_cell_angle_gamma                 90.002431
_cell_volume                      5814.14151058

loop_
_atom_site_label
_atom_site_type_symbol
_atom_type_description
_atom_site_fract_x
_atom_site_fract_y
_atom_site_fract_z
_atom_type_partial_charge
Ba1   Ba    Ba6+2 0.999920 0.468170 0.845000 1.634499
Ba2   Ba    Ba6+2 0.999920 0.531830 0.345000 1.632392
Ba3   Ba    Ba6+2 0.499920 0.968170 0.845000 1.635669
Ba4   Ba    Ba6+2 0.499920 0.031830 0.345000 1.635357
C1    C     C_3   0.028857 0.247226 0.653070 0.164768
C2    C     C_3   0.038522 0.747580 0.143695 0.219407
C3    C     C_3   0.528806 0.747295 0.653137 0.164779
C4    C     C_3   0.528883 0.252725 0.153103 0.164777
C5    C     C_R   0.128512 0.601141 0.009575 0.052882
C6    C     C_R   0.128286 0.398845 0.509724 0.060246
C7    C     C_R   0.628329 0.101136 0.009655 0.059865
C8    C     C_R   0.628336 0.898863 0.509640 0.059199
C9    C     C_R   0.122064 0.685009 0.865124 -0.162722
C10   C     C_R   0.121875 0.314987 0.365273 -0.111749
C11   C     C_R   0.621934 0.184994 0.865220 -0.111283
C12   C     C_R   0.621946 0.814995 0.365271 -0.111156
C13   C     C_R   0.092182 0.648470 0.796357 0.002065
C14   C     C_R   0.091688 0.351428 0.297100 -0.027020
C15   C     C_R   0.591744 0.148556 0.797023 -0.026917
C16   C     C_R   0.591752 0.851428 0.297032 -0.026738
C17   C     C_R   0.861442 0.320263 0.351342 -0.144928
C18   C     C_R   0.861102 0.679551 0.852539 -0.145937
C19   C     C_R   0.361154 0.820388 0.351802 -0.145442
C20   C     C_R   0.361370 0.179707 0.851421 -0.144978
C21   C     C_R   0.897704 0.354761 0.407873 -0.000222
C22   C     C_R   0.897165 0.644978 0.909462 -0.000967
C23   C     C_R   0.397558 0.854823 0.408078 0.000256
C24   C     C_R   0.397646 0.145215 0.907926 0.000064
C25   C     C_R   0.833281 0.364941 0.122459 -0.151337
C26   C     C_R   0.833129 0.634992 0.623222 -0.148345
C27   C     C_R   0.333078 0.865042 0.122781 -0.151054
C28   C     C_R   0.333216 0.135031 0.622522 -0.151222
C29   C     C_R   0.872936 0.398198 0.172941 0.056767
C30   C     C_R   0.872764 0.601712 0.673672 0.057924
C31   C     C_R   0.372848 0.898235 0.173060 0.056190
C32   C     C_R   0.372885 0.101784 0.672988 0.056502
C33   C     C_R   0.166559 0.678270 0.985458 0.003909
C34   C     C_R   0.166510 0.321814 0.485255 0.032333
C35   C     C_R   0.666573 0.178159 0.985181 0.032671
C36   C     C_R   0.666583 0.821840 0.485254 0.033025
C37   C     C_R   0.090194 0.608406 0.880180 -0.247352
C38   C     C_R   0.089718 0.391487 0.380931 -0.244581
C39   C     C_R   0.589771 0.108493 0.880838 -0.244679
C40   C     C_R   0.589772 0.891493 0.380841 -0.244647
C41   C     C_R   0.821355 0.327065 0.219932 0.001365
C42   C     C_R   0.821130 0.672829 0.720827 -0.002421
C43   C     C_R   0.321062 0.827227 0.220439 0.000671
C44   C     C_R   0.321282 0.172903 0.720007 0.001371
C45   C     C_3   0.972602 0.302191 0.081131 0.368216
C46   C     C_3   0.973125 0.698221 0.582392 0.339723
C47   C     C_3   0.472458 0.802240 0.081860 0.366874
C48   C     C_3   0.472594 0.197801 0.581471 0.367991
C49   C     C_R   0.904583 0.393016 0.316252 -0.269777
C50   C     C_R   0.904218 0.606795 0.817458 -0.275406
C51   C     C_R   0.404524 0.893038 0.316318 -0.270182
C52   C     C_R   0.404531 0.106966 0.816296 -0.269965
C53   C     C_R   0.195682 0.762850 0.801147 -0.086863
C54   C     C_R   0.196177 0.237551 0.300387 -0.072481
C55   C     C_R   0.696253 0.262415 0.800311 -0.072730
C56   C     C_R   0.696235 0.737524 0.300699 -0.072767
C57   C     C_R   0.687683 0.304527 0.729093 -0.052588
C58   C     C_R   0.687643 0.695401 0.229576 -0.053173
C59   C     C_R   0.187186 0.804995 0.730110 -0.061415
C60   C     C_R   0.187606 0.195439 0.229163 -0.052342
C61   C     C_R   0.695434 0.343321 0.820042 -0.056243
C62   C     C_R   0.695359 0.656621 0.320614 -0.056581
C63   C     C_R   0.195026 0.843754 0.821190 -0.056355
C64   C     C_R   0.195359 0.156644 0.320103 -0.055922
C65   C     C_R   0.718432 0.339931 0.975773 -0.077601
C66   C     C_R   0.718335 0.660032 0.476360 -0.077996
C67   C     C_R   0.218039 0.840289 0.976876 -0.081123
C68   C     C_R   0.218361 0.160034 0.475832 -0.077559
C69   C     C_R   0.735312 0.297726 0.039931 0.034150
C70   C     C_R   0.735220 0.702244 0.540471 0.034457
C71   C     C_R   0.234830 0.798043 0.040858 0.035629
C72   C     C_R   0.235237 0.202240 0.540002 0.033991
C73   C     C_R   0.211490 0.758676 0.965038 0.031648
C74   C     C_R   0.211965 0.241638 0.464276 0.055597
C75   C     C_R   0.712043 0.258328 0.964199 0.055556
C76   C     C_R   0.712003 0.741641 0.464592 0.056503
C77   C     C_R   0.770794 0.294106 0.181370 -0.023266
C78   C     C_R   0.770664 0.705864 0.681987 -0.022107
C79   C     C_R   0.270404 0.794355 0.182088 -0.016948
C80   C     C_R   0.270720 0.205859 0.681442 -0.023205
C81   C     C_R   0.758167 0.256809 0.280365 0.030578
C82   C     C_R   0.758070 0.743210 0.780817 0.030815
C83   C     C_R   0.257774 0.757069 0.281062 0.033681
C84   C     C_R   0.258095 0.243155 0.780436 0.030620
C85   C     C_R   0.225037 0.719227 0.219186 0.012906
C86   C     C_R   0.225303 0.280985 0.718649 0.021507
C87   C     C_R   0.725369 0.218982 0.218578 0.021885
C88   C     C_R   0.725345 0.781056 0.718841 0.023087
C89   C     C_3   0.945126 0.256064 0.056049 -0.372150
C90   C     C_3   0.945185 0.743947 0.551948 -0.346368
C91   C     C_3   0.444806 0.756185 0.056556 -0.371681
C92   C     C_3   0.445062 0.243902 0.556275 -0.372663
C93   C     C_R   0.203487 0.718009 0.054804 -0.021409
C94   C     C_R   0.203755 0.282215 0.554269 0.020481
C95   C     C_R   0.703828 0.217752 0.054193 0.021058
C96   C     C_R   0.703815 0.782249 0.554434 0.023033
C97   C     C_R   0.772375 0.258109 0.445863 -0.080675
C98   C     C_R   0.772230 0.741952 0.946346 -0.077793
C99   C     C_R   0.271923 0.758395 0.446592 -0.084875
C100  C     C_R   0.272299 0.241853 0.945936 -0.080620
C101  C     C_R   0.269866 0.719932 0.539350 -0.088168
C102  C     C_R   0.270298 0.280332 0.038628 -0.088872
C103  C     C_R   0.770362 0.219631 0.538554 -0.088646
C104  C     C_R   0.770290 0.780465 0.038876 -0.070989
C105  C     C_R   0.239178 0.683226 0.481538 -0.058129
C106  C     C_R   0.239522 0.317004 0.980941 -0.064037
C107  C     C_R   0.739571 0.182964 0.480875 -0.063779
C108  C     C_R   0.739591 0.817151 0.981011 -0.061651
C109  C     C_R   0.213170 0.684760 0.329101 -0.069027
C110  C     C_R   0.213399 0.315431 0.828655 -0.057585
C111  C     C_R   0.713450 0.184539 0.328589 -0.057296
C112  C     C_R   0.713487 0.815556 0.828710 -0.058266
C113  C     C_3   0.162272 0.470355 0.190783 0.323715
C114  C     C_3   0.162505 0.529560 0.690943 0.322708
C115  C     C_3   0.662346 0.970386 0.190807 0.321717
C116  C     C_3   0.662343 0.029621 0.690778 0.323472
C117  C     C_3   0.214169 0.439370 0.201510 -0.398496
C118  C     C_3   0.214447 0.560508 0.701026 -0.398433
C119  C     C_3   0.714263 0.939423 0.201452 -0.394948
C120  C     C_3   0.714251 0.060599 0.701319 -0.397255
C121  C     C_3   0.834547 0.529013 0.998248 0.318363
C122  C     C_3   0.834797 0.470919 0.497889 0.318281
C123  C     C_3   0.334732 0.029051 0.997916 0.318222
C124  C     C_3   0.334706 0.970953 0.497947 0.318034
C125  C     C_3   0.782096 0.559486 0.995769 -0.389752
C126  C     C_3   0.782393 0.440380 0.494682 -0.387820
C127  C     C_3   0.282321 0.059575 0.994841 -0.387333
C128  C     C_3   0.282284 0.940437 0.494903 -0.387012
C129  C     C_3   0.008303 0.294522 0.607304 0.372674
C130  C     C_3   0.014227 0.700615 0.110685 0.455770
C131  C     C_3   0.508501 0.794735 0.608526 0.374434
C132  C     C_3   0.508431 0.205364 0.107899 0.373686
C133  C     C_R   0.172904 0.632824 0.040305 -0.152881
C134  C     C_R   0.172782 0.367251 0.540026 -0.171929
C135  C     C_R   0.672833 0.132723 0.039956 -0.172094
C136  C     C_R   0.672852 0.867287 0.539915 -0.171892
H1    H     H_    0.041908 0.319303 0.646785 0.056998
H2    H     H_    0.044252 0.675461 0.167247 -0.013860
H3    H     H_    0.541970 0.819390 0.650106 0.058993
H4    H     H_    0.541954 0.180638 0.148432 0.058035
H5    H     H_    0.246621 0.452476 0.291173 0.122004
H6    H     H_    0.247107 0.547289 0.789876 0.122019
H7    H     H_    0.746750 0.952567 0.290943 0.123634
H8    H     H_    0.746757 0.047469 0.790775 0.122833
H9    H     H_    0.201140 0.405063 0.237284 0.058043
H10   H     H_    0.201569 0.594784 0.737556 0.060800
H11   H     H_    0.701273 0.905123 0.237416 0.057661
H12   H     H_    0.701258 0.094898 0.737273 0.057552
H13   H     H_    0.233426 0.437203 0.083671 0.124622
H14   H     H_    0.233387 0.562789 0.582779 0.124827
H15   H     H_    0.733461 0.937227 0.083536 0.126055
H16   H     H_    0.733424 0.062793 0.583372 0.124975
H17   H     H_    0.849110 0.525931 0.875642 0.009803
H18   H     H_    0.849529 0.474074 0.375489 0.009103
H19   H     H_    0.349434 0.025913 0.875477 0.008911
H20   H     H_    0.349407 0.974082 0.375502 0.008940
H21   H     H_    0.868628 0.544599 0.077423 0.070201
H22   H     H_    0.868815 0.455340 0.577265 0.073083
H23   H     H_    0.368763 0.044634 0.077246 0.072847
H24   H     H_    0.368733 0.955370 0.577280 0.072797
H25   H     H_    0.747525 0.545260 0.914977 0.118508
H26   H     H_    0.747905 0.454596 0.413594 0.117700
H27   H     H_    0.247816 0.045355 0.913816 0.118127
H28   H     H_    0.247784 0.954656 0.413864 0.118223
H29   H     H_    0.793076 0.593605 0.952944 0.066056
H30   H     H_    0.793502 0.406293 0.451820 0.067323
H31   H     H_    0.293410 0.093667 0.951973 0.067145
H32   H     H_    0.293360 0.906340 0.452069 0.067104
H33   H     H_    0.766365 0.562530 0.117787 0.125591
H34   H     H_    0.766490 0.437264 0.616488 0.126157
H35   H     H_    0.266453 0.062681 0.116687 0.126256
H36   H     H_    0.266414 0.937344 0.616753 0.126400
H37   H     H_    0.182185 0.659368 0.304437 0.125709
H38   H     H_    0.182328 0.340788 0.804236 0.128428
H39   H     H_    0.682371 0.159185 0.304176 0.128319
H40   H     H_    0.682463 0.840947 0.804236 0.127967
H41   H     H_    0.001121 0.295843 0.475649 -0.053075
H42   H     H_    0.011037 0.695410 0.979577 -0.079936
H43   H     H_    0.501915 0.796474 0.476759 -0.055109
H44   H     H_    0.501552 0.203838 0.976187 -0.054209
H45   H     H_    0.037867 0.245436 0.784162 0.097756
H46   H     H_    0.082703 0.749469 0.100845 -0.018263
H47   H     H_    0.536872 0.745008 0.784487 0.097336
H48   H     H_    0.537395 0.254765 0.284330 0.097541
H49   H     H_    0.231607 0.655053 0.559364 0.079759
H50   H     H_    0.231961 0.345171 0.058797 0.078179
H51   H     H_    0.731998 0.154800 0.558734 0.078183
H52   H     H_    0.732064 0.845351 0.058745 0.078082
H53   H     H_    0.901413 0.256121 0.101891 0.075637
H54   H     H_    0.901475 0.744082 0.598003 0.076283
H55   H     H_    0.401138 0.756298 0.102637 0.077275
H56   H     H_    0.401386 0.243845 0.602357 0.075642
H57   H     H_    0.210040 0.622269 0.113020 0.057066
H58   H     H_    0.209987 0.377869 0.612351 0.053357
H59   H     H_    0.710032 0.122103 0.112296 0.053654
H60   H     H_    0.710070 0.877925 0.612147 0.055726
H61   H     H_    0.108933 0.717881 0.822915 0.080904
H62   H     H_    0.109188 0.282183 0.321612 0.119061
H63   H     H_    0.609247 0.217803 0.821613 0.118564
H64   H     H_    0.609247 0.782180 0.321726 0.118318
H65   H     H_    0.866414 0.288496 0.412140 0.072499
H66   H     H_    0.866185 0.711344 0.913118 0.095879
H67   H     H_    0.366016 0.788640 0.412779 0.073339
H68   H     H_    0.366337 0.211474 0.912232 0.072509
H69   H     H_    0.814267 0.369266 0.004507 0.101646
H70   H     H_    0.814209 0.630741 0.505121 0.101484
H71   H     H_    0.314024 0.869367 0.004865 0.102303
H72   H     H_    0.314202 0.130706 0.504567 0.101545
H73   H     H_    0.061328 0.581885 0.838604 0.064317
H74   H     H_    0.060769 0.417972 0.339537 0.065695
H75   H     H_    0.560816 0.082010 0.839447 0.065664
H76   H     H_    0.560804 0.917968 0.339466 0.065706
H77   H     H_    0.933079 0.419569 0.359671 0.063868
H78   H     H_    0.932804 0.580280 0.860670 0.064835
H79   H     H_    0.433107 0.919552 0.359593 0.063965
H80   H     H_    0.433040 0.080420 0.859693 0.063828
H81   H     H_    0.188788 0.733814 0.726291 0.079648
H82   H     H_    0.189254 0.266651 0.225836 0.063054
H83   H     H_    0.689321 0.233316 0.725762 0.063072
H84   H     H_    0.689331 0.766609 0.226070 0.060847
H85   H     H_    0.994666 0.222439 0.618319 0.045668
H86   H     H_    0.040595 0.754186 0.274227 0.079766
H87   H     H_    0.494865 0.722603 0.615326 0.044900
H88   H     H_    0.494843 0.277475 0.116762 0.044890
H89   H     H_    0.172506 0.807420 0.606040 0.070696
H90   H     H_    0.172898 0.193070 0.105102 0.070105
H91   H     H_    0.672973 0.306896 0.605034 0.070038
H92   H     H_    0.672948 0.693013 0.105510 0.069617
H93   H     H_    0.685227 0.376019 0.768852 0.061556
H94   H     H_    0.685145 0.623918 0.269479 0.061557
H95   H     H_    0.184909 0.876480 0.770107 0.064282
H96   H     H_    0.185154 0.123947 0.268906 0.062098
H97   H     H_    0.723133 0.370461 0.045874 0.059639
H98   H     H_    0.723021 0.629509 0.546506 0.059500
H99   H     H_    0.222885 0.870801 0.047033 0.060934
H100  H     H_    0.223065 0.129502 0.545925 0.059917
H101  H     H_    0.783786 0.289113 0.507023 0.079518
H102  H     H_    0.783523 0.710953 0.007680 0.075595
H103  H     H_    0.283352 0.789411 0.507674 0.080803
H104  H     H_    0.283703 0.210847 0.007090 0.079505
H105  H     H_    0.787261 0.220019 0.661010 0.072540
H106  H     H_    0.787161 0.780097 0.161359 0.076788
H107  H     H_    0.286694 0.720341 0.661871 0.076377
H108  H     H_    0.287196 0.279942 0.161084 0.072432
H109  H     H_    0.945561 0.327745 0.016082 0.080864
H110  H     H_    0.946007 0.671952 0.521394 0.075782
H111  H     H_    0.445454 0.827881 0.017153 0.080510
H112  H     H_    0.445546 0.172211 0.516625 0.080570
H113  H     H_    0.974034 0.309527 0.210832 -0.074791
H114  H     H_    0.975181 0.692260 0.713144 -0.047063
H115  H     H_    0.474028 0.809491 0.211633 -0.074144
H116  H     H_    0.474100 0.190513 0.711212 -0.074516
H117  H     H_    0.941783 0.247500 0.927374 0.135951
H118  H     H_    0.941765 0.751261 0.422214 0.157211
H119  H     H_    0.441336 0.747710 0.927841 0.136416
H120  H     H_    0.441618 0.252403 0.427563 0.135983
H121  H     H_    0.971303 0.230007 0.120967 0.113691
H122  H     H_    0.971144 0.770740 0.613671 0.127680
H123  H     H_    0.470931 0.730040 0.121105 0.112960
H124  H     H_    0.471257 0.270002 0.620902 0.113242
H125  H     H_    0.144877 0.473372 0.310153 0.004538
H126  H     H_    0.145374 0.526494 0.810627 0.005066
H127  H     H_    0.645004 0.973420 0.310242 0.004434
H128  H     H_    0.645023 0.026592 0.810239 0.004161
H129  H     H_    0.129648 0.455116 0.106179 0.079440
H130  H     H_    0.129734 0.544854 0.606904 0.079320
H131  H     H_    0.629695 0.955118 0.106346 0.079184
H132  H     H_    0.629677 0.044876 0.606341 0.079054
O1    O     O_2   0.885280 0.436300 0.888260 -0.459381
O2    O     O_2   0.885280 0.563700 0.388260 -0.461330
O3    O     O_2   0.385280 0.936300 0.888260 -0.459325
O4    O     O_2   0.385280 0.063700 0.388260 -0.459354
O5    O     O_3   0.179406 0.487108 0.637695 -0.632815
O6    O     O_3   0.179334 0.512822 0.138027 -0.632717
O7    O     O_3   0.679358 0.987158 0.637870 -0.632166
O8    O     O_3   0.679357 0.012847 0.137868 -0.632444
O9    O     O_3   0.027851 0.301816 0.022624 -0.596292
O10   O     O_3   0.028111 0.698209 0.522121 -0.600664
O11   O     O_3   0.527652 0.801788 0.023024 -0.596288
O12   O     O_3   0.527810 0.198190 0.522759 -0.596320
O13   O     O_3   0.066770 0.522240 0.054830 -0.496591
O14   O     O_3   0.066770 0.477760 0.554830 -0.496990
O15   O     O_3   0.566770 0.022240 0.054830 -0.497212
O16   O     O_3   0.566770 0.977760 0.554830 -0.497298
O17   O     O_3   0.933180 0.477650 0.134870 -0.496808
O18   O     O_3   0.933180 0.522350 0.634870 -0.496439
O19   O     O_3   0.433180 0.977650 0.134870 -0.496982
O20   O     O_3   0.433180 0.022350 0.634870 -0.496988
O21   O     O_3   0.980100 0.397030 0.639600 -0.478838
O22   O     O_3   0.980100 0.602970 0.139600 -0.484915
O23   O     O_3   0.480100 0.897030 0.639600 -0.479484
O24   O     O_3   0.480100 0.102970 0.139600 -0.479150
O25   O     O_2   0.880929 0.364972 0.727396 -0.479373
O26   O     O_2   0.882562 0.636991 0.233361 -0.485385
O27   O     O_2   0.380909 0.865006 0.727611 -0.478714
O28   O     O_2   0.380922 0.135019 0.227464 -0.479322
O29   O     O_3   0.819394 0.486462 0.054195 -0.635207
O30   O     O_3   0.819499 0.513421 0.553998 -0.635477
O31   O     O_3   0.319464 0.986538 0.053999 -0.635231
O32   O     O_3   0.319452 0.013472 0.554008 -0.635257
O33   O     O_3   0.957288 0.303236 0.682908 -0.633094
O34   O     O_3   0.960139 0.697107 0.175077 -0.589231
O35   O     O_3   0.457136 0.803218 0.682714 -0.633435
O36   O     O_3   0.457233 0.196776 0.182776 -0.633377
O37   O     O_2   0.114450 0.435960 0.801790 -0.466983
O38   O     O_2   0.114450 0.564040 0.301790 -0.466634
O39   O     O_2   0.614450 0.935960 0.801790 -0.467026
O40   O     O_2   0.614450 0.064040 0.301790 -0.466925
O41   O     O_3   0.019500 0.396970 0.050670 -0.475478
O42   O     O_3   0.019500 0.603030 0.550670 -0.475709
O43   O     O_3   0.519500 0.896970 0.050670 -0.475579
O44   O     O_3   0.519500 0.103030 0.550670 -0.475593
O45   O     O_2   0.112444 0.357523 0.976907 -0.496642
O46   O     O_2   0.112388 0.642284 0.476177 -0.501031
O47   O     O_2   0.612309 0.857359 0.976611 -0.496907
O48   O     O_2   0.612405 0.142519 0.476733 -0.496676
P1    P     P_3+3 0.879620 0.451210 0.061380 0.971865
P2    P     P_3+3 0.879620 0.548790 0.561380 0.971816
P3    P     P_3+3 0.379620 0.951210 0.061380 0.971862
P4    P     P_3+3 0.379620 0.048790 0.561380 0.971797
P5    P     P_3+3 0.120160 0.450850 0.628590 0.974525
P6    P     P_3+3 0.120160 0.549150 0.128590 0.973215
P7    P     P_3+3 0.620160 0.950850 0.628590 0.974765
P8    P     P_3+3 0.620160 0.049150 0.128590 0.974625
P9    P     P_3+3 0.063161 0.350791 0.089054 0.938784
P10   P     P_3+3 0.063273 0.649180 0.588701 0.933103
P11   P     P_3+3 0.563095 0.850746 0.089079 0.938354
P12   P     P_3+3 0.563159 0.149216 0.589027 0.938627
P13   P     P_3+3 0.929390 0.645825 0.113722 0.949954
P14   P     P_3+3 0.928911 0.354497 0.613054 0.934275
P15   P     P_3+3 0.428888 0.145488 0.113064 0.934194
P16   P     P_3+3 0.428848 0.854536 0.613139 0.934658
O49   O     O_3   0.078638 0.236859 0.575098 -0.763512
H133  H     H_    0.090529 0.206328 0.612134 0.304285
O50   O     O_3   0.003722 0.779901 0.064673 -0.715259
H134  H     H_    0.021904 0.809526 0.088960 0.299627
O51   O     O_3   0.579216 0.737297 0.577595 -0.763705
H135  H     H_    0.590816 0.706597 0.613490 0.303945
O52   O     O_3   0.579004 0.262891 0.076430 -0.763540
H136  H     H_    0.590797 0.293484 0.113025 0.304034

loop_
_geom_bond_atom_site_label_1
_geom_bond_atom_site_label_2
_ccdc_geom_bond_type
C97   C103  A    
C109  H37   S    
C107  H51   S    
C26   C42   A    
Ba3   P7    S    
Ba4   O44   S    
O49   H133  S    
C53   H81   S    
C126  H34   S    
C127  H31   S    
C62   H94   S    
Ba2   O17   S    
C75   C95   A    
C21   C49   A    
C23   C51   A    
C6    C38   A    
C104  H106  S    
C56   C58   A    
C84   C100  A    
C66   C70   A    
C123  H23   S    
Ba2   O42   S    
O3    P3    D    
C43   C79   S    
C77   C81   A    
C91   H123  S    
O37   P5    D    
C90   H54   S    
C54   C60   A    
C125  H33   S    
O31   P3    S    
Ba1   O14   S    
C50   H78   S    
Ba3   O16   S    
C85   C109  A    
C124  H20   S    
C26   C30   A    
C118  H6    S    
O45   P9    D    
Ba2   P6    S    
C106  H50   S    
C25   C41   A    
C11   C15   A    
C10   C34   A    
C37   H73   S    
C11   H63   S    
C64   C68   A    
C34   C134  A    
C29   P1    S    
C88   C112  A    
C11   C35   A    
C108  H52   S    
C12   C36   A    
C83   C99   A    
O15   P8    S    
C90   H122  S    
C133  H57   S    
C30   C50   A    
C58   H92   S    
C112  H40   S    
O12   P12   S    
C52   H80   S    
C19   H67   S    
C40   H76   S    
C41   C77   S    
C80   C84   A    
C36   C96   S    
C113  H129  S    
C115  C119  S    
C115  H131  S    
C2    H46   S    
C5    C37   A    
C116  H132  S    
C136  H60   S    
Ba4   O19   S    
C8    C40   A    
C62   C66   A    
C3    H87   S    
C36   C136  A    
C1    H85   S    
C86   C110  A    
O48   P12   D    
C123  C127  S    
C22   P13   S    
C57   C61   A    
C128  H32   S    
C45   C89   S    
C12   H64   S    
C47   C91   S    
C25   C29   A    
C1    O49   S    
C131  H43   S    
C34   C94   S    
C24   C52   A    
O17   P1    S    
C1    C129  S    
C60   C64   A    
C3    H47   S    
C72   C74   A    
C14   C38   A    
C13   P10   S    
Ba4   P8    S    
O33   P14   S    
C18   H66   S    
C114  C118  S    
C42   C78   S    
Ba3   P3    S    
C117  H9    S    
O40   P8    D    
C73   C93   A    
C98   H102  S    
C106  C110  A    
C46   H110  S    
C4    O52   S    
C121  O29   S    
C131  H3    S    
C127  H27   S    
C92   H124  S    
C3    O51   S    
Ba3   O20   S    
C130  H42   S    
C22   C50   A    
C16   C40   A    
C53   C59   A    
O16   P7    S    
C17   C41   A    
C49   H77   S    
Ba1   O13   S    
C55   C57   A    
Ba4   O15   S    
C19   C43   A    
C58   C62   A    
C20   C44   A    
C46   C90   S    
C51   H79   S    
Ba3   O43   S    
C113  O6    S    
C121  C125  S    
C48   H112  S    
C132  O36   S    
C35   C95   S    
O38   P6    D    
C32   P4    S    
C69   C75   A    
C99   C101  A    
C71   C73   A    
C113  H125  S    
Ba2   O13   S    
C129  H41   S    
Ba3   Ba4   S    
C82   C98   A    
O43   P11   S    
C108  C112  A    
O14   P5    S    
C101  C105  A    
C56   C76   A    
C103  C107  A    
O4    P4    D    
C20   C24   A    
C25   H69   S    
C6    C134  A    
O21   P14   S    
O1    P1    D    
Ba1   O21   S    
O23   P16   S    
Ba3   O23   S    
C130  O34   S    
C60   H90   S    
C90   H118  S    
C10   H62   S    
C45   O9    S    
O10   P10   S    
C117  H5    S    
C30   P2    S    
C5    P6    S    
C7    P8    S    
C27   C43   A    
C66   H98   S    
C87   C95   A    
O39   P7    D    
C114  H130  S    
C79   C83   A    
C116  H128  S    
C4    C132  S    
C1    H45   S    
C47   H115  S    
C72   C80   A    
C100  C102  A    
C81   C97   A    
C119  H15   S    
C4    H48   S    
Ba3   O15   S    
C120  H8    S    
C88   C96   A    
C117  H13   S    
C46   O10   S    
C118  H10   S    
C61   H93   S    
C121  H17   S    
C122  C126  S    
C128  H36   S    
O41   P9    S    
O8    P8    S    
C7    C135  A    
O35   P16   S    
C101  H107  S    
C17   C21   A    
C128  H28   S    
C5    C133  A    
C8    C136  A    
C65   C69   A    
C31   P3    S    
Ba2   O2    S    
C59   H89   S    
C45   H109  S    
C70   C76   A    
C28   C44   A    
Ba2   O22   S    
C70   C78   A    
O11   P11   S    
C15   C39   A    
C35   C135  A    
C4    H88   S    
C119  H11   S    
C54   H82   S    
C6    P5    S    
C53   C73   A    
C55   C75   A    
C115  O8    S    
C116  O7    S    
C78   C82   A    
O44   P12   S    
C104  C108  A    
O5    P5    S    
C67   H99   S    
C46   H114  S    
C130  H2    S    
C126  H26   S    
O50   H134  S    
C122  O30   S    
C92   H120  S    
C132  H44   S    
O24   P15   S    
Ba3   O3    S    
C55   H83   S    
C69   C77   A    
C18   C42   A    
C84   C86   A    
C27   C31   A    
O34   P13   S    
C28   C32   A    
O25   P14   D    
Ba1   O37   S    
C91   H55   S    
Ba3   O39   S    
O28   P15   D    
C89   H53   S    
C114  O5    S    
Ba1   P1    S    
O20   P4    S    
C9    C13   A    
C129  H1    S    
C125  H25   S    
C48   H116  S    
C132  H4    S    
Ba4   O40   S    
C71   C79   A    
O47   P11   D    
C126  H30   S    
C61   C65   A    
C2    H86   S    
C127  H35   S    
C57   H91   S    
C87   C111  A    
Ba1   O18   S    
C63   C67   A    
C54   C74   A    
C21   P14   S    
C92   H56   S    
C23   P16   S    
C18   C22   A    
C102  H108  S    
O6    P6    S    
O52   H136  S    
Ba1   O41   S    
C10   C14   A    
C124  H24   S    
C68   C72   A    
C39   H75   S    
O18   P2    S    
C33   C93   S    
C81   C87   A    
C131  O35   S    
O51   H135  S    
C91   H119  S    
C63   H95   S    
Ba4   O16   S    
C32   C52   A    
C125  H29   S    
C8    P7    S    
O30   P2    S    
C14   P9    S    
C123  O31   S    
C28   H72   S    
C135  H59   S    
C124  O32   S    
C48   O12   S    
Ba1   Ba2   S    
C17   H65   S    
C113  C117  S    
C2    O50   S    
C64   H96   S    
C114  H126  S    
C105  H49   S    
Ba2   P2    S    
C74   C94   A    
C99   H103  S    
C68   H100  S    
C98   C104  A    
C19   C23   A    
O36   P15   S    
C47   H111  S    
C9    C33   A    
C12   C16   A    
Ba2   O14   S    
C120  H12   S    
C33   C133  A    
C76   C96   A    
C118  H14   S    
C47   O11   S    
C56   H84   S    
C89   H121  S    
C122  H18   S    
C29   C49   A    
C59   C63   A    
C31   C51   A    
Ba4   O4    S    
O7    P7    S    
C110  H38   S    
O27   P16   D    
C100  H104  S    
C111  H39   S    
C44   C80   S    
C85   C93   A    
C3    C131  S    
C38   H74   S    
C45   H113  S    
O19   P3    S    
C115  H127  S    
O32   P4    S    
C7    C39   A    
C129  O33   S    
C134  H58   S    
C15   P12   S    
C119  H7    S    
C120  H16   S    
O29   P1    S    
C89   H117  S    
C123  H19   S    
C97   H101  S    
O42   P10   S    
Ba4   P4    S    
O13   P6    S    
C102  C106  A    
C24   P15   S    
C124  C128  S    
Ba1   O1    S    
C103  H105  S    
Ba4   O24   S    
C26   H70   S    
O22   P13   S    
C105  C109  A    
O2    P2    D    
C83   C85   A    
C2    C130  S    
C82   C88   A    
C67   C71   A    
C9    H61   S    
C48   C92   S    
O9    P9    S    
C13   C37   A    
C27   H71   S    
O26   P13   D    
Ba2   O38   S    
C20   H68   S    
C121  H21   S    
O46   P10   D    
C107  C111  A    
C122  H22   S    
C65   H97   S    
C86   C94   A    
Ba1   P5    S    
C116  C120  S    
C16   P11   S    
