data_mof_unit_52990.cif
_audit_creation_date              2012-12-10T17:33:03-0500
_audit_creation_method            fapswitch 2.2
_symmetry_space_group_name_H-M    P1
_symmetry_Int_Tables_number       1
_space_group_crystal_system       triclinic
_cell_length_a                    12.369764
_cell_length_b                    13.276919
_cell_length_c                    14.286514
_cell_angle_alpha                 93.472142
_cell_angle_beta                  107.624373
_cell_angle_gamma                 116.9697
_cell_volume                      1938.15121653

loop_
_atom_site_label
_atom_site_type_symbol
_atom_type_description
_atom_site_fract_x
_atom_site_fract_y
_atom_site_fract_z
_atom_type_partial_charge
C1    C     C_R   0.650602 0.713991 0.508334 0.778842
C2    C     C_R   0.869467 0.530088 0.923790 0.074945
C3    C     C_R   0.843213 0.580430 0.998296 0.132803
C4    C     C_R   0.985805 0.523131 0.952823 0.063984
C5    C     C_R   0.053610 0.535775 0.056237 0.062981
C6    C     C_R   0.017597 0.576248 0.129136 -0.224030
C7    C     C_R   0.917243 0.602473 0.100230 -0.218780
C8    C     C_R   0.042236 0.514283 0.882533 -0.224919
C9    C     C_R   0.153747 0.503785 0.911031 -0.238505
C10   C     C_R   0.211005 0.499996 0.010150 0.165319
C11   C     C_R   0.159519 0.513390 0.083238 0.088240
C12   C     C_R   0.617386 0.515057 0.686506 0.805357
C13   C     C_R   0.320533 0.484756 0.037605 -0.197162
C14   C     C_R   0.377667 0.480007 0.136391 -0.200304
C15   C     C_R   0.214166 0.501881 0.180549 -0.250147
C16   C     C_R   0.145856 0.964246 0.371178 -0.188125
C17   C     C_R   0.250289 0.162215 0.465669 -0.051380
C18   C     C_R   0.727319 0.921333 0.570296 -0.187642
C19   C     C_R   0.816506 0.038286 0.588216 -0.144002
C20   C     C_R   0.918659 0.072783 0.553681 -0.183000
C21   C     C_R   0.930894 0.990100 0.496543 0.079009
C22   C     C_R   0.830406 0.872276 0.467949 0.082527
C23   C     C_R   0.345641 0.285293 0.485628 0.794573
C24   C     C_R   0.038969 0.020461 0.466189 0.072804
C25   C     C_R   0.039055 0.935765 0.400592 0.168349
C26   C     C_R   0.931447 0.824312 0.363313 -0.242655
C27   C     C_R   0.827543 0.793530 0.394863 -0.199333
C28   C     C_R   0.148056 0.132301 0.500143 -0.252858
C29   C     C_R   0.251004 0.077178 0.403373 -0.199222
C30   C     C_R   0.734863 0.837061 0.512578 -0.103515
C31   C     C_R   0.255238 0.686641 0.662412 -0.306060
C32   C     C_R   0.659417 0.341841 0.362012 0.374663
C33   C     C_R   0.739613 0.302514 0.342562 -0.233684
C34   C     C_R   0.382972 0.485302 0.313535 0.793338
C35   C     C_R   0.871722 0.359414 0.398051 -0.247925
C36   C     C_R   0.929019 0.459110 0.474531 -0.004362
C37   C     C_R   0.843793 0.493494 0.498674 0.241043
C38   C     C_R   0.068201 0.525007 0.527908 -0.022433
C39   C     C_R   0.119994 0.621134 0.608279 0.171142
C40   C     C_R   0.036727 0.651755 0.633655 -0.289193
C41   C     C_R   0.902353 0.590302 0.579722 -0.183917
C42   C     C_R   0.159322 0.500868 0.503949 0.009142
C43   C     C_R   0.339047 0.657844 0.635924 0.063792
C44   C     C_R   0.687607 0.528537 0.794046 -0.063640
C45   C     C_R   0.323441 0.486757 0.208036 -0.051326
C46   C     C_R   0.743316 0.608302 0.969850 -0.208251
C47   C     C_R   0.670687 0.587988 0.868105 -0.244473
C48   C     C_R   0.777410 0.487598 0.823400 0.103179
Cu1   Cu    Cu3+1 0.416420 0.526630 0.522910 0.931059
Cu2   Cu    Cu3+1 0.583580 0.473370 0.477090 0.918142
H1    H     H_    0.896446 0.638867 0.157963 0.133687
H2    H     H_    0.362601 0.477468 0.982854 0.135287
H3    H     H_    0.330047 0.098615 0.376607 0.150802
H4    H     H_    0.927588 0.760392 0.309632 0.135352
H5    H     H_    0.146503 0.899828 0.321296 0.136218
H6    H     H_    0.155972 0.198806 0.553151 0.148391
H7    H     H_    0.653787 0.896761 0.603676 0.152181
H8    H     H_    0.984462 0.165014 0.571239 0.128798
H9    H     H_    0.808861 0.102593 0.631958 0.143712
H10   H     H_    0.743992 0.707932 0.358995 0.174461
H11   H     H_    0.443285 0.708353 0.677856 0.118601
H12   H     H_    0.170651 0.501675 0.235568 0.151546
H13   H     H_    0.076153 0.725417 0.695444 0.156010
H14   H     H_    0.296037 0.760099 0.724708 0.139777
H15   H     H_    0.128732 0.430904 0.442532 0.123556
H16   H     H_    0.926639 0.323851 0.377903 0.145332
H17   H     H_    0.700495 0.229045 0.280703 0.150529
H18   H     H_    0.848266 0.622370 0.604374 0.209433
H19   H     H_    0.464532 0.472066 0.156530 0.145402
H20   H     H_    0.194430 0.497416 0.855003 0.148889
H21   H     H_    0.724765 0.649822 0.026096 0.140551
H22   H     H_    0.600047 0.617537 0.847507 0.160994
H23   H     H_    0.071344 0.596380 0.209240 0.145490
H24   H     H_    0.004427 0.521009 0.805903 0.173332
N1    N     N_R   0.290690 0.566960 0.557640 -0.177676
N2    N     N_R   0.709100 0.433710 0.442970 -0.202941
O1    O     O_R   0.545970 0.684450 0.528810 -0.578675
O2    O     O_R   0.687130 0.639470 0.490120 -0.602503
O3    O     O_R   0.519670 0.535100 0.660030 -0.586253
O4    O     O_R   0.660830 0.490120 0.621340 -0.589546
O5    O     O_R   0.312870 0.360530 0.509880 -0.584868
O6    O     O_R   0.454030 0.315550 0.471190 -0.588013
O7    O     O_R   0.339170 0.509880 0.378660 -0.584217
O8    O     O_R   0.480330 0.464900 0.339970 -0.590301
C49   C     C_3   0.523003 0.286183 0.283477 -0.793681
H25   H     H_    0.496804 0.203864 0.234691 0.178813
H26   H     H_    0.446557 0.262260 0.314807 0.252811
H27   H     H_    0.518238 0.344840 0.232650 0.220001
C50   C     C_3   0.754870 0.381359 0.755890 -0.841233
H28   H     H_    0.797578 0.405601 0.697294 0.246136
H29   H     H_    0.796674 0.333007 0.800213 0.228268
H30   H     H_    0.648482 0.319380 0.717978 0.231156

loop_
_geom_bond_atom_site_label_1
_geom_bond_atom_site_label_2
_ccdc_geom_bond_type
C23   O6    A    
C1    O1    A    
C35   C36   A    
C4    C8    A    
C28   H6    S    
Cu2   O8    S    
C49   H25   S    
C43   H11   S    
C42   N1    A    
C17   C23   S    
C40   H13   S    
C31   C43   A    
C36   C37   A    
C5    C11   A    
C3    C7    A    
C27   H10   S    
C38   C39   A    
C12   O3    A    
C26   H4    S    
C17   C29   A    
C18   C19   A    
Cu1   O5    S    
C11   C15   A    
C19   C20   A    
Cu1   O1    S    
C8    C9    A    
C42   H15   S    
Cu1   N1    S    
C18   C30   A    
C50   H29   S    
C23   O5    A    
C9    C10   A    
C44   C47   A    
C13   C14   A    
C1    O2    A    
C34   O8    A    
Cu2   O2    S    
C41   H18   S    
C49   H26   S    
C14   C45   A    
C43   N1    A    
C24   C25   A    
C39   C40   A    
C35   H16   S    
C2    C48   A    
C16   C29   A    
Cu1   O3    S    
C2    C4    A    
Cu2   N2    S    
C13   H2    S    
C18   H7    S    
C8    H24   S    
C26   C27   A    
C34   C45   S    
C9    H20   S    
C50   H30   S    
C46   H21   S    
C40   C41   A    
C37   N2    A    
C22   C27   A    
C14   H19   S    
C34   O7    A    
C15   C45   A    
C20   H8    S    
Cu2   O6    S    
C6    H23   S    
C49   H27   S    
C16   C25   A    
C46   C47   A    
C22   C30   A    
C17   C28   A    
C31   H14   S    
C24   C28   A    
C4    C5    A    
C10   C13   A    
Cu2   O4    S    
C32   N2    A    
C38   C42   A    
C6    C7    A    
C3    C46   A    
C48   C50   S    
C19   H9    S    
C32   C33   A    
Cu1   O7    S    
C36   C38   A    
C2    C3    A    
C25   C26   A    
C16   H5    S    
C7    H1    S    
C12   C44   S    
C33   H17   S    
C5    C6    A    
C29   H3    S    
C32   C49   S    
C12   O4    A    
C1    C30   S    
C33   C35   A    
C15   H12   S    
C31   C39   A    
C37   C41   A    
C47   H22   S    
C10   C11   A    
C20   C21   A    
Cu1   Cu2   S    
C21   C24   A    
C50   H28   S    
C21   C22   A    
C44   C48   A    
