data_mof_unit_15840.cif
_audit_creation_date              2012-12-10T18:58:43-0500
_audit_creation_method            fapswitch 2.2
_symmetry_space_group_name_H-M    P1
_symmetry_Int_Tables_number       1
_space_group_crystal_system       triclinic
_cell_length_a                    10.750541
_cell_length_b                    10.064914
_cell_length_c                    17.534375
_cell_angle_alpha                 90.418398
_cell_angle_beta                  100.252027
_cell_angle_gamma                 88.298462
_cell_volume                      1866.15841699

loop_
_atom_site_label
_atom_site_type_symbol
_atom_type_description
_atom_site_fract_x
_atom_site_fract_y
_atom_site_fract_z
_atom_type_partial_charge
C1    C     C_R   0.261544 0.501712 0.506571 0.988809
C2    C     C_R   0.495796 0.500491 0.645713 0.882554
C3    C     C_R   0.868074 0.497460 0.479657 -0.386858
C4    C     C_R   0.128570 0.503879 0.514859 -0.398234
C5    C     C_R   0.410029 0.613506 0.834552 -0.123618
C6    C     C_R   0.503219 0.386009 0.149697 -0.132498
C7    C     C_R   0.448558 0.621673 0.148808 -0.145858
C8    C     C_R   0.492151 0.386041 0.847846 -0.132505
C9    C     C_R   0.425606 0.613463 0.757619 -0.051987
C10   C     C_R   0.519719 0.385412 0.229986 -0.090089
C11   C     C_R   0.465099 0.620962 0.229011 -0.106065
C12   C     C_R   0.737394 0.498553 0.492052 1.021912
C13   C     C_R   0.507908 0.386307 0.771185 -0.112760
C14   C     C_R   0.478219 0.501031 0.726171 -0.078226
C15   C     C_R   0.496660 0.501844 0.270069 -0.066231
C16   C     C_R   0.581949 0.070693 0.556155 0.290895
C17   C     C_R   0.418619 0.929187 0.443741 0.304333
C18   C     C_R   0.418546 0.074452 0.443076 0.330125
C19   C     C_R   0.580193 0.925658 0.557773 0.345630
C20   C     C_R   0.445052 0.500211 0.879422 0.119166
C21   C     C_R   0.465475 0.503655 0.109565 0.120799
C22   C     C_1   0.443985 0.503706 0.959683 -0.019260
C23   C     C_1   0.450790 0.504467 0.028051 -0.018874
C24   C     C_R   0.067551 0.382211 0.516108 0.301118
C25   C     C_R   0.928211 0.619618 0.478031 0.277304
C26   C     C_R   0.938948 0.377858 0.486911 0.297111
C27   C     C_R   0.057728 0.624591 0.506847 0.318408
C28   C     C_R   0.501207 0.499924 0.353738 0.920568
H1    H     H_    0.372797 0.701921 0.859242 0.163091
H2    H     H_    0.205110 0.670230 0.327921 0.351668
H3    H     H_    0.248331 0.352272 0.312569 0.359983
H4    H     H_    0.745883 0.645717 0.685405 0.359227
H5    H     H_    0.118434 0.069172 0.502441 0.441343
H6    H     H_    0.963781 0.772961 0.334090 0.358148
H7    H     H_    0.705411 0.187922 0.358838 0.385526
H8    H     H_    0.026019 0.914629 0.630017 0.421396
H9    H     H_    0.520071 0.295234 0.119007 0.160430
H10   H     H_    0.422604 0.713737 0.117530 0.166328
H11   H     H_    0.519207 0.298063 0.882886 0.162450
H12   H     H_    0.395491 0.700555 0.722814 0.231606
H13   H     H_    0.550997 0.294477 0.260298 0.213770
H14   H     H_    0.451955 0.713211 0.258606 0.230973
H15   H     H_    0.544345 0.297571 0.747506 0.228914
H16   H     H_    0.786292 0.330098 0.677689 0.367990
N1    N     N_R   0.500000 0.857200 0.500000 -0.214191
N2    N     N_R   0.500000 0.142800 0.500000 -0.220966
O1    O     O_R   0.316770 0.614620 0.500000 -0.527789
O2    O     O_2   0.823640 0.095446 0.620803 -0.170320
O3    O     O_3   0.717965 0.315939 0.632640 -0.545414
O4    O     O_2   0.175895 0.896018 0.394957 -0.192672
O5    O     O_2   0.307815 0.892768 0.294416 -0.270643
O6    O     O_3   0.283092 0.683214 0.366557 -0.557629
O7    O     O_2   0.396914 0.147610 0.294758 -0.333625
O8    O     O_2   0.196597 0.105747 0.332279 -0.130724
O9    O     O_3   0.283541 0.323700 0.366247 -0.522090
O10   O     O_2   0.781089 0.898270 0.687597 -0.171786
O11   O     O_2   0.572651 0.832705 0.699414 -0.314945
O12   O     O_R   0.683230 0.385380 0.500000 -0.529172
O13   O     O_3   0.718858 0.681808 0.632402 -0.513340
O14   O     O_2   0.252850 0.291717 0.630683 -0.272808
O15   O     O_2   0.049561 0.188055 0.617549 -0.235577
O16   O     O_3   0.190480 0.128962 0.515846 -0.475239
O17   O     O_2   0.744263 0.699625 0.360776 -0.335796
O18   O     O_2   0.790041 0.849801 0.471227 -0.176898
O19   O     O_3   0.945809 0.834723 0.375297 -0.417077
O20   O     O_2   0.978705 0.198242 0.380455 -0.200278
O21   O     O_2   0.865870 0.123386 0.480229 -0.186943
O22   O     O_3   0.745797 0.274688 0.370560 -0.573304
O23   O     O_R   0.683230 0.614620 0.500000 -0.520919
O24   O     O_2   0.163261 0.694444 0.649456 -0.337243
O25   O     O_2   0.213808 0.831885 0.545982 -0.240834
O26   O     O_3   0.992662 0.862142 0.583247 -0.413656
O27   O     O_R   0.316770 0.385380 0.500000 -0.507139
O28   O     O_R   0.500010 0.614710 0.389120 -0.554861
O29   O     O_R   0.499990 0.385290 0.610880 -0.546473
O30   O     O_R   0.499990 0.614710 0.610880 -0.560619
O31   O     O_R   0.500010 0.385290 0.389120 -0.566555
O32   O     O_2   0.668037 0.116280 0.706885 -0.280940
S1    S     S_3+6 0.696384 0.152272 0.628860 0.137506
S2    S     S_3+6 0.298652 0.847506 0.374654 0.119282
S3    S     S_3+6 0.323603 0.162955 0.359676 0.147107
S4    S     S_3+6 0.664429 0.836375 0.644350 0.155538
S5    S     S_3+6 0.141497 0.246425 0.573039 0.124454
S6    S     S_3+6 0.847902 0.753143 0.421168 0.122746
S7    S     S_3+6 0.883074 0.238269 0.429702 0.112903
S8    S     S_3+6 0.111256 0.755741 0.572048 0.109508
Zn1   Zn    Zn3+2 0.500000 0.653120 0.500000 1.170634
Zn2   Zn    Zn3+2 0.500000 0.346880 0.500000 1.160272

loop_
_geom_bond_atom_site_label_1
_geom_bond_atom_site_label_2
_ccdc_geom_bond_type
H16   O3    S    
O16   S5    S    
C8    C13   A    
O13   S4    S    
C12   O23   A    
C28   O28   A    
O20   S7    D    
C5    C20   A    
C7    C11   A    
C8    C20   A    
O2    S1    D    
N1    Zn1   S    
C24   S5    S    
C24   C26   A    
C10   C15   A    
C16   C19   A    
C4    C24   A    
O14   S5    D    
C18   S3    S    
C11   H14   S    
O7    S3    D    
O5    S2    D    
O18   S6    D    
C3    C12   S    
C11   C15   A    
O31   Zn2   S    
H5    O16   S    
C25   S6    S    
C8    H11   S    
O28   Zn1   S    
O9    S3    S    
C19   S4    S    
C5    H1    S    
O23   Zn1   S    
C12   O12   A    
C13   C14   A    
C10   H13   S    
O22   S7    S    
C18   N2    A    
H6    O19   S    
N2    Zn2   S    
O21   S7    D    
C3    C25   A    
O15   S5    D    
C16   N2    A    
O32   S1    D    
C1    O1    A    
O19   S6    S    
C7    C21   A    
C6    C21   A    
C17   S2    S    
O3    S1    S    
O4    S2    D    
O1    Zn1   S    
C27   S8    S    
C9    C14   A    
O27   Zn2   S    
C5    C9    A    
O25   S8    D    
C17   C18   A    
C6    H9    S    
C28   O31   A    
O30   Zn1   S    
C20   C22   S    
C21   C23   S    
O24   S8    D    
C13   H15   S    
C4    C27   A    
C2    O30   A    
H2    O6    S    
O11   S4    D    
C3    C26   A    
C17   N1    A    
O12   Zn2   S    
C6    C10   A    
O26   S8    S    
C19   N1    A    
O10   S4    D    
C25   C27   A    
O17   S6    D    
C1    C4    S    
C1    O27   A    
C16   S1    S    
C15   C28   S    
H7    O22   S    
C26   S7    S    
C7    H10   S    
C9    H12   S    
C2    C14   S    
O29   Zn2   S    
C22   C23   T    
H4    O13   S    
H3    O9    S    
O6    S2    S    
O8    S3    D    
C2    O29   A    
H8    O26   S    
