data_mof_unit_27183.cif
_audit_creation_date              2012-12-11T14:44:07-0500
_audit_creation_method            fapswitch 2.2
_symmetry_space_group_name_H-M    P1
_symmetry_Int_Tables_number       1
_space_group_crystal_system       triclinic
_cell_length_a                    18.907253
_cell_length_b                    10.95129
_cell_length_c                    18.804806
_cell_angle_alpha                 90.231352
_cell_angle_beta                  89.816424
_cell_angle_gamma                 89.900444
_cell_volume                      3893.64307266

loop_
_atom_site_label
_atom_site_type_symbol
_atom_type_description
_atom_site_fract_x
_atom_site_fract_y
_atom_site_fract_z
_atom_type_partial_charge
C1    C     C_R   0.731251 0.381210 0.146999 0.529442
C2    C     C_R   0.990316 0.998982 0.037792 -0.113367
C3    C     C_R   0.996875 0.776303 0.038116 0.023814
C4    C     C_R   0.501785 0.053884 0.035910 -0.154375
C5    C     C_R   0.500650 0.054306 0.963082 -0.154049
C6    C     C_R   0.001751 0.553889 0.035921 -0.154383
C7    C     C_R   0.000615 0.554304 0.963092 -0.154049
C8    C     C_1   0.878387 0.913064 0.409579 0.242517
C9    C     C_1   0.155813 0.105772 0.549780 0.351237
C10   C     C_1   0.378495 0.413892 0.409682 0.242609
C11   C     C_1   0.655906 0.605954 0.549758 0.351065
C12   C     C_1   0.836211 0.108100 0.910782 0.225604
C13   C     C_R   0.504765 0.499748 0.965299 -0.115142
C14   C     C_1   0.161943 0.106245 0.089208 0.220707
C15   C     C_1   0.336204 0.608114 0.910778 0.225594
C16   C     C_1   0.661939 0.606231 0.089202 0.220725
C17   C     C_R   0.490277 0.498974 0.037802 -0.113352
C18   C     C_R   0.680166 0.921316 0.029963 -0.133200
C19   C     C_R   0.320123 0.922243 0.970135 -0.131539
C20   C     C_R   0.180162 0.421325 0.029962 -0.133195
C21   C     C_R   0.820117 0.422233 0.970134 -0.131549
C22   C     C_R   0.688686 0.891544 0.958281 -0.158883
C23   C     C_R   0.311518 0.892184 0.041685 -0.159179
C24   C     C_R   0.188682 0.391548 0.958280 -0.158875
C25   C     C_R   0.268703 0.381409 0.852955 0.539600
C26   C     C_R   0.811513 0.392174 0.041683 -0.159180
C27   C     C_R   0.744891 0.941433 0.919301 0.016503
C28   C     C_R   0.254759 0.941032 0.080690 0.015053
C29   C     C_R   0.244889 0.441436 0.919301 0.016501
C30   C     C_R   0.754757 0.441025 0.080688 0.015060
C31   C     C_R   0.785511 0.036581 0.950471 -0.007650
C32   C     C_R   0.213404 0.035293 0.049614 -0.005881
C33   C     C_R   0.285507 0.536590 0.950469 -0.007648
C34   C     C_R   0.713402 0.535285 0.049611 -0.005875
C35   C     C_R   0.778485 0.061474 0.022583 -0.136299
C36   C     C_R   0.231251 0.881211 0.147000 0.529439
C37   C     C_R   0.220435 0.060071 0.977609 -0.135999
C38   C     C_R   0.278481 0.561486 0.022581 -0.136298
C39   C     C_R   0.720434 0.560067 0.977608 -0.136000
C40   C     C_R   0.728626 0.999492 0.063556 0.011876
C41   C     C_R   0.271047 0.999240 0.936582 0.009624
C42   C     C_R   0.228622 0.499503 0.063555 0.011869
C43   C     C_R   0.771044 0.499234 0.936581 0.009623
C44   C     C_R   0.468212 0.076153 0.454720 -0.151695
C45   C     C_R   0.457907 0.070114 0.526896 -0.161625
C46   C     C_R   0.968250 0.576132 0.454733 -0.151806
C47   C     C_R   0.768703 0.881409 0.852954 0.539593
C48   C     C_R   0.957931 0.570117 0.526905 -0.161824
C49   C     C_R   0.485147 0.161203 0.571854 -0.010502
C50   C     C_R   0.505864 0.173373 0.426140 0.002755
C51   C     C_R   0.985175 0.661189 0.571863 -0.010526
C52   C     C_R   0.005897 0.673346 0.426152 0.002898
C53   C     C_R   0.531022 0.155358 0.146915 0.519634
C54   C     C_R   0.468994 0.155591 0.853107 0.531231
C55   C     C_R   0.031020 0.655359 0.146916 0.519676
C56   C     C_R   0.968992 0.655590 0.853109 0.531235
C57   C     C_R   0.520093 0.262189 0.544235 0.229124
C58   C     C_R   0.510002 0.390000 0.927827 -0.070600
C59   C     C_R   0.528514 0.270959 0.470967 0.246828
C60   C     C_R   0.020142 0.762137 0.544245 0.229127
C61   C     C_R   0.028541 0.770932 0.470976 0.246865
C62   C     C_R   0.816493 0.910551 0.454574 -0.070203
C63   C     C_R   0.212285 0.028592 0.523238 -0.042811
C64   C     C_R   0.316536 0.410804 0.454602 -0.070451
C65   C     C_R   0.712336 0.528676 0.523224 -0.042808
C66   C     C_R   0.823571 0.900781 0.527443 -0.112479
C67   C     C_R   0.218048 0.021381 0.450248 -0.121218
C68   C     C_R   0.323580 0.401123 0.527475 -0.112474
C69   C     C_R   0.486669 0.388540 0.074215 -0.070947
C70   C     C_R   0.718095 0.521432 0.450233 -0.121192
C71   C     C_R   0.763118 0.897846 0.571299 -0.010354
C72   C     C_R   0.254663 0.924889 0.419616 -0.030696
C73   C     C_R   0.263112 0.397861 0.571293 -0.010448
C74   C     C_R   0.754672 0.424885 0.419613 -0.030597
C75   C     C_R   0.696104 0.896388 0.542079 -0.100743
C76   C     C_R   0.297308 0.848783 0.461415 -0.104384
C77   C     C_R   0.196121 0.396077 0.542026 -0.100913
C78   C     C_R   0.797288 0.348744 0.461421 -0.104318
C79   C     C_R   0.688325 0.899391 0.469075 0.202537
C80   C     C_R   0.010024 0.889986 0.927822 -0.070601
C81   C     C_R   0.297371 0.860993 0.534819 0.189838
C82   C     C_R   0.188376 0.399060 0.469016 0.202438
C83   C     C_R   0.797352 0.360972 0.534824 0.189870
C84   C     C_R   0.748682 0.917933 0.425115 0.003298
C85   C     C_R   0.253806 0.950118 0.566993 0.028055
C86   C     C_R   0.248731 0.417866 0.425091 0.003282
C87   C     C_R   0.753819 0.450153 0.566986 0.028056
C88   C     C_R   0.726776 0.021575 0.140464 0.560545
C89   C     C_R   0.273091 0.021561 0.859726 0.560918
C90   C     C_R   0.226774 0.521581 0.140464 0.560539
C91   C     C_R   0.986693 0.888555 0.074210 -0.070944
C92   C     C_R   0.773089 0.521555 0.859726 0.560925
C93   C     C_R   0.731562 0.381467 0.350723 0.564941
C94   C     C_R   0.272471 0.374439 0.645899 0.555754
C95   C     C_R   0.231561 0.881467 0.350723 0.564870
C96   C     C_R   0.772475 0.874433 0.645900 0.555731
C97   C     C_R   0.533212 0.158606 0.354278 0.576991
C98   C     C_R   0.465747 0.155971 0.645630 0.576740
C99   C     C_R   0.033221 0.658601 0.354282 0.577068
C100  C     C_R   0.965752 0.655970 0.645633 0.576758
C101  C     C_R   0.740773 0.970377 0.354429 0.571726
C102  C     C_R   0.004802 0.999741 0.965289 -0.115137
C103  C     C_R   0.259688 0.976779 0.643034 0.593858
C104  C     C_R   0.240787 0.470346 0.354417 0.571658
C105  C     C_R   0.759692 0.476795 0.643030 0.593848
C106  C     C_R   0.497617 0.164145 0.925411 0.004283
C107  C     C_R   0.502644 0.163350 0.074553 0.004514
C108  C     C_R   0.997606 0.664139 0.925416 0.004286
C109  C     C_R   0.002635 0.663358 0.074558 0.004510
C110  C     C_R   0.501540 0.276877 0.962851 0.022387
C111  C     C_R   0.496868 0.276296 0.038116 0.023814
C112  C     C_R   0.001546 0.776873 0.962851 0.022384
Cl1   Cl    Cl    0.602012 0.873845 0.437483 -0.553908
Cl2   Cl    Cl    0.346742 0.753618 0.583867 -0.534641
Cl3   Cl    Cl    0.102094 0.373302 0.437371 -0.553826
Cl4   Cl    Cl    0.846680 0.253557 0.583883 -0.534510
Cl5   Cl    Cl    0.555915 0.374788 0.601588 -0.512212
Cl6   Cl    Cl    0.565737 0.407158 0.439157 -0.497920
Cl7   Cl    Cl    0.055982 0.874674 0.601600 -0.512352
Cl8   Cl    Cl    0.065603 0.907249 0.439135 -0.497823
Cr1   Cr    Cr6+3 0.772000 0.169640 0.250110 1.038002
Cr2   Cr    Cr6+3 0.383330 0.010620 0.749160 1.095030
Cr3   Cr    Cr6+3 0.116670 0.510620 0.250840 1.094137
Cr4   Cr    Cr6+3 0.883330 0.510620 0.749160 1.095002
Cr5   Cr    Cr6+3 0.228000 0.169640 0.749890 1.053018
Cr6   Cr    Cr6+3 0.272000 0.669640 0.250110 1.037920
Cr7   Cr    Cr6+3 0.728000 0.669640 0.749890 1.053048
Cr8   Cr    Cr6+3 0.614960 0.323350 0.249260 1.096550
Cr9   Cr    Cr6+3 0.385040 0.323350 0.750740 1.094814
Cr10  Cr    Cr6+3 0.114960 0.823350 0.249260 1.096640
Cr11  Cr    Cr6+3 0.885040 0.823350 0.750740 1.094845
Cr12  Cr    Cr6+3 0.616670 0.010620 0.250840 1.094094
H1    H     H_    0.505135 0.965816 0.061757 0.143400
H2    H     H_    0.326085 0.773064 0.437815 0.187506
H3    H     H_    0.149977 0.389128 0.576049 0.178521
H4    H     H_    0.826036 0.272983 0.437831 0.187528
H5    H     H_    0.522514 0.394922 0.871793 0.154697
H6    H     H_    0.474234 0.392121 0.130332 0.146202
H7    H     H_    0.022534 0.894896 0.871787 0.154697
H8    H     H_    0.974258 0.892149 0.130327 0.146251
H9    H     H_    0.010826 0.085699 0.937736 0.131987
H10   H     H_    0.983136 0.084315 0.066172 0.130694
H11   H     H_    0.510779 0.585714 0.937751 0.131992
H12   H     H_    0.498974 0.966433 0.936440 0.144223
H13   H     H_    0.483085 0.584300 0.066186 0.130680
H14   H     H_    0.637721 0.879137 0.059572 0.158496
H15   H     H_    0.363237 0.881326 0.940581 0.158495
H16   H     H_    0.137715 0.379148 0.059571 0.158504
H17   H     H_    0.863227 0.381313 0.940580 0.158489
H18   H     H_    0.653631 0.825114 0.934480 0.121682
H19   H     H_    0.347096 0.826578 0.065383 0.120291
H20   H     H_    0.153626 0.325114 0.934479 0.121681
H21   H     H_    0.847089 0.326565 0.065380 0.120291
H22   H     H_    0.813261 0.127335 0.047311 0.120186
H23   H     H_    0.005084 0.465824 0.061772 0.143402
H24   H     H_    0.185127 0.125125 0.953020 0.119764
H25   H     H_    0.313258 0.627350 0.047309 0.120184
H26   H     H_    0.685127 0.625121 0.953018 0.119769
H27   H     H_    0.449222 0.002074 0.421507 0.177418
H28   H     H_    0.428183 0.993618 0.547556 0.194784
H29   H     H_    0.949250 0.502069 0.421519 0.177406
H30   H     H_    0.928186 0.493656 0.547562 0.194734
H31   H     H_    0.998921 0.466430 0.936456 0.144227
H32   H     H_    0.876254 0.893908 0.549784 0.181757
H33   H     H_    0.185320 0.080003 0.417428 0.191135
H34   H     H_    0.376261 0.394608 0.549848 0.182117
H35   H     H_    0.685388 0.580077 0.417405 0.190954
H36   H     H_    0.649966 0.889618 0.576129 0.178487
N1    N     N_1   0.925855 0.916463 0.370789 -0.213568
N2    N     N_1   0.109428 0.164727 0.571021 -0.160559
N3    N     N_1   0.426038 0.417851 0.370972 -0.212852
N4    N     N_1   0.609555 0.664990 0.570994 -0.160670
N5    N     N_1   0.876761 0.164765 0.878667 -0.296118
N6    N     N_1   0.120781 0.162553 0.121167 -0.310189
N7    N     N_1   0.376753 0.664784 0.878662 -0.296119
N8    N     N_1   0.620775 0.662534 0.121158 -0.310211
O1    O     O_R   0.787540 0.042690 0.170470 -0.516330
O2    O     O_R   0.454130 0.051100 0.669160 -0.503759
O3    O     O_R   0.045870 0.551100 0.330840 -0.468535
O4    O     O_R   0.954130 0.551100 0.669160 -0.503783
O5    O     O_R   0.681340 0.959300 0.325510 -0.438844
O6    O     O_R   0.318660 0.959300 0.674490 -0.451152
O7    O     O_R   0.181340 0.459300 0.325510 -0.438767
O8    O     O_R   0.818660 0.459300 0.674490 -0.451179
O9    O     O_3   0.667880 0.167870 0.250070 -0.291961
O10   O     O_3   0.332120 0.167870 0.749930 -0.311110
O11   O     O_3   0.167880 0.667870 0.250070 -0.291994
O12   O     O_R   0.212460 0.042690 0.829530 -0.504329
O13   O     O_3   0.832120 0.667870 0.749930 -0.311136
O14   O     O_R   0.765660 0.292160 0.175050 -0.530514
O15   O     O_R   0.234340 0.292160 0.824950 -0.526525
O16   O     O_R   0.265660 0.792160 0.175050 -0.530510
O17   O     O_R   0.734340 0.792160 0.824950 -0.526527
O18   O     O_R   0.670190 0.408980 0.168550 -0.497966
O19   O     O_R   0.329810 0.408980 0.831450 -0.491381
O20   O     O_R   0.170190 0.908980 0.168550 -0.497962
O21   O     O_R   0.829810 0.908980 0.831450 -0.491385
O22   O     O_R   0.556580 0.251450 0.175160 -0.513258
O23   O     O_R   0.287540 0.542690 0.170470 -0.516362
O24   O     O_R   0.443420 0.251450 0.824840 -0.507263
O25   O     O_R   0.056580 0.751450 0.175160 -0.513235
O26   O     O_R   0.943420 0.751450 0.824840 -0.507259
O27   O     O_R   0.545920 0.049510 0.170320 -0.530462
O28   O     O_R   0.454080 0.049510 0.829680 -0.524777
O29   O     O_R   0.045920 0.549510 0.170320 -0.530446
O30   O     O_R   0.954080 0.549510 0.829680 -0.524777
O31   O     O_R   0.681390 0.957840 0.176710 -0.490298
O32   O     O_R   0.318610 0.957840 0.823290 -0.477215
O33   O     O_R   0.181390 0.457840 0.176710 -0.490285
O34   O     O_R   0.712460 0.542690 0.829530 -0.504331
O35   O     O_R   0.818610 0.457840 0.823290 -0.477220
O36   O     O_R   0.787500 0.044280 0.330990 -0.503170
O37   O     O_R   0.212500 0.044280 0.669010 -0.491981
O38   O     O_R   0.287500 0.544280 0.330990 -0.503295
O39   O     O_R   0.712500 0.544280 0.669010 -0.491918
O40   O     O_R   0.765610 0.293630 0.323860 -0.513740
O41   O     O_R   0.234390 0.293630 0.676140 -0.515386
O42   O     O_R   0.265610 0.793630 0.323860 -0.513715
O43   O     O_R   0.734390 0.793630 0.676140 -0.515385
O44   O     O_R   0.670140 0.410570 0.329080 -0.447267
O45   O     O_R   0.556540 0.252920 0.323970 -0.444262
O46   O     O_R   0.329860 0.410570 0.670920 -0.469023
O47   O     O_R   0.170140 0.910570 0.329080 -0.447343
O48   O     O_R   0.829860 0.910570 0.670920 -0.468899
O49   O     O_R   0.443460 0.252920 0.676030 -0.461555
O50   O     O_R   0.056540 0.752920 0.323970 -0.444110
O51   O     O_R   0.943460 0.752920 0.676030 -0.461558
O52   O     O_R   0.545870 0.051100 0.330840 -0.468389

loop_
_geom_bond_atom_site_label_1
_geom_bond_atom_site_label_2
_ccdc_geom_bond_type
Cr6   O23   S    
C83   C87   A    
C21   C26   A    
C22   H18   S    
C17   C69   A    
C105  O39   A    
C46   C52   A    
C103  O6    A    
C92   O34   A    
C74   C93   S    
C35   H22   S    
C72   C76   A    
C30   C34   A    
C86   C104  S    
C9    C63   S    
Cr7   O43   S    
C88   O1    A    
C44   C45   A    
C19   C41   A    
C53   O27   A    
C60   C61   A    
Cr5   O12   S    
C50   C59   A    
C64   C68   A    
Cr6   O11   S    
Cr11  O21   S    
Cr8   O18   S    
C82   Cl3   S    
C38   C42   A    
Cr10  O20   S    
C52   C61   A    
Cr12  O52   S    
C79   C84   A    
C57   C59   A    
C89   O32   A    
C56   O26   A    
C2    C102  A    
C27   C47   S    
C65   C70   A    
C55   O25   A    
C29   C33   A    
C69   H6    S    
C95   O42   A    
C49   C57   A    
Cr3   O29   S    
C60   Cl7   S    
C3    C91   A    
C67   C72   A    
Cr1   O36   S    
Cr2   O28   S    
Cr11  O26   S    
C18   C40   A    
C24   C29   A    
C56   C108  S    
Cr3   O7    S    
C24   H20   S    
C16   C34   S    
C49   C98   S    
C21   C43   A    
C72   C95   S    
Cr5   O37   S    
C78   C83   A    
C48   C51   A    
C20   C24   A    
C96   O48   A    
C46   H29   S    
C81   Cl2   S    
C70   C74   A    
Cr6   O42   S    
C20   H16   S    
Cr11  O48   S    
C102  H9    S    
C21   H17   S    
C98   O2    A    
C18   C22   A    
Cr6   O38   S    
Cr8   O44   S    
C6    H23   S    
C25   O19   A    
C96   O43   A    
C81   C85   A    
C98   O49   A    
Cr8   O9    S    
C1    O14   A    
C16   N8    T    
C11   N4    T    
C58   C110  A    
Cr9   O10   S    
C63   C85   A    
C61   Cl8   S    
C37   C41   A    
C84   C101  S    
C37   H24   S    
C9    N2    T    
C45   H28   S    
C73   C94   S    
C54   O24   A    
C64   C86   A    
Cr4   O13   S    
Cr9   O19   S    
C65   C87   A    
C63   C67   A    
C5    C106  A    
Cr11  O13   S    
C101  O36   A    
C25   C29   S    
C55   O29   A    
C4    C107  A    
C46   C48   A    
C54   C106  S    
C27   C31   A    
C34   C39   A    
Cr9   O24   S    
Cr1   O40   S    
Cr2   O32   S    
Cr8   O22   S    
C28   C32   A    
Cr3   O3    S    
C25   O15   A    
Cr1   O14   S    
C62   C66   A    
Cr10  O11   S    
Cr9   O46   S    
C5    H12   S    
Cr1   O1    S    
C71   C96   S    
C10   N3    T    
C82   C86   A    
C7    H31   S    
C56   O30   A    
C94   O41   A    
C19   H15   S    
C110  C111  A    
C80   C102  A    
Cr5   O10   S    
C42   C90   S    
Cr1   O9    S    
C76   C81   A    
C100  O51   A    
C19   C23   A    
C36   O20   A    
C99   O3    A    
Cr11  O51   S    
Cr12  O5    S    
C53   C107  S    
Cr7   O34   S    
C66   C71   A    
C87   C105  S    
C45   C49   A    
C3    C112  A    
C80   C112  A    
C66   H32   S    
Cr5   O15   S    
Cr7   O13   S    
C32   C37   A    
Cr6   O16   S    
C28   C36   S    
C75   H36   S    
Cr10  O25   S    
C58   H5    S    
C26   C30   A    
C59   Cl6   S    
C22   C27   A    
C93   O44   A    
C39   H26   S    
C17   H13   S    
C2    H10   S    
C89   O12   A    
C31   C35   A    
C4    H1    S    
C23   C28   A    
C53   O22   A    
C88   O31   A    
C100  O4    A    
C101  O5    A    
C8    N1    T    
C57   Cl5   S    
C104  O7    A    
C106  C110  A    
C44   C50   A    
C51   C100  S    
Cr2   O2    S    
C62   C84   A    
Cr10  O47   S    
Cr12  O27   S    
C76   H2    S    
C50   C97   S    
Cr7   O17   S    
Cr4   O30   S    
C41   C89   S    
C36   O16   A    
C107  C111  A    
C83   Cl4   S    
C47   O17   A    
C10   C64   S    
C103  O37   A    
C43   C92   S    
C38   H25   S    
C14   C32   S    
C4    C5    A    
C18   H14   S    
C85   C103  S    
Cr8   O45   S    
Cr12  O9    S    
C90   O33   A    
C20   C42   A    
Cr4   O8    S    
C6    C7    A    
C13   C58   A    
Cr4   O35   S    
C13   C17   A    
C80   H7    S    
C52   C99   S    
C33   C38   A    
C15   N7    T    
C40   C88   S    
C79   Cl1   S    
C35   C40   A    
C68   C73   A    
C104  O38   A    
C12   C31   S    
C70   H35   S    
C71   C75   A    
C69   C111  A    
C67   H33   S    
C78   H4    S    
C77   C82   A    
C3    C109  A    
C54   O28   A    
Cr3   O33   S    
C1    C30   S    
C6    C109  A    
C97   O45   A    
C1    O18   A    
C13   H11   S    
C105  O8    A    
Cr3   O11   S    
C2    C91   A    
C95   O47   A    
Cr4   O4    S    
C99   O50   A    
Cr2   O10   S    
Cr5   O41   S    
C26   H21   S    
C23   H19   S    
C91   H8    S    
Cr7   O39   S    
C108  C112  A    
Cr2   O6    S    
C97   O52   A    
C48   H30   S    
Cr10  O50   S    
Cr12  O31   S    
C14   N6    T    
C74   C78   A    
C39   C43   A    
Cr9   O49   S    
C90   O23   A    
C94   O46   A    
C44   H27   S    
C73   C77   A    
C7    C108  A    
C47   O21   A    
C92   O35   A    
C51   C60   A    
C77   H3    S    
C75   C79   A    
C15   C33   S    
C55   C109  S    
C11   C65   S    
C8    C62   S    
C12   N5    T    
C93   O40   A    
C68   H34   S    
