data_mof_unit_40940.cif
_audit_creation_date              2013-03-05T15:53:43-0500
_audit_creation_method            fapswitch 2.2
_symmetry_space_group_name_H-M    P1
_symmetry_Int_Tables_number       1
_space_group_crystal_system       triclinic
_cell_length_a                    15.101041
_cell_length_b                    14.809157
_cell_length_c                    17.024877
_cell_angle_alpha                 109.014003
_cell_angle_beta                  106.406732
_cell_angle_gamma                 108.66684
_cell_volume                      3076.00284452

loop_
_atom_site_label
_atom_site_type_symbol
_atom_site_description
_atom_site_fract_x
_atom_site_fract_y
_atom_site_fract_z
_atom_type_partial_charge
C1    C     C_R   0.087553 0.271605 0.027605 -0.139967
H1    H     H_    0.165772 0.283267 0.056140 0.101830
N1    N     N_R   0.055640 0.348550 0.045600 -0.039389
C2    C     C_R   0.934396 0.458207 0.733902 -0.132054
H2    H     H_    0.855716 0.408969 0.681636 0.105316
N2    N     N_R   0.960830 0.507850 0.823710 -0.042239
C3    C     C_R   0.719998 0.214315 0.822673 -0.141421
H3    H     H_    0.689123 0.161609 0.849936 0.086695
N3    N     N_R   0.811290 0.303400 0.871650 -0.040802
C4    C     C_R   0.269432 0.545290 0.960001 -0.136524
H4    H     H_    0.290354 0.586915 0.922554 0.110094
N4    N     N_R   0.205180 0.552990 0.997660 -0.040892
C5    C     C_R   0.727746 0.310444 0.746535 -0.150137
H5    H     H_    0.705850 0.348462 0.705358 0.093357
N5    N     N_R   0.814810 0.361830 0.823710 -0.040621
C6    C     C_R   0.270093 0.456101 0.042503 -0.147773
H6    H     H_    0.295976 0.420540 0.084447 0.116895
N6    N     N_R   0.201660 0.494570 0.045600 -0.038941
C7    C     C_R   0.106946 0.551472 0.809338 -0.127225
H7    H     H_    0.185824 0.596802 0.823331 0.083754
N7    N     N_R   0.068420 0.560530 0.871650 -0.040601
C8    C     C_R   0.915482 0.191029 0.949354 -0.129542
H8    H     H_    0.836622 0.133305 0.900814 0.105379
N8    N     N_R   0.948050 0.295860 0.997660 -0.042652
C9    C     C_R   0.001138 0.172801 0.965205 0.093705
C10   C     C_R   0.025437 0.480597 0.722989 0.066000
C11   C     C_R   0.665072 0.216746 0.743509 0.074049
C12   C     C_R   0.305916 0.478212 0.981304 0.086093
C13   C     C_R   0.217683 0.702780 0.265155 -0.154884
H9    H     H_    0.224886 0.676629 0.317723 0.150286
N9    N     N_R   0.185190 0.638170 0.176290 -0.045598
C14   C     C_R   0.707605 0.503632 0.920531 -0.022435
H10   H     H_    0.684847 0.528306 0.868084 0.074179
N10   N     N_R   0.798340 0.505430 0.954400 -0.049101
C15   C     C_R   0.891474 0.396212 0.175226 -0.124150
H11   H     H_    0.810958 0.339722 0.147069 0.089871
N11   N     N_R   0.931580 0.439470 0.128350 -0.040683
C16   C     C_R   0.082371 0.805905 0.015851 -0.139482
H12   H     H_    0.161462 0.863503 0.039814 0.094894
N12   N     N_R   0.051950 0.704140 0.002340 -0.042193
C17   C     C_R   0.910882 0.722076 0.944132 -0.095244
H13   H     H_    0.831132 0.701768 0.905141 0.097923
N13   N     N_R   0.944360 0.651450 0.954400 -0.044381
C18   C     C_R   0.063623 0.478328 0.251760 -0.141935
H14   H     H_    0.141537 0.496926 0.294202 0.096087
N14   N     N_R   0.039170 0.492150 0.176290 -0.043082
C19   C     C_R   0.222780 0.798884 0.188192 -0.107264
H15   H     H_    0.234768 0.863805 0.170736 0.093799
N15   N     N_R   0.188710 0.696600 0.128350 -0.045389
C20   C     C_R   0.700779 0.410322 0.000117 -0.142986
H16   H     H_    0.672009 0.352111 0.023377 0.093458
N16   N     N_R   0.794820 0.447010 0.002340 -0.042267
Ni1   Ni    Ni4+2 0.119330 0.493420 0.109950 0.214393
Ni2   Ni    Ni4+2 0.880670 0.506580 0.890050 0.211733
Ni3   Ni    Ni4+2 0.872590 0.372590 0.000000 0.207354
Ni4   Ni    Ni4+2 0.127410 0.627410 0.000000 0.215351
C21   C     C_R   0.237371 0.804987 0.274603 0.118299
C22   C     C_R   0.644778 0.444988 0.948329 0.086344
C23   C     C_R   0.972589 0.417203 0.252533 0.105240
C24   C     C_R   0.996070 0.821363 0.982548 0.072979
C25   C     C_R   0.418989 0.495302 0.903347 0.037575
C26   C     C_R   0.368410 0.439222 0.942614 0.022162
C27   C     C_R   0.385491 0.351130 0.946275 0.304621
C28   C     C_R   0.472276 0.343923 0.936465 -0.221599
H17   H     H_    0.493198 0.284791 0.949042 0.137706
C29   C     C_R   0.537872 0.420983 0.921520 -0.007468
C30   C     C_R   0.503454 0.487137 0.894092 -0.030152
C31   C     C_3   0.558349 0.604049 0.918836 0.402224
C32   C     C_3   0.464256 0.612434 0.927385 -0.615698
H18   H     H_    0.571031 0.617708 0.861616 0.074830
H19   H     H_    0.479571 0.665265 0.998444 0.215006
H20   H     H_    0.420918 0.627841 0.872700 0.166594
C33   C     C_R   0.964168 0.374351 0.317887 0.099312
C34   C     C_R   0.034168 0.437509 0.636585 0.091758
C35   C     C_R   0.138324 0.446648 0.552029 -0.167529
C36   C     C_R   0.131628 0.468306 0.635141 -0.161279
C37   C     C_R   0.944206 0.370211 0.553846 -0.208981
C38   C     C_R   0.949601 0.352739 0.470373 0.077069
C39   C     C_R   0.047753 0.396744 0.470624 0.110027
C40   C     C_R   0.054090 0.402904 0.392847 -0.264018
C41   C     C_R   0.866704 0.316852 0.312682 -0.357704
C42   C     C_R   0.858668 0.303877 0.388631 0.506987
H21   H     H_    0.129923 0.442091 0.396172 0.129933
H22   H     H_    0.796424 0.288534 0.252812 0.125964
H23   H     H_    0.214037 0.477818 0.552481 0.126023
H24   H     H_    0.202875 0.514306 0.697771 0.112488
H25   H     H_    0.869087 0.340503 0.554132 0.173412
C43   C     C_R   0.556562 0.144054 0.676025 0.097032
C44   C     C_R   0.275116 0.902796 0.360532 -0.077184
C45   C     C_R   0.389550 0.094474 0.445091 0.521190
C46   C     C_R   0.317505 0.003114 0.362251 -0.394421
C47   C     C_R   0.287044 0.898442 0.444521 0.420589
C48   C     C_R   0.368540 0.985366 0.526113 0.016653
C49   C     C_R   0.422407 0.082384 0.525222 -0.003613
C50   C     C_R   0.513710 0.162200 0.601666 -0.169994
C51   C     C_R   0.498079 0.052161 0.680311 -0.214668
C52   C     C_R   0.403215 0.974315 0.606582 -0.103492
H26   H     H_    0.555677 0.234030 0.598480 0.169232
H27   H     H_    0.527342 0.037329 0.738098 0.118921
H28   H     H_    0.362229 0.901695 0.609761 0.171257
H29   H     H_    0.301714 0.010159 0.299162 0.146868
C53   C     C_R   0.047887 0.075767 0.847823 0.096920
C54   C     C_R   0.999210 0.073258 0.906647 -0.025695
C55   C     C_R   0.931903 0.971602 0.893382 0.266760
C56   C     C_R   0.911363 0.877250 0.818818 -0.229446
H30   H     H_    0.856540 0.799510 0.805049 0.137433
C57   C     C_R   0.954088 0.882788 0.756480 -0.001525
C58   C     C_R   0.026905 0.982046 0.775097 0.155404
C59   C     C_3   0.026501 0.031092 0.711361 -0.466266
C60   C     C_3   0.046792 0.132763 0.789332 -0.466884
H31   H     H_    0.092675 0.039617 0.692893 0.198500
H32   H     H_    0.949481 0.993048 0.651992 0.199687
H33   H     H_    0.122768 0.200450 0.812326 0.205129
H34   H     H_    0.980648 0.152543 0.775779 0.202848
C61   C     C_3   0.321091 0.268879 0.966764 -1.075681
H35   H     H_    0.362484 0.286459 0.039254 0.254703
H36   H     H_    0.244296 0.265596 0.954243 0.254402
H37   H     H_    0.306988 0.187749 0.920467 0.262010
O1    O     O_3   0.648012 0.665865 0.003342 -0.735705
H38   H     H_    0.633129 0.645504 0.050050 0.331854
O2    O     O_3   0.763295 0.253287 0.387113 -0.763602
H39   H     H_    0.708065 0.224383 0.324651 0.318762
O3    O     O_3   0.436140 0.192916 0.447368 -0.763625
H40   H     H_    0.404092 0.186790 0.385169 0.317595
O4    O     O_3   0.225432 0.809565 0.448154 -0.780393
H41   H     H_    0.156786 0.773386 0.394700 0.319707
C62   C     C_3   0.877277 0.962683 0.954280 -0.968684
H42   H     H_    0.935164 0.004837 0.027390 0.254101
H43   H     H_    0.823015 0.998171 0.946110 0.241828
H44   H     H_    0.830714 0.877904 0.936601 0.248727

loop_
_geom_bond_atom_site_label_1
_geom_bond_atom_site_label_2
_geom_bond_distance
_ccdc_geom_bond_type
C6    C12   1.383010 A    
C43   C51   1.403215 A    
C48   C49   1.413953 A    
C36   H24   1.080754 S    
C17   H13   1.080702 S    
C7    H7    1.072310 S    
C14   C22   1.368335 A    
C47   O4    1.379675 S    
C52   H28   1.083198 S    
C41   C42   1.399703 A    
C50   H26   1.077761 S    
O3    H40   0.991745 S    
C19   N15   1.340358 A    
C37   C38   1.390137 A    
N8    Ni3   1.848328 S    
C56   C57   1.399647 A    
C26   C27   1.425357 A    
C21   C44   1.477447 S    
C15   N11   1.331124 A    
C46   H29   1.079658 S    
C59   H31   1.111761 S    
C31   O1    1.410381 S    
C16   H12   1.079977 S    
C18   C23   1.389530 A    
C25   C32   1.504668 S    
C61   H35   1.110075 S    
C51   H27   1.081094 S    
C3    C11   1.387423 A    
C58   C59   1.489184 S    
C15   C23   1.381394 A    
C1    H1    1.073142 S    
C45   O3    1.383116 S    
C32   H19   1.112898 S    
C7    C10   1.386803 A    
C25   C30   1.366095 A    
N6    Ni1   1.874641 S    
C53   C54   1.402599 A    
C22   C29   1.432340 S    
N12   N13   1.392521 A    
C15   H11   1.079953 S    
C6    H6    1.076648 S    
C61   H36   1.100083 S    
C34   C37   1.400205 A    
C20   N16   1.332555 A    
C57   C58   1.391098 A    
C53   C58   1.391723 A    
N3    Ni3   1.863568 S    
C44   C46   1.403580 A    
C23   C33   1.464655 S    
C42   O2    1.382697 S    
N16   Ni3   1.849806 S    
C27   C61   1.503770 S    
C29   C30   1.391012 A    
C43   C50   1.401359 A    
C5    H5    1.078491 S    
C1    C9    1.397926 A    
C17   N13   1.337071 A    
N1    N8    1.392520 A    
C11   C43   1.471506 S    
N9    N15   1.368557 A    
C40   H21   1.080714 S    
C33   C41   1.405003 A    
C55   C56   1.415772 A    
C18   N14   1.334495 A    
C45   C49   1.404625 A    
C30   C31   1.506979 S    
C20   C22   1.381198 A    
N5    Ni2   1.811916 S    
C3    H3    1.080465 S    
C2    N2    1.331347 A    
C59   H32   1.112290 S    
C38   C39   1.413467 A    
C31   C32   1.507824 S    
N12   Ni4   1.848328 S    
N2    N7    1.392521 A    
C8    C9    1.375726 A    
C27   C28   1.399427 A    
C1    N1    1.353512 A    
C28   C29   1.398665 A    
C32   H20   1.112181 S    
C35   C36   1.386040 A    
C62   H43   1.107196 S    
C13   H9    1.077301 S    
C19   C21   1.392280 A    
C38   C42   1.405053 A    
N13   Ni2   1.811189 S    
C19   H15   1.072655 S    
C61   H37   1.111052 S    
C51   C52   1.393175 A    
C20   H16   1.081007 S    
C49   C50   1.390195 A    
N9    Ni1   1.811915 S    
C44   C47   1.415344 A    
C60   H33   1.108494 S    
O2    H39   0.991722 S    
N4    Ni4   1.849808 S    
C4    N4    1.319126 A    
C16   C24   1.389397 A    
C6    N6    1.335418 A    
C13   C21   1.389786 A    
N2    Ni2   1.874264 S    
C5    N5    1.328985 A    
O4    H41   0.991799 S    
C8    N8    1.333859 A    
C53   C60   1.500562 S    
C34   C36   1.404533 A    
C62   H42   1.110332 S    
C48   C52   1.404814 A    
C41   H22   1.080105 S    
C18   H14   1.079321 S    
C35   H23   1.084089 S    
C4    C12   1.376255 A    
C3    N3    1.343835 A    
C60   H34   1.112590 S    
C7    N7    1.337068 A    
C9    C54   1.471856 S    
C17   C24   1.389921 A    
C2    H2    1.077296 S    
N7    Ni4   1.864066 S    
C2    C10   1.388248 A    
O1    H38   0.993766 S    
N10   Ni2   1.874644 S    
N15   Ni4   1.863565 S    
C56   H30   1.081745 S    
N10   N16   1.368438 A    
C14   H10   1.080990 S    
N3    N5    1.368558 A    
C62   H44   1.109235 S    
C13   N9    1.334934 A    
C59   C60   1.515108 S    
C28   H17   1.083316 S    
C16   N12   1.344034 A    
N1    Ni1   1.811190 S    
C45   C46   1.396734 A    
C55   C62   1.508462 S    
N14   Ni1   1.874267 S    
C47   C48   1.398658 A    
C10   C34   1.462954 S    
C33   C40   1.397597 A    
C25   C26   1.401496 A    
C4    H4    1.063692 S    
C39   C40   1.384027 A    
N11   Ni3   1.864063 S    
C37   H25   1.079559 S    
C31   H18   1.111562 S    
N4    N6    1.368439 A    
C54   C55   1.421170 A    
C8    H8    1.078857 S    
C5    C11   1.381673 A    
N11   N14   1.392521 A    
C35   C39   1.397262 A    
C14   N10   1.315657 A    
C12   C26   1.452607 S    
