data_mof_unit_37387.cif
_audit_creation_date              2013-03-05T16:41:04-0500
_audit_creation_method            fapswitch 2.2
_symmetry_space_group_name_H-M    P1
_symmetry_Int_Tables_number       1
_space_group_crystal_system       triclinic
_cell_length_a                    8.629573
_cell_length_b                    10.77441
_cell_length_c                    9.904459
_cell_angle_alpha                 88.918903
_cell_angle_beta                  98.025241
_cell_angle_gamma                 92.815153
_cell_volume                      910.715962263

loop_
_atom_site_label
_atom_site_type_symbol
_atom_site_description
_atom_site_fract_x
_atom_site_fract_y
_atom_site_fract_z
_atom_type_partial_charge
O1    O     O_R   0.500020 0.316790 0.614690 -0.627529
O2    O     O_R   0.500000 0.316760 0.385350 -0.638907
C1    C     C_R   0.500834 0.259770 0.500919 0.892799
O3    O     O_R   0.271760 0.500010 0.587850 -0.633935
O4    O     O_R   0.271740 0.499970 0.358500 -0.611928
C2    C     C_R   0.201753 0.491676 0.465382 0.954982
Zn1   Zn    Zn3+2 0.500010 0.500020 0.653130 1.006704
Zn2   Zn    Zn3+2 0.499990 0.499980 0.346870 0.956283
O5    O     O_R   0.500000 0.683240 0.614650 -0.582017
O6    O     O_R   0.499980 0.683210 0.385310 -0.629367
O7    O     O_R   0.728260 0.500030 0.641500 -0.563350
O8    O     O_R   0.728240 0.499990 0.412150 -0.621199
C3    C     C_R   0.506869 0.739825 0.499590 0.907114
C4    C     C_R   0.798094 0.495273 0.535275 0.962839
C5    C     C_2   0.038665 0.462007 0.451272 0.011032
C6    C     C_2   0.963133 0.495683 0.553064 -0.422128
H1    H     H_    0.023156 0.540081 0.644890 0.197222
C7    C     C_R   0.555742 0.061441 0.622495 0.011323
C8    C     C_R   0.516634 0.128027 0.501415 -0.056704
C9    C     C_R   0.509532 0.066317 0.376536 -0.184363
H2    H     H_    0.489589 0.115302 0.279656 0.174054
C10   C     C_R   0.515697 0.938165 0.375292 -0.194720
H3    H     H_    0.497075 0.891535 0.278006 0.184555
C11   C     C_R   0.531167 0.871666 0.499091 -0.070956
C12   C     C_R   0.569228 0.935406 0.621104 0.064616
C13   C     C_3   0.517801 0.914150 0.758026 -0.418287
C14   C     C_3   0.496447 0.053116 0.759199 0.416239
H4    H     H_    0.406724 0.856369 0.753237 0.216741
H5    H     H_    0.611999 0.883262 0.837205 0.229184
C15   C     C_R   0.371688 0.456102 0.055665 0.218467
N1    N     N_R   0.498950 0.499140 0.142680 -0.126792
C16   C     C_R   0.615551 0.560709 0.085373 -0.224022
H6    H     H_    0.703740 0.614473 0.149801 0.172216
C17   C     C_R   0.621309 0.555309 0.942654 0.323013
N2    N     N_R   0.498950 0.499180 0.857030 -0.173056
C18   C     C_R   0.367053 0.465408 0.913035 0.123811
C19   C     C_3   0.278694 0.345388 0.890493 -0.384495
C20   C     C_3   0.303188 0.325634 0.043947 -0.477367
H7    H     H_    0.154421 0.358186 0.847132 0.223180
H8    H     H_    0.340454 0.284747 0.831489 0.242951
H9    H     H_    0.191748 0.308394 0.085439 0.214542
H10   H     H_    0.391932 0.256124 0.078084 0.208072
N3    N     N_2   0.969032 0.384591 0.341419 -0.311348
H11   H     H_    0.874790 0.326905 0.359095 0.246942
C21   C     C_3   0.954167 0.444135 0.208964 -0.605000
H12   H     H_    0.864413 0.392809 0.136882 0.224990
H13   H     H_    0.066436 0.446859 0.168377 0.252329
H14   H     H_    0.924969 0.542123 0.217102 0.246253
N4    N     N_R   0.758055 0.606117 0.890913 0.221931
O9    O     O_R   0.748186 0.697842 0.803894 -0.393350
O10   O     O_R   0.896092 0.571919 0.943636 -0.449013
N5    N     N_R   0.329770 0.076109 0.757151 0.180140
O11   O     O_R   0.262542 0.046727 0.863864 -0.398629
O12   O     O_R   0.243867 0.113133 0.646536 -0.419831
N6    N     N_2   0.597843 0.116797 0.870384 -0.323775
H15   H     H_    0.557026 0.198310 0.900511 0.224661
C22   C     C_3   0.765653 0.127060 0.866924 -0.728960
H16   H     H_    0.825779 0.162136 0.966322 0.244295
H17   H     H_    0.792735 0.193824 0.785598 0.244555
H18   H     H_    0.812184 0.035497 0.849175 0.272994

loop_
_geom_bond_atom_site_label_1
_geom_bond_atom_site_label_2
_geom_bond_distance
_ccdc_geom_bond_type
O4    Zn2   1.989049 S    
N6    H15   1.026679 S    
C11   C12   1.392220 A    
C1    C8    1.432482 S    
C19   C20   1.517403 S    
C4    C6    1.410249 S    
C13   H4    1.112854 S    
N2    C18   1.365143 A    
C15   C18   1.409456 A    
Zn2   O8    1.985484 S    
C16   H6    1.075631 S    
N4    O10   1.299838 A    
C21   H13   1.098464 S    
O2    C1    1.287992 A    
C13   C14   1.517976 S    
C5    N3    1.429375 S    
C19   H7    1.112318 S    
C21   H12   1.110788 S    
C9    H2    1.082864 S    
Zn1   O7    1.989049 S    
C2    C5    1.415983 S    
N3    C21   1.441678 S    
C22   H16   1.110584 S    
C15   N1    1.365523 A    
C7    C12   1.369107 A    
C20   H9    1.103688 S    
O3    Zn1   1.985485 S    
Zn2   O6    2.017620 S    
C18   C19   1.473087 S    
N5    O12   1.301828 A    
C20   H10   1.111838 S    
C19   H8    1.089976 S    
C10   C11   1.401848 A    
C14   N5    1.468776 S    
N6    C22   1.452051 S    
N3    H11   1.031679 S    
O4    C2    1.289595 A    
O7    C4    1.286397 A    
C14   N6    1.466151 S    
C22   H17   1.111340 S    
C5    C6    1.339220 D    
Zn1   O5    2.003470 S    
O8    C4    1.283948 A    
N5    O11   1.301716 A    
C15   C20   1.498104 S    
C13   H5    1.106927 S    
O3    C2    1.280045 A    
C17   N2    1.380751 A    
C21   H14   1.104359 S    
N4    O9    1.297081 A    
O5    C3    1.289576 A    
C10   H3    1.083425 S    
C7    C8    1.394657 A    
C22   H18   1.109313 S    
O1    C1    1.294608 A    
C12   C13   1.494937 S    
O1    Zn1   2.017621 S    
Zn2   N1    2.021347 S    
Zn1   N2    2.020663 S    
N1    C16   1.361759 A    
O2    Zn2   2.003469 S    
C7    C14   1.512442 S    
C8    C9    1.407665 A    
C3    C11   1.425703 S    
C9    C10   1.384750 A    
C6    H1    1.088504 S    
C17   N4    1.431663 S    
O6    C3    1.288594 A    
C16   C17   1.423719 A    
