data_mof_unit_11568.cif
_audit_creation_date              2012-12-10T17:12:45-0500
_audit_creation_method            fapswitch 2.2
_symmetry_space_group_name_H-M    P1
_symmetry_Int_Tables_number       1
_space_group_crystal_system       triclinic
_cell_length_a                    22.94342
_cell_length_b                    10.709977
_cell_length_c                    10.028283
_cell_angle_alpha                 88.947562
_cell_angle_beta                  88.648343
_cell_angle_gamma                 89.940052
_cell_volume                      2463.08309311

loop_
_atom_site_label
_atom_site_type_symbol
_atom_type_description
_atom_site_fract_x
_atom_site_fract_y
_atom_site_fract_z
_atom_type_partial_charge
C1    C     C_R   0.504226 0.262576 0.500984 0.900836
C2    C     C_R   0.124263 0.708160 0.501744 0.532594
C3    C     C_R   0.236170 0.604540 0.595530 0.213317
C4    C     C_R   0.388781 0.501511 0.501695 0.915343
C5    C     C_R   0.297233 0.596478 0.593566 0.089179
C6    C     C_R   0.324938 0.510806 0.506434 -0.155863
C7    C     C_R   0.290746 0.426683 0.433975 0.108556
C8    C     C_R   0.229622 0.444049 0.433438 0.223783
C9    C     C_R   0.205964 0.555591 0.486996 0.120040
C10   C     C_R   0.774618 0.466767 0.524838 -0.010565
C11   C     C_R   0.714405 0.439128 0.534410 0.071002
C12   C     C_R   0.974414 0.503596 0.220567 -0.140241
C13   C     C_R   0.673714 0.529684 0.491388 -0.134306
C14   C     C_R   0.692558 0.647221 0.439635 -0.079950
C15   C     C_R   0.752509 0.671119 0.421489 0.170525
C16   C     C_R   0.497818 0.737294 0.498731 0.919194
C17   C     C_R   0.793106 0.581313 0.464849 0.231593
C18   C     C_2   0.514954 0.933556 0.390714 -0.109401
C19   C     C_2   0.492397 0.869097 0.494322 -0.337986
C20   C     C_2   0.512612 0.067769 0.391382 -0.138936
C21   C     C_2   0.520100 0.132713 0.503165 0.003456
C22   C     C_2   0.539038 0.556271 0.923889 -0.087182
C23   C     C_R   0.035543 0.509162 0.211736 0.171696
C24   C     C_2   0.543615 0.539703 0.072498 -0.059677
C25   C     C_R   0.611029 0.503906 0.498110 0.873179
C26   C     C_R   0.881829 0.683601 0.527530 0.580762
C27   C     C_R   0.882884 0.548934 0.339857 0.554005
C28   C     C_R   0.943286 0.563248 0.323208 -0.060503
C29   C     C_R   0.973069 0.636932 0.413683 -0.011107
C30   C     C_R   0.941940 0.702423 0.513198 -0.014447
C31   C     C_3   0.694389 0.313009 0.589540 -0.867576
C32   C     C_2   0.649230 0.744790 0.402731 0.374964
C33   C     C_3   0.772981 0.790197 0.350423 -0.728258
C34   C     C_R   0.066191 0.575340 0.310088 -0.054296
C35   C     C_3   0.549208 0.081233 0.627379 -0.790596
C36   C     C_2   0.475164 0.385913 0.897044 0.564978
C37   C     C_3   0.065835 0.438017 0.101505 -0.782426
C38   C     C_3   0.204950 0.624377 0.728474 -0.781730
C39   C     C_3   0.331871 0.678943 0.683920 -0.816392
C40   C     C_3   0.319624 0.318092 0.362897 -0.842190
C41   C     C_3   0.190036 0.336211 0.400630 -0.820071
C42   C     C_2   0.818152 0.374871 0.576278 0.451138
C43   C     C_R   0.034206 0.642421 0.407518 -0.053104
C44   C     C_R   0.063724 0.716681 0.498452 -0.016542
C45   C     C_R   0.032277 0.790785 0.588907 -0.160055
C46   C     C_R   0.971755 0.782200 0.597668 -0.151948
C47   C     C_R   0.127458 0.572301 0.322346 0.545510
H1    H     H_    0.951111 0.449408 0.148820 0.196482
H2    H     H_    0.646576 0.301450 0.592589 0.243452
H3    H     H_    0.712161 0.237681 0.525741 0.242539
H4    H     H_    0.709707 0.299626 0.693036 0.247130
H5    H     H_    0.611484 0.720998 0.345908 0.082282
H6    H     H_    0.766253 0.870985 0.416784 0.276967
H7    H     H_    0.819635 0.788339 0.319524 0.206586
H8    H     H_    0.748280 0.805185 0.257565 0.233307
H9    H     H_    0.580890 0.149841 0.664115 0.242080
H10   H     H_    0.516014 0.064125 0.707957 0.236528
H11   H     H_    0.574432 0.994727 0.608165 0.280382
H12   H     H_    0.533225 0.888291 0.303072 0.173893
H13   H     H_    0.431452 0.362915 0.866859 0.027043
H14   H     H_    0.094250 0.364467 0.144661 0.255680
H15   H     H_    0.034354 0.390881 0.036689 0.217763
H16   H     H_    0.091924 0.503112 0.036714 0.267127
H17   H     H_    0.207607 0.723043 0.759408 0.271907
H18   H     H_    0.158505 0.595678 0.726028 0.227634
H19   H     H_    0.225408 0.565188 0.806594 0.227509
H20   H     H_    0.367977 0.725187 0.626303 0.227125
H21   H     H_    0.305054 0.755085 0.726867 0.241537
H22   H     H_    0.349689 0.622449 0.767451 0.244773
H23   H     H_    0.470912 0.913712 0.578462 0.161828
H24   H     H_    0.348309 0.353592 0.280135 0.255023
H25   H     H_    0.345990 0.262830 0.434337 0.221920
H26   H     H_    0.288532 0.253375 0.317620 0.244715
H27   H     H_    0.144016 0.354032 0.431056 0.226028
H28   H     H_    0.192506 0.316117 0.292480 0.266982
H29   H     H_    0.203345 0.251446 0.457697 0.233530
H30   H     H_    0.807446 0.276617 0.586440 0.081679
H31   H     H_    0.499098 0.112712 0.299110 0.171717
H32   H     H_    0.569465 0.620227 0.874236 0.154472
H33   H     H_    0.584110 0.565450 0.118351 0.145061
H34   H     H_    0.460155 0.498181 0.106131 0.162450
H35   H     H_    0.054448 0.849449 0.658464 0.187086
H36   H     H_    0.948623 0.835598 0.672830 0.192048
N1    N     N_R   0.854059 0.605200 0.443628 -0.327355
N2    N     N_R   0.151967 0.611908 0.437885 -0.322680
N3    N     N_2   0.500610 0.501330 0.852150 -0.173972
N4    N     N_2   0.500630 0.501360 0.147810 -0.168656
O1    O     O_R   0.499990 0.319060 0.613040 -0.614205
O2    O     O_R   0.583840 0.500020 0.613040 -0.595418
O3    O     O_R   0.583850 0.500060 0.386900 -0.627397
O4    O     O_2   0.851390 0.741071 0.625533 -0.543622
O5    O     O_2   0.655069 0.852642 0.437382 -0.571950
O6    O     O_2   0.503244 0.308078 0.959071 -0.588693
O7    O     O_2   0.866242 0.407820 0.611445 -0.563972
O8    O     O_2   0.853193 0.477817 0.254951 -0.558074
O9    O     O_2   0.162155 0.532992 0.221411 -0.566537
O10   O     O_2   0.154615 0.796680 0.563624 -0.567798
O11   O     O_R   0.500010 0.319100 0.386900 -0.605108
O12   O     O_R   0.416150 0.499940 0.613100 -0.634111
O13   O     O_R   0.416160 0.499980 0.386960 -0.611749
O14   O     O_R   0.499990 0.680900 0.613100 -0.616776
O15   O     O_R   0.500010 0.680940 0.386960 -0.628206
Zn1   Zn    Zn3+2 0.499990 0.499970 0.650990 0.949109
Zn2   Zn    Zn3+2 0.500010 0.500030 0.349010 0.952604

loop_
_geom_bond_atom_site_label_1
_geom_bond_atom_site_label_2
_ccdc_geom_bond_type
C33   H8    S    
O12   Zn1   S    
C1    C21   S    
C40   H24   S    
C10   C42   S    
C39   H21   S    
C27   O8    S    
C45   H35   S    
C12   H1    S    
C37   H15   S    
C7    C8    A    
C45   C46   A    
C12   C23   A    
C25   O3    A    
C12   C28   A    
C35   H11   S    
C47   N2    A    
C27   N1    A    
C22   H32   S    
C5    C6    A    
C10   C17   A    
O13   Zn2   S    
C40   H26   S    
C2    N2    A    
C18   C19   D    
C32   H5    S    
C9    N2    S    
C41   H27   S    
C36   O6    D    
C24   H33   S    
C38   H19   S    
C2    O10   S    
C2    C44   A    
C8    C9    A    
C7    C40   S    
C1    O1    A    
C11   C31   S    
O14   Zn1   S    
C13   C14   A    
C29   C43   A    
C13   C25   S    
C31   H2    S    
N3    Zn1   S    
C37   H16   S    
C38   H17   S    
C33   H6    S    
C8    C41   S    
C3    C38   S    
C4    C6    S    
C31   H4    S    
C36   H13   S    
C26   O4    S    
C23   C37   S    
N4    Zn2   S    
C43   C44   A    
C29   C30   A    
C3    C9    A    
C41   H28   S    
C18   H12   S    
C38   H18   S    
C47   O9    S    
C23   C34   A    
C39   H22   S    
O15   Zn2   S    
O3    Zn2   S    
H34   N4    S    
C16   O15   A    
C26   C30   A    
C5    C39   S    
C22   C24   S    
C31   H3    S    
O1    Zn1   S    
C44   C45   A    
C33   H7    S    
C15   C17   A    
C28   C29   A    
C26   N1    A    
C40   H25   S    
C35   H9    S    
C42   O7    D    
C39   H20   S    
C30   C46   A    
C34   C43   A    
C14   C32   S    
C3    C5    A    
C1    O11   A    
C37   H14   S    
C6    C7    A    
C21   C35   S    
C25   O2    A    
C20   H31   S    
C35   H10   S    
C17   N1    S    
C36   N3    S    
C4    O13   A    
C41   H29   S    
C11   C13   A    
C32   O5    D    
C16   C19   S    
O11   Zn2   S    
C18   C20   S    
C22   N3    D    
C24   N4    D    
C10   C11   A    
C46   H36   S    
C16   O14   A    
C20   C21   D    
C42   H30   S    
C4    O12   A    
C27   C28   A    
C14   C15   A    
C19   H23   S    
C34   C47   A    
C15   C33   S    
O2    Zn1   S    
