data_mof_unit_47421.cif
_audit_creation_date              2012-12-10T17:43:23-0500
_audit_creation_method            fapswitch 2.2
_symmetry_space_group_name_H-M    P1
_symmetry_Int_Tables_number       1
_space_group_crystal_system       triclinic
_cell_length_a                    14.993746
_cell_length_b                    13.859247
_cell_length_c                    10.617265
_cell_angle_alpha                 90.350404
_cell_angle_beta                  87.783752
_cell_angle_gamma                 90.903682
_cell_volume                      2204.33120603

loop_
_atom_site_label
_atom_site_type_symbol
_atom_type_description
_atom_site_fract_x
_atom_site_fract_y
_atom_site_fract_z
_atom_type_partial_charge
C1    C     C_R   0.329046 0.499453 0.502000 0.875074
C2    C     C_R   0.670917 0.500695 0.497019 0.870289
C3    C     C_R   0.953204 0.507700 0.499618 0.019396
C4    C     C_R   0.046835 0.506673 0.501762 0.017957
C5    C     C_R   0.910995 0.517589 0.383735 0.005374
C6    C     C_R   0.089027 0.493558 0.617119 0.011188
C7    C     C_R   0.944153 0.489380 0.727783 -0.213064
C8    C     C_R   0.055955 0.531354 0.274589 -0.214085
C9    C     C_R   0.036919 0.487808 0.729892 -0.194378
C10   C     C_R   0.963192 0.531141 0.272191 -0.197405
C11   C     C_R   0.436205 0.793582 0.570066 0.547696
C12   C     C_R   0.555588 0.206343 0.417676 0.559094
C13   C     C_R   0.566411 0.795046 0.434919 0.591357
C14   C     C_R   0.446043 0.205251 0.584620 0.597144
C15   C     C_R   0.564314 0.898006 0.426673 -0.189094
C16   C     C_R   0.440057 0.102253 0.579520 -0.184129
C17   C     C_R   0.441438 0.896646 0.582343 -0.202459
C18   C     C_R   0.565028 0.103857 0.427954 -0.204167
C19   C     C_R   0.503167 0.948740 0.504848 -0.127056
C20   C     C_R   0.503181 0.051538 0.504765 -0.128356
C21   C     C_R   0.624921 0.950430 0.345962 0.362518
C22   C     C_R   0.374528 0.050095 0.651866 0.362140
C23   C     C_R   0.384256 0.948865 0.666735 0.380330
C24   C     C_R   0.632228 0.052498 0.359412 0.375940
C25   C     C_R   0.498590 0.500029 0.259478 0.784147
C26   C     C_R   0.499779 0.500368 0.740518 0.795932
C27   C     C_3   0.446481 0.573561 0.044461 -0.155871
C28   C     C_3   0.549864 0.429765 0.955717 -0.202757
C29   C     C_3   0.530982 0.586502 0.957605 -0.145858
C30   C     C_3   0.464919 0.416749 0.041788 -0.191269
C31   C     C_3   0.414498 0.488910 0.961434 -0.161657
C32   C     C_3   0.581542 0.514776 0.038216 -0.162714
C33   C     C_3   0.499129 0.501467 0.877418 0.041444
C34   C     C_3   0.497143 0.501159 0.122483 0.044159
C35   C     C_R   0.817359 0.512315 0.381703 0.429528
C36   C     C_R   0.182490 0.485888 0.616614 0.418481
C37   C     C_R   0.767361 0.502692 0.495824 -0.151055
C38   C     C_R   0.232494 0.498976 0.503118 -0.157199
C39   C     C_R   0.809134 0.495973 0.610476 -0.369343
C40   C     C_R   0.190839 0.515636 0.390292 -0.361045
C41   C     C_R   0.901912 0.497695 0.613229 0.123279
C42   C     C_R   0.098121 0.517880 0.388285 0.130696
Cu1   Cu    Cu3+1 0.500000 0.597420 0.500000 1.010333
Cu2   Cu    Cu3+1 0.500000 0.402580 0.500000 0.998213
H1    H     H_    0.345879 0.479622 0.927700 0.167839
H2    H     H_    0.649294 0.529149 0.072040 0.170188
H3    H     H_    0.403920 0.631922 0.084346 0.138550
H4    H     H_    0.593548 0.371727 0.917756 0.116217
H5    H     H_    0.559776 0.654244 0.917266 0.138773
H6    H     H_    0.434455 0.348458 0.077368 0.114821
H7    H     H_    0.769068 0.488664 0.697343 0.147269
H8    H     H_    0.230946 0.525787 0.303941 0.146679
H9    H     H_    0.905390 0.483191 0.815752 0.139629
H10   H     H_    0.094755 0.540941 0.187170 0.143771
H11   H     H_    0.067495 0.481556 0.820145 0.176291
H12   H     H_    0.932620 0.540831 0.182481 0.182975
N1    N     N_R   0.500000 0.743810 0.500000 -0.283974
N2    N     N_R   0.500000 0.256190 0.500000 -0.276983
O1    O     O_R   0.370260 0.582280 0.500030 -0.559318
O2    O     O_R   0.629740 0.417720 0.499970 -0.576599
O3    O     O_R   0.629740 0.582280 0.499970 -0.549096
O4    O     O_R   0.370260 0.417720 0.500030 -0.561769
O5    O     O_R   0.499980 0.582260 0.316850 -0.562568
O6    O     O_R   0.500020 0.417740 0.683150 -0.558964
O7    O     O_R   0.500020 0.582260 0.683150 -0.575003
O8    O     O_R   0.499980 0.417740 0.316850 -0.564486
O9    O     O_3   0.774703 0.519301 0.268910 -0.590367
C43   C     C_3   0.771568 0.427061 0.211611 -0.385100
H13   H     H_    0.709766 0.388574 0.244087 0.232708
H14   H     H_    0.830768 0.381815 0.228525 0.160548
H15   H     H_    0.769781 0.435869 0.108089 0.172075
O10   O     O_3   0.225831 0.468773 0.726750 -0.604129
C44   C     C_3   0.223259 0.368458 0.748840 -0.302656
H16   H     H_    0.248059 0.326700 0.665113 0.227817
H17   H     H_    0.154844 0.342751 0.776831 0.144038
H18   H     H_    0.266664 0.352806 0.827964 0.180892
O11   O     O_3   0.366887 0.742519 0.629607 -0.516721
C45   C     C_3   0.287793 0.756695 0.563470 -0.181008
H19   H     H_    0.235845 0.705159 0.600078 0.178272
H20   H     H_    0.297721 0.742936 0.460398 0.127063
H21   H     H_    0.260980 0.830186 0.578040 0.159696
O12   O     O_3   0.601974 0.256917 0.324049 -0.544792
C46   C     C_3   0.563611 0.235487 0.207347 -0.262644
H22   H     H_    0.489599 0.241186 0.213009 0.133144
H23   H     H_    0.581490 0.162652 0.171852 0.174645
H24   H     H_    0.590646 0.287663 0.136648 0.168986
O13   O     O_3   0.639272 0.746541 0.384427 -0.512575
C47   C     C_3   0.711652 0.761533 0.465032 -0.273669
H25   H     H_    0.768820 0.718029 0.429421 0.187794
H26   H     H_    0.694504 0.738752 0.563528 0.154625
H27   H     H_    0.734582 0.837909 0.467544 0.095515
O14   O     O_3   0.401601 0.254499 0.680467 -0.545281
C48   C     C_3   0.445819 0.238564 0.793809 -0.337950
H28   H     H_    0.517578 0.259903 0.785419 0.167760
H29   H     H_    0.441661 0.162389 0.824525 0.107942
H30   H     H_    0.413009 0.282007 0.869286 0.177328
O15   O     O_3   0.655108 0.905220 0.235136 -0.591932
C49   C     C_3   0.749134 0.903350 0.219688 0.152747
H31   H     H_    0.769028 0.826529 0.213702 0.176546
H32   H     H_    0.785617 0.935009 0.299104 0.096217
C50   C     C_3   0.778127 0.951622 0.095144 -0.335348
H33   H     H_    0.747008 0.912300 0.016071 0.212101
H34   H     H_    0.754933 0.027250 0.094248 0.251276
C51   C     C_3   0.879387 0.951320 0.074345 -0.953939
H35   H     H_    0.911903 0.992347 0.150669 0.255526
H36   H     H_    0.897974 0.985937 0.982810 0.258098
H37   H     H_    0.904061 0.876147 0.072365 0.259373
O16   O     O_3   0.291171 0.092226 0.669735 -0.595615
C52   C     C_3   0.261550 0.099430 0.797387 0.139129
H38   H     H_    0.248476 0.176484 0.817855 0.148365
H39   H     H_    0.310762 0.078179 0.866283 0.096895
C53   C     C_3   0.173417 0.043484 0.817906 -0.333247
H40   H     H_    0.122873 0.073183 0.755419 0.213471
H41   H     H_    0.182441 0.966314 0.792940 0.254832
C54   C     C_3   0.138618 0.050931 0.954541 -0.951145
H42   H     H_    0.187477 0.020330 0.018785 0.254204
H43   H     H_    0.074765 0.009749 0.966266 0.266078
H44   H     H_    0.126570 0.127510 0.980597 0.253141
O17   O     O_3   0.338116 0.900724 0.763493 -0.594461
C55   C     C_3   0.383541 0.913564 0.877576 0.055148
H45   H     H_    0.332069 0.922263 0.954770 0.159745
H46   H     H_    0.427488 0.979420 0.879324 0.084349
C56   C     C_3   0.439481 0.826004 0.907598 -0.332431
H47   H     H_    0.396451 0.759991 0.909659 0.247993
H48   H     H_    0.493118 0.817013 0.833515 0.208365
C57   C     C_3   0.481895 0.839882 0.035530 -0.894996
H49   H     H_    0.524694 0.906070 0.035003 0.270547
H50   H     H_    0.524158 0.777777 0.057092 0.275179
H51   H     H_    0.429325 0.846170 0.111653 0.248345
O18   O     O_3   0.703744 0.102295 0.302826 -0.601228
C58   C     C_3   0.774798 0.109474 0.387495 0.035530
H52   H     H_    0.838134 0.103159 0.330394 0.164217
H53   H     H_    0.774544 0.050251 0.458504 0.089605
C59   C     C_3   0.775906 0.207111 0.456038 -0.280460
H54   H     H_    0.771326 0.266185 0.386850 0.248247
H55   H     H_    0.718118 0.211013 0.524311 0.208556
C60   C     C_3   0.861297 0.221635 0.527997 -0.951044
H56   H     H_    0.868452 0.162568 0.596957 0.253396
H57   H     H_    0.858622 0.291226 0.580053 0.273068
H58   H     H_    0.920412 0.223314 0.461624 0.258612

loop_
_geom_bond_atom_site_label_1
_geom_bond_atom_site_label_2
_ccdc_geom_bond_type
C39   H7    S    
O13   C47   S    
C50   H33   S    
C27   C29   S    
C44   H16   S    
Cu2   O8    S    
C19   C20   A    
C2    C37   S    
C58   C59   S    
C1    O4    A    
C59   C60   S    
C51   H36   S    
O15   C49   S    
Cu1   O5    S    
C56   H47   S    
C39   C41   A    
C29   H5    S    
O11   C45   S    
Cu2   O6    S    
C15   C19   A    
C60   H57   S    
C17   C23   A    
C18   C24   A    
C16   C20   A    
C35   C37   A    
C8    C42   A    
C29   C32   S    
C1    O1    A    
C23   O17   S    
C30   C31   S    
C45   H20   S    
C56   H48   S    
C13   N1    A    
C36   O10   S    
C54   H42   S    
C29   C33   S    
O16   C52   S    
C53   C54   S    
C25   O5    A    
C26   O6    A    
C53   H40   S    
C11   O11   S    
C28   H4    S    
Cu2   N2    S    
C43   H13   S    
C54   H43   S    
C16   C22   A    
C31   C33   S    
C9    H11   S    
C10   H12   S    
C55   C56   S    
Cu1   O1    S    
C25   C34   S    
C12   N2    A    
C40   C42   A    
C30   H6    S    
C50   H34   S    
C44   H17   S    
C2    O2    A    
C6    C9    A    
C53   H41   S    
C51   H35   S    
C55   H46   S    
C27   C34   S    
C14   N2    A    
C60   H58   S    
C30   C34   S    
C27   C31   S    
O9    C43   S    
C28   C32   S    
C4    C6    A    
C52   C53   S    
C8    H10   S    
C45   H19   S    
C56   C57   S    
C59   H55   S    
C57   H51   S    
Cu2   O4    S    
C40   H8    S    
C32   C34   S    
Cu1   Cu2   S    
C21   O15   S    
C26   C33   S    
C46   H22   S    
C47   H27   S    
C35   O9    S    
Cu1   O7    S    
C54   H44   S    
C13   O13   S    
C12   O12   S    
C48   H28   S    
C14   O14   S    
C1    C38   S    
C43   H14   S    
C46   H23   S    
C47   H26   S    
C28   C33   S    
O12   C46   S    
C50   C51   S    
C49   H32   S    
C13   C15   A    
C44   H18   S    
C14   C16   A    
C7    H9    S    
C3    C4    A    
C3    C5    A    
C55   H45   S    
Cu1   O3    S    
C27   H3    S    
C7    C9    A    
C11   C17   A    
C57   H50   S    
C26   O7    A    
C32   H2    S    
C25   O8    A    
O10   C44   S    
C58   H53   S    
O17   C55   S    
C2    O3    A    
C43   H15   S    
C59   H54   S    
C48   H30   S    
C49   C50   S    
C60   H56   S    
C52   H39   S    
O18   C58   S    
C5    C10   A    
C37   C39   A    
C52   H38   S    
C36   C38   A    
C38   C40   A    
C45   H21   S    
C48   H29   S    
C4    C42   A    
Cu2   O2    S    
C57   H49   S    
C22   O16   S    
C5    C35   A    
C28   C30   S    
O14   C48   S    
C17   C19   A    
C6    C36   A    
C18   C20   A    
C7    C41   A    
C3    C41   A    
Cu1   N1    S    
C24   O18   S    
C15   C21   A    
C46   H24   S    
C47   H25   S    
C8    C10   A    
C49   H31   S    
C31   H1    S    
C21   C24   A    
C12   C18   A    
C22   C23   A    
C11   N1    A    
C51   H37   S    
C58   H52   S    
