data_mof_unit_17293.cif
_audit_creation_date              2012-12-10T16:49:29-0500
_audit_creation_method            fapswitch 2.2
_symmetry_space_group_name_H-M    P1
_symmetry_Int_Tables_number       1
_space_group_crystal_system       triclinic
_cell_length_a                    7.729759
_cell_length_b                    8.488157
_cell_length_c                    12.880984
_cell_angle_alpha                 90.231188
_cell_angle_beta                  88.17621
_cell_angle_gamma                 93.705457
_cell_volume                      842.943821154

loop_
_atom_site_label
_atom_site_type_symbol
_atom_type_description
_atom_site_fract_x
_atom_site_fract_y
_atom_site_fract_z
_atom_type_partial_charge
C1    C     C_R   0.458680 0.206586 0.482057 0.957642
C2    C     C_R   0.711431 0.460281 0.140504 -0.210633
C3    C     C_R   0.589392 0.472466 0.868982 -0.275344
C4    C     C_R   0.410708 0.527867 0.131083 -0.279438
C5    C     C_R   0.578812 0.480982 0.975425 0.188301
C6    C     C_R   0.421265 0.519271 0.024647 0.187111
C7    C     C_2   0.442148 0.045731 0.446808 -0.029818
C8    C     C_2   0.579658 0.954911 0.455146 -0.038766
C9    C     C_3   0.267472 0.986713 0.405508 -0.879397
C10   C     C_3   0.767581 0.014221 0.435218 -0.868888
C11   C     C_R   0.548189 0.793469 0.487284 0.955383
C12   C     C_R   0.465881 0.501989 0.699884 0.902471
C13   C     C_R   0.534137 0.498091 0.300108 0.854202
C14   C     C_R   0.554331 0.496581 0.189051 -0.038460
C15   C     C_R   0.445707 0.503560 0.810996 -0.057168
C16   C     C_R   0.276382 0.547651 0.966852 -0.224833
C17   C     C_R   0.723657 0.452466 0.033228 -0.225963
C18   C     C_R   0.288557 0.539693 0.859574 -0.206754
H1    H     H_    0.289310 0.557647 0.168484 0.159421
H2    H     H_    0.279896 0.884301 0.352424 0.251194
H3    H     H_    0.174517 0.955780 0.470897 0.255324
H4    H     H_    0.839991 0.921908 0.394707 0.226462
H5    H     H_    0.778307 0.118060 0.382644 0.258028
H6    H     H_    0.830740 0.043059 0.509792 0.253425
H7    H     H_    0.710845 0.442838 0.831589 0.161182
H8    H     H_    0.823120 0.436089 0.185149 0.160084
H9    H     H_    0.176782 0.563665 0.814949 0.162598
H10   H     H_    0.155034 0.576722 0.004440 0.138092
H11   H     H_    0.844986 0.423329 0.995648 0.138734
H12   H     H_    0.998376 0.616508 0.421992 0.187176
H13   H     H_    0.001644 0.383481 0.577978 0.192843
H14   H     H_    0.213272 0.079840 0.358226 0.238553
N1    N     N_2   0.054030 0.541640 0.471970 -0.175692
N2    N     N_2   0.945970 0.458360 0.528030 -0.174232
O1    O     O_R   0.609680 0.261530 0.506880 -0.619826
O2    O     O_R   0.390320 0.738470 0.493120 -0.616783
O3    O     O_R   0.323330 0.288220 0.488910 -0.620583
O4    O     O_R   0.676670 0.711780 0.511090 -0.617572
O5    O     O_R   0.619510 0.488830 0.661140 -0.618037
O6    O     O_R   0.380490 0.511170 0.338860 -0.635090
O7    O     O_R   0.333160 0.515520 0.643180 -0.625263
O8    O     O_R   0.666840 0.484480 0.356820 -0.644298
Zn1   Zn    Zn3+2 0.691200 0.482180 0.511990 0.927970
Zn2   Zn    Zn3+2 0.308800 0.517820 0.488010 0.926634

loop_
_geom_bond_atom_site_label_1
_geom_bond_atom_site_label_2
_ccdc_geom_bond_type
C16   H10   S    
C15   C18   A    
C12   O7    A    
C10   H5    S    
C11   O4    A    
C17   H11   S    
C9    H2    S    
H12   N1    S    
C12   C15   S    
C1    O3    A    
O3    Zn2   S    
N1    N2    D    
H13   N2    S    
C3    C15   A    
C7    C8    D    
C2    H8    S    
C13   C14   S    
C10   H4    S    
C2    C17   A    
N1    Zn2   S    
C9    H3    S    
C12   O5    A    
C8    C11   S    
C4    C6    A    
C13   O8    A    
C4    C14   A    
C5    C6    A    
C2    C14   A    
O7    Zn2   S    
O4    Zn1   S    
O2    Zn2   S    
C5    C17   A    
O8    Zn1   S    
N2    Zn1   S    
C6    C16   A    
O6    Zn2   S    
C3    H7    S    
O1    Zn1   S    
C1    O1    A    
C16   C18   A    
C7    C9    S    
C11   O2    A    
C13   O6    A    
O5    Zn1   S    
C9    H14   S    
C10   H6    S    
C1    C7    S    
C4    H1    S    
C8    C10   S    
C18   H9    S    
C3    C5    A    
