data_mof_unit_34054.cif
_audit_creation_date              2012-10-26T17:12:41-0400
_audit_creation_method            fapswitch 2.2
_symmetry_space_group_name_H-M    P1
_symmetry_Int_Tables_number       1
_space_group_crystal_system       triclinic
_cell_length_a                    27.873763
_cell_length_b                    18.796849
_cell_length_c                    16.825551
_cell_angle_alpha                 89.973858
_cell_angle_beta                  62.763025
_cell_angle_gamma                 89.727499
_cell_volume                      7837.99884101

loop_
_atom_site_label
_atom_site_type_symbol
_atom_type_description
_atom_site_fract_x
_atom_site_fract_y
_atom_site_fract_z
_atom_type_partial_charge
C1    C     C_R   0.296207 0.731257 0.328346 0.541708
C2    C     C_R   0.597049 0.997336 0.515668 0.017135
C3    C     C_R   0.687877 0.719236 0.910289 0.023805
C4    C     C_R   0.118584 0.820583 0.041962 -0.064929
C5    C     C_R   0.880399 0.177490 0.958273 -0.061833
C6    C     C_R   0.842152 0.894957 0.998202 -0.075454
C7    C     C_R   0.115523 0.177331 0.046208 -0.067328
C8    C     C_R   0.610563 0.316103 0.048966 -0.070589
C9    C     C_R   0.388947 0.683282 0.951261 -0.071207
C10   C     C_R   0.383515 0.323906 0.954252 -0.064643
C11   C     C_R   0.611125 0.683432 0.047285 -0.066044
C12   C     C_R   0.148093 0.805209 0.088288 0.221136
C13   C     C_R   0.917092 0.499686 0.434322 0.019169
C14   C     C_R   0.850649 0.191861 0.912104 0.227264
C15   C     C_R   0.815750 0.875122 0.948736 0.211637
C16   C     C_R   0.144344 0.193507 0.093126 0.214936
C17   C     C_R   0.637939 0.298048 0.097513 0.209673
C18   C     C_R   0.361480 0.701067 0.902780 0.210006
C19   C     C_R   0.354437 0.308318 0.907604 0.215417
C20   C     C_R   0.638045 0.700966 0.097064 0.220532
C21   C     C_R   0.277251 0.785310 0.761095 -0.102647
C22   C     C_R   0.722206 0.214525 0.239481 -0.106371
C23   C     C_R   0.753302 0.705448 0.208070 -0.102408
C24   C     C_R   0.113233 0.500070 0.458359 0.017420
C25   C     C_R   0.243252 0.302003 0.792614 -0.099265
C26   C     C_R   0.742039 0.193167 0.791727 -0.090185
C27   C     C_R   0.256611 0.804871 0.208874 -0.112627
C28   C     C_R   0.255706 0.199426 0.207920 -0.113811
C29   C     C_R   0.767747 0.753321 0.776851 -0.095050
C30   C     C_R   0.307680 0.772851 0.805621 -0.083520
C31   C     C_R   0.691711 0.226545 0.194944 -0.082600
C32   C     C_R   0.720119 0.693920 0.167773 -0.078781
C33   C     C_R   0.273791 0.316127 0.836816 -0.074498
C34   C     C_R   0.772214 0.178104 0.836400 -0.061585
C35   C     C_R   0.578463 0.876692 0.573674 -0.097869
C36   C     C_R   0.226120 0.819032 0.164567 -0.089387
C37   C     C_R   0.224869 0.185901 0.164108 -0.089087
C38   C     C_R   0.789186 0.784729 0.827953 -0.079139
C39   C     C_R   0.923051 0.908155 0.069294 0.541099
C40   C     C_R   0.072358 0.099118 0.934909 0.542955
C41   C     C_R   0.071842 0.900284 0.935373 0.549438
C42   C     C_R   0.928016 0.099571 0.064713 0.531164
C43   C     C_R   0.427558 0.400967 0.065142 0.536189
C44   C     C_R   0.571990 0.599414 0.935153 0.535995
C45   C     C_R   0.571689 0.399825 0.935484 0.537776
C46   C     C_R   0.421242 0.116712 0.426591 -0.105803
C47   C     C_R   0.428267 0.600122 0.064544 0.535950
C48   C     C_R   0.069532 0.628589 0.431946 0.011121
C49   C     C_R   0.973557 0.371279 0.417257 0.014603
C50   C     C_R   0.972905 0.628162 0.416620 0.011276
C51   C     C_R   0.070772 0.371371 0.430719 0.011737
C52   C     C_R   0.567840 0.115738 0.443717 0.013250
C53   C     C_R   0.434850 0.876031 0.550736 0.012052
C54   C     C_R   0.470964 0.115778 0.429126 0.019016
C55   C     C_R   0.530642 0.876324 0.566303 0.017963
C56   C     C_R   0.048662 0.692201 0.416005 -0.080186
C57   C     C_R   0.387224 0.876188 0.543656 -0.104777
C58   C     C_R   0.002092 0.307568 0.408316 -0.077344
C59   C     C_R   0.000811 0.691969 0.408148 -0.088374
C60   C     C_R   0.050326 0.307625 0.414967 -0.072816
C61   C     C_R   0.553542 0.174575 0.407284 -0.113353
C62   C     C_R   0.449218 0.816733 0.586111 -0.111753
C63   C     C_R   0.505621 0.174494 0.399737 -0.101329
C64   C     C_R   0.496744 0.816986 0.594140 -0.100358
C65   C     C_R   0.994799 0.564126 0.428622 0.027253
C66   C     C_R   0.043847 0.435553 0.435750 0.027971
C67   C     C_R   0.043306 0.564286 0.436132 0.026819
C68   C     C_R   0.614616 0.116532 0.454631 -0.110704
C69   C     C_R   0.995192 0.435468 0.428707 0.028732
C70   C     C_R   0.485821 0.056063 0.463735 0.030421
C71   C     C_R   0.516349 0.936016 0.530864 0.030058
C72   C     C_R   0.534310 0.056084 0.471127 0.031749
C73   C     C_R   0.468139 0.935906 0.523205 0.031243
C74   C     C_R   0.452409 0.996201 0.490600 0.010374
C75   C     C_R   0.549355 0.996429 0.505590 0.010670
C76   C     C_R   0.969043 0.499746 0.430290 0.011140
C77   C     C_R   0.066570 0.499982 0.444346 0.010620
C78   C     C_R   0.371213 0.934952 0.508748 -0.029878
C79   C     C_R   0.118061 0.371721 0.440194 -0.100003
C80   C     C_R   0.628381 0.059761 0.496205 -0.036966
C81   C     C_R   0.613499 0.935435 0.544421 -0.032753
C82   C     C_R   0.384603 0.059495 0.461370 -0.038094
C83   C     C_R   0.891392 0.434395 0.436452 -0.036275
C84   C     C_R   0.136561 0.565589 0.464270 -0.034616
C85   C     C_R   0.137165 0.434586 0.463300 -0.033604
C86   C     C_R   0.891278 0.564971 0.435774 -0.039396
C87   C     C_R   0.323168 0.935074 0.499579 -0.008262
C88   C     C_R   0.670956 0.063169 0.521652 -0.011668
C89   C     C_R   0.663930 0.934800 0.545509 -0.007772
C90   C     C_R   0.923131 0.627596 0.414785 -0.113061
C91   C     C_R   0.329598 0.062959 0.476537 -0.014923
C92   C     C_R   0.834726 0.434762 0.461700 -0.009202
C93   C     C_R   0.181668 0.565127 0.483869 -0.012366
C94   C     C_R   0.181944 0.434884 0.483380 -0.010465
C95   C     C_R   0.834661 0.564975 0.461545 -0.011090
C96   C     C_R   0.298384 0.000212 0.501760 0.186707
C97   C     C_R   0.686482 0.000139 0.550348 0.192566
C98   C     C_R   0.806521 0.500003 0.485030 0.187987
C99   C     C_R   0.207751 0.499910 0.480034 0.183117
C100  C     C_R   0.923477 0.371586 0.416331 -0.105265
C101  C     C_R   0.703711 0.268596 0.671675 0.561998
C102  C     C_R   0.116581 0.628520 0.442313 -0.103457
C103  C     C_R   0.228035 0.784280 0.947154 -0.005780
C104  C     C_R   0.771039 0.213814 0.053336 -0.003551
C105  C     C_R   0.768622 0.783778 0.058110 -0.005226
C106  C     C_R   0.217223 0.238803 0.956967 -0.004169
C107  C     C_R   0.709590 0.245814 0.963168 -0.004324
C108  C     C_R   0.289381 0.752259 0.037427 -0.005098
C109  C     C_R   0.281573 0.263154 0.043927 -0.003543
C110  C     C_R   0.713075 0.743742 0.961776 -0.003928
C111  C     C_R   0.282882 0.763320 0.898428 0.034536
C112  C     C_R   0.707080 0.724564 0.669728 0.556827
C113  C     C_R   0.716329 0.235268 0.102055 0.036582
C114  C     C_R   0.725012 0.735764 0.095553 0.034918
C115  C     C_R   0.265439 0.278360 0.913976 0.033622
C116  C     C_R   0.760074 0.210832 0.918177 0.033365
C117  C     C_R   0.238587 0.786480 0.082607 0.035874
C118  C     C_R   0.233246 0.223783 0.087026 0.036984
C119  C     C_R   0.760747 0.784154 0.921050 0.039020
C120  C     C_R   0.311556 0.738406 0.944565 0.020848
C121  C     C_R   0.687622 0.260120 0.055911 0.022559
C122  C     C_R   0.691599 0.726165 0.053191 0.020527
C123  C     C_R   0.295915 0.269331 0.328499 0.528409
C124  C     C_R   0.300045 0.285722 0.954500 0.018685
C125  C     C_R   0.794182 0.204530 0.959751 0.025034
C126  C     C_R   0.204608 0.792758 0.040841 0.022528
C127  C     C_R   0.198678 0.216376 0.046439 0.022375
C128  C     C_R   0.782102 0.814860 0.974438 0.019819
C129  C     C_R   0.143340 0.822889 0.948105 -0.032445
C130  C     C_R   0.855924 0.175836 0.052166 -0.032568
C131  C     C_R   0.839674 0.852698 0.069375 -0.034271
C132  C     C_R   0.138909 0.183194 0.952477 -0.032568
C133  C     C_R   0.634130 0.308366 0.955488 -0.028440
C134  C     C_R   0.792257 0.222700 0.331202 0.528047
C135  C     C_R   0.365356 0.690877 0.044767 -0.029752
C136  C     C_R   0.360350 0.317832 0.047940 -0.031992
C137  C     C_R   0.637464 0.684846 0.952896 -0.031663
C138  C     C_R   0.116124 0.847126 0.899036 -0.027991
C139  C     C_R   0.883468 0.152372 0.101071 -0.027039
C140  C     C_R   0.874084 0.863293 0.110122 -0.021719
C141  C     C_R   0.114829 0.154923 0.900385 -0.025419
C142  C     C_R   0.612637 0.341325 0.901864 -0.024874
C143  C     C_R   0.387145 0.658390 0.098237 -0.026071
C144  C     C_R   0.384855 0.345443 0.099750 -0.025999
C145  C     C_R   0.207632 0.777149 0.668863 0.546674
C146  C     C_R   0.615101 0.654000 0.899814 -0.025373
C147  C     C_R   0.137093 0.829071 0.808805 -0.142065
C148  C     C_R   0.862647 0.170796 0.191152 -0.155122
C149  C     C_R   0.860994 0.831012 0.192356 -0.155738
C150  C     C_R   0.136206 0.173734 0.810055 -0.142036
C151  C     C_R   0.635087 0.324167 0.810881 -0.140604
C152  C     C_R   0.364798 0.675707 0.189150 -0.145198
C153  C     C_R   0.363685 0.326317 0.189935 -0.149041
C154  C     C_R   0.638547 0.669091 0.808360 -0.144523
C155  C     C_R   0.188438 0.799077 0.762925 -0.012783
C156  C     C_R   0.204036 0.230743 0.671505 0.555283
C157  C     C_R   0.811249 0.200624 0.237193 -0.018812
C158  C     C_R   0.817216 0.784778 0.231942 -0.023286
C159  C     C_R   0.180059 0.220066 0.769949 -0.020410
C160  C     C_R   0.678720 0.277052 0.770599 -0.016487
C161  C     C_R   0.320925 0.722433 0.229534 -0.019650
C162  C     C_R   0.319634 0.280323 0.230164 -0.021633
C163  C     C_R   0.686801 0.706945 0.765831 -0.011415
C164  C     C_R   0.221040 0.792782 0.807375 0.019960
C165  C     C_R   0.778424 0.206560 0.193001 0.019064
C166  C     C_R   0.789926 0.762820 0.182197 0.017559
C167  C     C_R   0.795785 0.769527 0.328672 0.534371
C168  C     C_R   0.204065 0.247849 0.822403 0.014834
C169  C     C_R   0.701274 0.245979 0.823774 0.014200
C170  C     C_R   0.297883 0.752722 0.176631 0.016533
C171  C     C_R   0.295168 0.253247 0.178030 0.016284
C172  C     C_R   0.714233 0.727275 0.816229 0.022310
C173  C     C_R   0.203247 0.631503 0.505188 0.580981
C174  C     C_R   0.802917 0.368409 0.474755 0.583546
C175  C     C_R   0.802889 0.631593 0.474822 0.567938
C176  C     C_R   0.203298 0.368399 0.505095 0.574860
C177  C     C_R   0.699062 0.130837 0.518954 0.561797
C178  C     C_R   0.402803 0.996913 0.486580 0.018179
C179  C     C_R   0.298037 0.868619 0.490413 0.563912
C180  C     C_R   0.302000 0.131084 0.477641 0.566049
C181  C     C_R   0.695998 0.867895 0.530289 0.572251
C182  C     C_R   0.197207 0.799237 0.901107 0.023333
C183  C     C_R   0.802041 0.199399 0.099287 0.022983
C184  C     C_R   0.799568 0.799654 0.103226 0.022151
C185  C     C_R   0.186887 0.222756 0.910308 0.023415
C186  C     C_R   0.681609 0.266956 0.914085 0.025306
C187  C     C_R   0.317567 0.731657 0.086359 0.024358
C188  C     C_R   0.312178 0.278666 0.090309 0.023808
Cl1   Cl    Cl    0.226431 0.002535 0.556729 -0.553422
Cl2   Cl    Cl    0.388301 0.661210 0.795664 -0.630796
Cl3   Cl    Cl    0.392537 0.304296 0.789972 -0.599314
Cl4   Cl    Cl    0.599228 0.702198 0.214466 -0.594951
Cl5   Cl    Cl    0.727793 0.002166 0.605395 -0.538390
Cl6   Cl    Cl    0.736224 0.500293 0.561362 -0.545807
Cl7   Cl    Cl    0.278166 0.499684 0.448062 -0.540891
Cl8   Cl    Cl    0.109817 0.790591 0.204304 -0.666249
Cl9   Cl    Cl    0.888689 0.205163 0.795754 -0.599475
Cl10  Cl    Cl    0.818956 0.934792 0.865314 -0.597645
Cl11  Cl    Cl    0.106034 0.197745 0.210677 -0.674315
Cl12  Cl    Cl    0.611408 0.338407 0.204320 -0.631268
Cu1   Cu    Cu3+1 0.209920 0.785290 0.495070 0.992525
Cu2   Cu    Cu3+1 0.504760 0.500000 0.075850 1.041815
Cu3   Cu    Cu3+1 0.995240 0.000000 0.924150 1.014262
Cu4   Cu    Cu3+1 0.004760 0.000000 0.075850 0.990286
Cu5   Cu    Cu3+1 0.790080 0.214710 0.504930 1.021128
Cu6   Cu    Cu3+1 0.790080 0.785290 0.504930 1.004863
Cu7   Cu    Cu3+1 0.209920 0.214710 0.495070 1.008362
Cu8   Cu    Cu3+1 0.709920 0.285290 0.495070 1.037820
Cu9   Cu    Cu3+1 0.290080 0.714710 0.504930 1.047468
Cu10  Cu    Cu3+1 0.290080 0.285290 0.504930 1.043491
Cu11  Cu    Cu3+1 0.709920 0.714710 0.495070 1.029844
Cu12  Cu    Cu3+1 0.495240 0.500000 0.924150 1.037026
H1    H     H_    0.507091 0.770692 0.621674 0.144307
H2    H     H_    0.412133 0.162164 0.396494 0.139315
H3    H     H_    0.362128 0.830874 0.570889 0.131857
H4    H     H_    0.639572 0.162034 0.428627 0.133231
H5    H     H_    0.140578 0.322672 0.423524 0.159479
H6    H     H_    0.910476 0.676764 0.397129 0.148905
H7    H     H_    0.910856 0.322074 0.399947 0.149463
H8    H     H_    0.138226 0.677903 0.427051 0.160148
H9    H     H_    0.114251 0.841463 0.772936 0.169235
H10   H     H_    0.885702 0.158871 0.226796 0.163141
H11   H     H_    0.884115 0.843851 0.227508 0.162704
H12   H     H_    0.495146 0.220969 0.372703 0.144399
H13   H     H_    0.119219 0.150531 0.769655 0.177195
H14   H     H_    0.619568 0.350047 0.769784 0.176851
H15   H     H_    0.380619 0.650283 0.230103 0.178356
H16   H     H_    0.381015 0.348982 0.230126 0.174519
H17   H     H_    0.619819 0.649015 0.768947 0.172620
H18   H     H_    0.075364 0.826809 0.080465 0.177800
H19   H     H_    0.923617 0.171615 0.919479 0.179749
H20   H     H_    0.862516 0.945486 0.981754 0.187424
H21   H     H_    0.073324 0.165237 0.085567 0.184493
H22   H     H_    0.570230 0.336271 0.087463 0.183422
H23   H     H_    0.423734 0.770092 0.607424 0.142198
H24   H     H_    0.429418 0.663584 0.912673 0.183445
H25   H     H_    0.425759 0.335583 0.914635 0.185448
H26   H     H_    0.568783 0.671032 0.084254 0.180550
H27   H     H_    0.298781 0.792627 0.690505 0.126641
H28   H     H_    0.700593 0.208181 0.310312 0.128270
H29   H     H_    0.750827 0.666987 0.257417 0.153787
H30   H     H_    0.249759 0.336499 0.737453 0.161546
H31   H     H_    0.750906 0.161216 0.733488 0.182809
H32   H     H_    0.247604 0.837202 0.266841 0.157817
H33   H     H_    0.249271 0.164557 0.262714 0.155015
H34   H     H_    0.578819 0.221377 0.386498 0.138231
H35   H     H_    0.795685 0.747246 0.707278 0.156916
H36   H     H_    0.350905 0.774419 0.766587 0.165404
H37   H     H_    0.648523 0.225348 0.234037 0.165211
H38   H     H_    0.693192 0.648859 0.189805 0.181792
H39   H     H_    0.302253 0.359374 0.812130 0.186873
H40   H     H_    0.803523 0.138017 0.808357 0.202961
H41   H     H_    0.194428 0.858592 0.192865 0.173782
H42   H     H_    0.196270 0.142811 0.188867 0.177195
H43   H     H_    0.830158 0.804265 0.794148 0.167893
H44   H     H_    0.071086 0.257591 0.409527 0.156094
H45   H     H_    0.984984 0.741905 0.397653 0.138497
H46   H     H_    0.986545 0.257512 0.398164 0.145853
H47   H     H_    0.068862 0.742334 0.411083 0.150640
H48   H     H_    0.586638 0.832069 0.606363 0.139923
O1    O     O_R   0.255040 0.869590 0.478480 -0.449072
O2    O     O_R   0.817950 0.203450 0.375560 -0.521997
O3    O     O_R   0.817950 0.796550 0.375560 -0.516160
O4    O     O_R   0.182050 0.203450 0.624440 -0.483517
O5    O     O_R   0.682050 0.296550 0.624440 -0.486019
O6    O     O_R   0.317950 0.703450 0.375560 -0.488102
O7    O     O_R   0.317950 0.296550 0.375560 -0.499868
O8    O     O_R   0.682050 0.703450 0.624440 -0.499381
O9    O     O_R   0.250530 0.763330 0.367210 -0.538683
O10   O     O_R   0.749470 0.236670 0.632790 -0.510848
O11   O     O_R   0.749470 0.763330 0.632790 -0.513889
O12   O     O_R   0.744960 0.130410 0.521520 -0.443021
O13   O     O_R   0.250530 0.236670 0.367210 -0.540137
O14   O     O_R   0.750530 0.263330 0.367210 -0.521438
O15   O     O_R   0.249470 0.736670 0.632790 -0.518363
O16   O     O_R   0.249470 0.263330 0.632790 -0.515033
O17   O     O_R   0.750530 0.736670 0.367210 -0.516043
O18   O     O_R   0.177260 0.690030 0.513710 -0.541434
O19   O     O_R   0.822740 0.309970 0.486290 -0.530415
O20   O     O_R   0.822740 0.690030 0.486290 -0.546720
O21   O     O_R   0.177260 0.309970 0.513710 -0.540385
O22   O     O_R   0.677260 0.190030 0.513710 -0.542148
O23   O     O_R   0.744960 0.869590 0.521520 -0.432193
O24   O     O_R   0.322740 0.809970 0.486290 -0.542470
O25   O     O_R   0.322740 0.190030 0.486290 -0.525885
O26   O     O_R   0.677260 0.809970 0.513710 -0.526128
O27   O     O_R   0.051640 0.926880 0.885090 -0.494727
O28   O     O_R   0.948360 0.073120 0.114910 -0.509875
O29   O     O_R   0.948360 0.926880 0.114910 -0.508883
O30   O     O_R   0.051640 0.073120 0.885090 -0.497741
O31   O     O_R   0.551640 0.426880 0.885090 -0.501135
O32   O     O_R   0.448360 0.573120 0.114910 -0.501045
O33   O     O_R   0.448360 0.426880 0.114910 -0.503606
O34   O     O_R   0.255040 0.130410 0.478480 -0.441343
O35   O     O_R   0.551640 0.573120 0.885090 -0.504582
O36   O     O_R   0.940620 0.926560 0.986760 -0.517533
O37   O     O_R   0.059380 0.073440 0.013240 -0.516568
O38   O     O_R   0.059380 0.926560 0.013240 -0.510619
O39   O     O_R   0.940620 0.073440 0.986760 -0.520240
O40   O     O_R   0.440620 0.426560 0.986760 -0.513581
O41   O     O_R   0.559380 0.573440 0.013240 -0.510537
O42   O     O_R   0.559380 0.426560 0.013240 -0.509310
O43   O     O_R   0.440620 0.573440 0.986760 -0.509855
O44   O     O_R   0.755040 0.369590 0.478480 -0.433556
O45   O     O_R   0.244960 0.630410 0.521520 -0.425443
O46   O     O_R   0.244960 0.369590 0.521520 -0.437423
O47   O     O_R   0.755040 0.630410 0.478480 -0.442683
O48   O     O_R   0.182050 0.796550 0.624440 -0.494106

loop_
_geom_bond_atom_site_label_1
_geom_bond_atom_site_label_2
_ccdc_geom_bond_type
C108  C120  A    
C129  C182  A    
C27   H32   S    
Cu10  O46   S    
C88   C177  S    
C25   H30   S    
Cu9   O24   S    
C30   H36   S    
C50   C59   A    
C145  O15   A    
C181  O23   A    
C52   C61   A    
C12   C126  A    
C54   C63   A    
C58   C60   A    
Cu8   O5    S    
C47   C143  S    
C44   O41   A    
C97   Cl5   S    
C61   C63   A    
C103  C126  A    
C95   C175  S    
C62   C64   A    
C131  C140  A    
C91   C96   A    
C50   C90   A    
Cu4   O28   S    
C162  C171  A    
C100  H7    S    
Cu9   O15   S    
C170  C187  A    
C70   C74   A    
Cu7   Cu10  S    
C5    H19   S    
C4    C12   A    
C147  C155  A    
C24   C85   A    
C112  O8    A    
C88   C97   A    
C119  C128  A    
Cu8   O14   S    
C150  H13   S    
C49   C69   A    
Cu2   O32   S    
C12   Cl8   S    
C43   C144  S    
C158  C167  S    
Cu9   O6    S    
C11   C20   A    
C150  C159  A    
C165  C183  A    
C137  C146  A    
C166  C184  A    
C175  O20   A    
C86   C90   A    
C71   C73   A    
C106  C127  A    
Cu2   O33   S    
C82   C91   A    
C51   C66   A    
C89   C181  S    
C142  C151  A    
C52   C72   A    
Cu1   O18   S    
C41   O38   A    
C105  C114  A    
C54   C70   A    
C82   C178  A    
C176  O46   A    
C36   C117  A    
C7    C132  A    
C38   C119  A    
C145  O48   A    
C5    C130  A    
Cu2   O42   S    
C83   C100  A    
C43   O33   A    
Cu3   O39   S    
C45   C142  S    
C177  O12   A    
C79   C85   A    
C173  O18   A    
Cu3   O27   S    
C66   C77   A    
C39   C140  S    
C18   Cl2   S    
C57   C78   A    
Cu6   O3    S    
C8    C17   A    
C56   C59   A    
C106  C115  A    
C80   C88   A    
C42   O39   A    
C179  O1    A    
C93   C173  S    
C84   C93   A    
C105  C184  A    
C156  O16   A    
C86   C95   A    
C24   C77   A    
C104  C183  A    
C37   H42   S    
Cu5   O2    S    
C2    C81   A    
C41   O27   A    
C55   C71   A    
C2    C75   A    
C19   Cl3   S    
C78   C87   A    
C6    H20   S    
C39   O29   A    
C84   C102  A    
C67   C77   A    
Cu7   O4    S    
C133  C142  A    
C58   H46   S    
Cu3   O30   S    
C130  C183  A    
C79   H5    S    
C1    O9    A    
C3    C110  A    
C60   H44   S    
C31   H37   S    
C69   C76   A    
C85   C94   A    
C180  O25   A    
C46   C82   A    
C101  C160  S    
C29   C38   A    
Cu10  O16   S    
C23   H29   S    
C149  C158  A    
C167  O17   A    
C20   C122  A    
C152  C161  A    
C102  H8    S    
C135  C143  A    
C174  O19   A    
C48   C67   A    
C40   C141  S    
C136  C188  A    
C72   C75   A    
C112  O11   A    
Cu1   Cu9   S    
C141  C150  A    
C25   C168  A    
C14   Cl9   S    
C139  C148  A    
C104  C125  A    
C64   H1    S    
C157  C165  A    
C26   H31   S    
C167  O3    A    
C92   C174  S    
C61   H34   S    
Cu7   O21   S    
C152  H15   S    
C91   C180  S    
Cu5   O19   S    
C45   O31   A    
Cu6   O20   S    
Cu1   O9    S    
Cu4   O38   S    
C9    C135  A    
C21   H27   S    
C116  C125  A    
C154  H17   S    
C118  C127  A    
C117  C126  A    
C132  C141  A    
Cu5   O10   S    
C62   H23   S    
C180  O34   A    
Cu1   O48   S    
C35   H48   S    
C110  C119  A    
C135  C187  A    
C173  O45   A    
Cu9   O45   S    
C181  O26   A    
C28   C37   A    
C148  C157  A    
C50   C65   A    
C51   C79   A    
C107  C116  A    
C90   H6    S    
C104  C113  A    
C9    C18   A    
C113  C121  A    
C10   H25   S    
C51   C60   A    
C140  C149  A    
C31   C113  A    
C123  O13   A    
C25   C33   A    
C8    H22   S    
C43   O40   A    
Cu10  O7    S    
C73   C74   A    
Cu3   Cu4   S    
C11   H26   S    
C107  C186  A    
C65   C76   A    
C171  C188  A    
C40   O37   A    
C169  C186  A    
C3    C172  A    
C47   O32   A    
C98   Cl6   S    
C103  C111  A    
C108  C187  A    
C1    O6    A    
C57   H3    S    
C65   C67   A    
C109  C118  A    
C160  C169  A    
C40   O30   A    
C3    C137  A    
Cu12  O43   S    
C93   C99   A    
C81   C89   A    
C38   H43   S    
C8    C133  A    
Cu5   O12   S    
C1    C161  S    
C21   C164  A    
Cu6   O11   S    
Cu4   O29   S    
Cu11  O26   S    
C130  C139  A    
C108  C117  A    
C22   H28   S    
C179  O24   A    
C47   O43   A    
C33   C115  A    
C15   Cl10  S    
C53   C57   A    
Cu11  O17   S    
C132  C185  A    
C10   C19   A    
C48   C102  A    
C46   C54   A    
C27   C170  A    
C5    C14   A    
Cu12  O31   S    
C17   C121  A    
C143  C152  A    
C15   C128  A    
Cu6   O23   S    
C56   H47   S    
C107  C121  A    
C158  C166  A    
C112  C163  S    
C101  O5    A    
C175  O47   A    
C115  C124  A    
C78   C178  A    
C106  C185  A    
Cu2   Cu12  S    
C6    C131  A    
Cu12  O40   S    
C20   Cl4   S    
Cu8   O22   S    
C4    C129  A    
C27   C36   A    
C21   C30   A    
C13   C83   A    
C153  C162  A    
Cu1   O1    S    
C23   C32   A    
C11   C137  A    
C136  C144  A    
C110  C122  A    
C114  C122  A    
C68   H4    S    
C164  C182  A    
C123  O7    A    
C151  H14   S    
Cu2   O41   S    
Cu10  O25   S    
C59   H45   S    
C94   C176  S    
C68   C80   A    
C74   C178  A    
C7    H21   S    
C103  C182  A    
C153  H16   S    
C35   C81   A    
C95   C98   A    
C92   C98   A    
Cu7   O13   S    
C83   C92   A    
C14   C125  A    
C99   Cl7   S    
C10   C136  A    
C66   C69   A    
C34   C116  A    
C32   H38   S    
C159  C168  A    
C17   Cl12  S    
C131  C184  A    
C144  C153  A    
C33   H39   S    
C148  H10   S    
C6    C15   A    
C22   C165  A    
Cu6   Cu11  S    
C26   C34   A    
C37   C118  A    
C26   C169  A    
C46   H2    S    
C44   O35   A    
C146  C154  A    
C13   C86   A    
C44   C146  S    
Cu3   O36   S    
C52   C68   A    
C29   C172  A    
C156  O4    A    
C9    H24   S    
C29   H35   S    
C16   C127  A    
C109  C188  A    
C19   C124  A    
C22   C31   A    
C129  C138  A    
C35   C55   A    
C154  C163  A    
Cu8   O44   S    
C123  C162  S    
C49   C58   A    
C89   C97   A    
C111  C120  A    
C4    H18   S    
C96   Cl1   S    
C176  O21   A    
C163  C172  A    
C23   C166  A    
C53   C62   A    
C177  O22   A    
C28   C171  A    
C13   C76   A    
C138  C147  A    
C87   C96   A    
C41   C138  S    
C45   O42   A    
C16   Cl11  S    
C133  C186  A    
C161  C170  A    
C134  O14   A    
C174  O44   A    
C18   C120  A    
Cu5   Cu8   S    
C48   C56   A    
C7    C16   A    
C168  C185  A    
C105  C128  A    
C42   C139  S    
C63   H12   S    
C156  C159  S    
C53   C73   A    
C147  H9    S    
C34   H40   S    
C109  C124  A    
C55   C64   A    
Cu11  O47   S    
C155  C164  A    
C101  O10   A    
C36   H41   S    
C30   C111  A    
C151  C160  A    
C24   C84   A    
Cu12  O35   S    
C49   C100  A    
C71   C75   A    
C94   C99   A    
Cu11  O8    S    
C28   H33   S    
Cu7   O34   S    
Cu4   O37   S    
C2    C80   A    
C87   C179  S    
C145  C155  S    
C134  C157  S    
C134  O2    A    
C39   O36   A    
C70   C72   A    
C149  H11   S    
C32   C114  A    
C42   O28   A    
