data_mof_unit_29115.cif
_audit_creation_date              2012-12-11T15:12:41-0500
_audit_creation_method            fapswitch 2.2
_symmetry_space_group_name_H-M    P1
_symmetry_Int_Tables_number       1
_space_group_crystal_system       triclinic
_cell_length_a                    22.355889
_cell_length_b                    6.941945
_cell_length_c                    19.387037
_cell_angle_alpha                 90.00181
_cell_angle_beta                  99.078524
_cell_angle_gamma                 90.000706
_cell_volume                      2971.04883419

loop_
_atom_site_label
_atom_site_type_symbol
_atom_type_description
_atom_site_fract_x
_atom_site_fract_y
_atom_site_fract_z
_atom_type_partial_charge
O1    O     O_R   0.448420 0.506120 0.415750 -0.531523
O2    O     O_R   0.551580 0.006120 0.584250 -0.531564
O3    O     O_R   0.436490 0.174470 0.555610 -0.542173
O4    O     O_R   0.563510 0.674470 0.444390 -0.542150
C1    C     C_R   0.421270 0.344637 0.576050 0.799208
C2    C     C_R   0.578729 0.844635 0.423949 0.799244
O5    O     O_R   0.441310 0.176330 0.414520 -0.543956
O6    O     O_R   0.558690 0.676330 0.585480 -0.543925
O7    O     O_R   0.556430 0.007110 0.442150 -0.531001
O8    O     O_R   0.443570 0.507110 0.557850 -0.530966
C3    C     C_R   0.426580 0.345163 0.388587 0.806304
C4    C     C_R   0.573419 0.845171 0.611413 0.806327
O9    O     O_3   0.537770 0.339560 0.509230 -0.371155
O10   O     O_3   0.462230 0.839560 0.490770 -0.371136
V1    V     V_3+5 0.492990 0.064280 0.498290 1.502068
V2    V     V_3+5 0.507010 0.564280 0.501710 1.502146
C5    C     C_R   0.868725 0.972867 0.695507 -0.194806
C6    C     C_R   0.131289 0.473187 0.304485 -0.194811
H1    H     H_    0.787689 0.967585 0.580704 0.153942
H2    H     H_    0.212330 0.468020 0.419285 0.153945
H3    H     H_    0.887423 0.997837 0.647986 0.146549
H4    H     H_    0.112598 0.498308 0.352002 0.146550
C7    C     C_R   0.885145 0.941068 0.821298 -0.169608
C8    C     C_R   0.114856 0.441109 0.178703 -0.169617
C9    C     C_R   0.591073 0.821569 0.739056 -0.199775
C10   C     C_R   0.408915 0.321343 0.260949 -0.199764
C11   C     C_R   0.627548 0.820939 0.804005 -0.080657
C12   C     C_R   0.372436 0.320622 0.196003 -0.080652
C13   C     C_R   0.689744 0.849932 0.809836 -0.106111
C14   C     C_R   0.310244 0.349698 0.190171 -0.106094
C15   C     C_R   0.717584 0.881080 0.750120 0.023758
C16   C     C_R   0.282412 0.381025 0.249882 0.023756
C17   C     C_R   0.679687 0.883290 0.682931 -0.048842
C18   C     C_R   0.320314 0.383336 0.317067 -0.048847
C19   C     C_R   0.781771 0.909905 0.755097 0.083327
C20   C     C_R   0.218229 0.409927 0.244903 0.083326
C21   C     C_R   0.806350 0.941841 0.692880 -0.043966
C22   C     C_R   0.193658 0.442053 0.307116 -0.043964
C23   C     C_R   0.768758 0.943449 0.628141 -0.219841
C24   C     C_R   0.231255 0.443748 0.371851 -0.219848
C25   C     C_R   0.706694 0.914548 0.622778 0.558748
C26   C     C_R   0.293315 0.414763 0.377217 0.558745
C27   C     C_R   0.822735 0.908975 0.819435 -0.281057
C28   C     C_R   0.177261 0.408901 0.180569 -0.281049
C29   C     C_R   0.907702 0.973537 0.759072 0.612543
C30   C     C_R   0.092309 0.473783 0.240923 0.612557
C31   C     C_R   0.615903 0.852708 0.678205 -0.082610
C32   C     C_R   0.384095 0.352668 0.321796 -0.082613
H5    H     H_    0.807799 0.885837 0.868964 0.128605
H6    H     H_    0.192190 0.385615 0.131045 0.128614
H7    H     H_    0.542848 0.797215 0.736190 0.105273
H8    H     H_    0.457136 0.296910 0.263817 0.105268
H9    H     H_    0.607388 0.796959 0.850521 0.145493
H10   H     H_    0.392590 0.296502 0.149490 0.145493
C33   C     C_3   0.809479 0.755820 0.263937 -0.398693
C34   C     C_3   0.190641 0.255277 0.736230 -0.398670
C35   C     C_3   0.783866 0.105522 0.245092 -0.406369
C36   C     C_3   0.215960 0.605306 0.754702 -0.406517
C37   C     C_3   0.735684 0.088385 0.294658 -0.344000
C38   C     C_3   0.264142 0.588172 0.705135 -0.343908
H11   H     H_    0.783035 0.765438 0.368215 0.172693
H12   H     H_    0.217048 0.264346 0.631929 0.172673
H13   H     H_    0.756963 0.124182 0.348967 0.169608
H14   H     H_    0.242820 0.623422 0.650794 0.169657
C39   C     C_1   0.624554 0.854826 0.378549 -0.144859
C40   C     C_1   0.375446 0.354831 0.621451 -0.144869
C41   C     C_3   0.790744 0.911645 0.207066 0.094106
C42   C     C_3   0.209256 0.411649 0.792935 0.094192
C43   C     C_3   0.761265 0.737782 0.313436 -0.342009
C44   C     C_3   0.238855 0.237244 0.686731 -0.342049
C45   C     C_3   0.708562 0.882144 0.292366 0.147851
C46   C     C_3   0.291438 0.382148 0.707634 0.147865
C47   C     C_3   0.679772 0.838383 0.215794 -0.389172
C48   C     C_3   0.320283 0.339148 0.784246 -0.389165
C49   C     C_3   0.727703 0.855233 0.165608 1.145125
C50   C     C_3   0.272353 0.356005 0.834432 1.145147
C51   C     C_1   0.662476 0.866126 0.340055 -0.037879
C52   C     C_1   0.337523 0.366130 0.659945 -0.037873
C53   C     C_1   0.837191 0.928055 0.159767 0.059480
C54   C     C_1   0.162810 0.428053 0.840233 0.059432
C55   C     C_1   0.875201 0.939510 0.121382 -0.113454
C56   C     C_1   0.124799 0.439505 0.878618 -0.113486
H15   H     H_    0.815115 0.613945 0.239015 0.195113
H16   H     H_    0.185132 0.113538 0.761303 0.195084
H17   H     H_    0.743338 0.587933 0.311331 0.158124
H18   H     H_    0.256908 0.087541 0.688985 0.158110
H19   H     H_    0.641775 0.940210 0.199165 0.161417
H20   H     H_    0.358197 0.441373 0.800757 0.161395
O11   O     O_R   0.056480 0.288780 0.942210 -0.530365
O12   O     O_R   0.943520 0.788780 0.057790 -0.530335
O13   O     O_R   0.058700 0.616820 0.085490 -0.535991
O14   O     O_R   0.941300 0.116820 0.914510 -0.536014
C57   C     C_R   0.073163 0.448362 0.111646 0.775290
C58   C     C_R   0.926837 0.948354 0.888354 0.775284
O15   O     O_R   0.063520 0.618570 0.944410 -0.537020
O16   O     O_R   0.936480 0.118570 0.055590 -0.537035
O17   O     O_R   0.948420 0.787670 0.915740 -0.540048
O18   O     O_R   0.051580 0.287670 0.084260 -0.540059
C59   C     C_R   0.078970 0.449772 0.924023 0.721146
C60   C     C_R   0.921029 0.949774 0.075976 0.721154
O19   O     O_3   0.962260 0.453430 0.990800 -0.372071
O20   O     O_3   0.037740 0.953430 0.009200 -0.372075
V3    V     V_3+5 0.007000 0.728750 0.001710 1.521236
V4    V     V_3+5 0.993000 0.228750 0.998290 1.521165
F1    F     F_    0.967706 0.006074 0.759917 -0.697440
F2    F     F_    0.032311 0.506446 0.240074 -0.697428
H21   H     H_    0.854062 0.793818 0.295140 0.180190
H22   H     H_    0.146020 0.292718 0.705002 0.180200
H23   H     H_    0.770449 0.221971 0.206282 0.216953
H24   H     H_    0.229288 0.722132 0.793386 0.216581
H25   H     H_    0.828144 0.148203 0.275949 0.171907
H26   H     H_    0.171640 0.647440 0.723813 0.171973
H27   H     H_    0.698987 0.195425 0.278985 0.163287
H28   H     H_    0.300750 0.695596 0.720684 0.163185
F3    F     F_    0.731902 0.680436 0.132028 -0.681267
F4    F     F_    0.268312 0.181421 0.868201 -0.681064
F5    F     F_    0.708932 0.993154 0.115048 -0.671372
F6    F     F_    0.291018 0.494429 0.884843 -0.671313
H29   H     H_    0.659998 0.690882 0.212557 0.157764
H30   H     H_    0.340182 0.191817 0.787632 0.157863
H31   H     H_    0.714729 0.846962 0.862050 0.130397
H32   H     H_    0.285256 0.346646 0.137958 0.130400
F7    F     F_    0.673678 0.918241 0.557800 -0.718454
F8    F     F_    0.326334 0.418549 0.442192 -0.718432

loop_
_geom_bond_atom_site_label_1
_geom_bond_atom_site_label_2
_ccdc_geom_bond_type
C42   C54   S    
C22   C24   A    
C47   H29   S    
C11   C13   A    
C56   C59   S    
C38   H28   S    
O1    C3    A    
O2    C4    A    
C2    O7    A    
C26   F8    S    
C23   C25   A    
O5    C3    A    
C48   C50   S    
O11   C59   A    
C7    C29   A    
C16   C20   A    
C19   C21   A    
C5    C29   A    
H2    C24   S    
O15   C59   A    
C35   C37   S    
O13   C57   A    
C38   C46   S    
C36   C38   S    
O16   C60   A    
C7    C27   A    
H12   C44   S    
C43   C45   S    
C47   H19   S    
C46   C52   S    
C2    C39   S    
C35   H23   S    
C14   H32   S    
O15   V3    S    
C18   C26   A    
C13   H31   S    
C15   C17   A    
O10   V2    S    
C19   C27   A    
C9    C31   A    
O6    C4    A    
C24   C26   A    
O6    V2    S    
C36   H24   S    
C47   C49   S    
C3    C32   S    
C35   C41   S    
C4    C31   S    
C6    C30   A    
O12   C60   A    
C49   F5    S    
C29   F1    S    
C34   H16   S    
C40   C52   T    
C39   C51   T    
C41   C53   S    
C46   C48   S    
C53   C55   T    
C12   H10   S    
C27   H5    S    
O5    V1    S    
C58   O17   A    
C34   C42   S    
C5    H3    S    
C33   H21   S    
C16   C18   A    
O4    V2    S    
C9    H7    S    
C43   H17   S    
C10   H8    S    
O17   V3    S    
C37   H27   S    
O14   C58   A    
O1    V2    S    
C5    C21   A    
O20   V4    S    
O2    V1    S    
C33   C43   S    
H1    C23   S    
C36   C42   S    
O19   V4    S    
C34   C44   S    
O9    V1    S    
O11   V4    S    
C9    C11   A    
C17   C31   A    
C36   H26   S    
C20   C28   A    
O4    C2    A    
C41   C49   S    
C33   H15   S    
C44   H18   S    
C45   C51   S    
O3    V1    S    
C45   C47   S    
H11   C43   S    
O16   V4    S    
C6    H4    S    
C37   H13   S    
O13   V3    S    
C1    C40   S    
O3    C1    A    
C33   C41   S    
C11   H9    S    
C55   C60   S    
C10   C32   A    
C42   C50   S    
C48   H30   S    
C10   C12   A    
C7    C58   S    
C38   H14   S    
C8    C30   A    
C25   F7    S    
C20   C22   A    
C6    C22   A    
C17   C25   A    
C1    O8    A    
C13   C15   A    
O8    V2    S    
C8    C57   S    
C14   C16   A    
C35   H25   S    
C8    C28   A    
C30   F2    S    
C12   C14   A    
C50   F4    S    
C54   C56   T    
C15   C19   A    
O7    V1    S    
O20   V3    S    
C50   F6    S    
O12   V3    S    
O14   V4    S    
C49   F3    S    
C21   C23   A    
C18   C32   A    
C28   H6    S    
O19   V3    S    
O9    V2    S    
C34   H22   S    
O10   V1    S    
C44   C46   S    
C48   H20   S    
C57   O18   A    
O18   V4    S    
C37   C45   S    
