data_mof_unit_30830.cif
_audit_creation_date              2012-12-10T17:42:17-0500
_audit_creation_method            fapswitch 2.2
_symmetry_space_group_name_H-M    P1
_symmetry_Int_Tables_number       1
_space_group_crystal_system       triclinic
_cell_length_a                    15.040759
_cell_length_b                    13.84554
_cell_length_c                    10.7942
_cell_angle_alpha                 90.185899
_cell_angle_beta                  87.600425
_cell_angle_gamma                 89.782642
_cell_volume                      2245.86416112

loop_
_atom_site_label
_atom_site_type_symbol
_atom_type_description
_atom_site_fract_x
_atom_site_fract_y
_atom_site_fract_z
_atom_type_partial_charge
C1    C     C_R   0.328871 0.500168 0.505661 0.802720
C2    C     C_R   0.036827 0.630874 0.664880 -0.195763
C3    C     C_R   0.089155 0.565800 0.591673 0.099913
C4    C     C_R   0.500852 0.499996 0.259473 0.765662
C5    C     C_R   0.046106 0.501743 0.511032 0.012901
C6    C     C_R   0.095904 0.436508 0.435097 0.110602
C7    C     C_R   0.052937 0.372538 0.356575 -0.188591
C8    C     C_R   0.960502 0.372485 0.353374 -0.214099
C9    C     C_R   0.183014 0.562593 0.597295 0.137998
C10   C     C_R   0.231846 0.500317 0.514683 -0.066845
C11   C     C_R   0.188046 0.436696 0.437354 -0.292867
C12   C     C_3   0.589802 0.478114 0.915500 -0.367514
C13   C     C_R   0.432496 0.793301 0.562698 0.013566
C14   C     C_R   0.432419 0.207474 0.562616 0.014712
C15   C     C_R   0.569232 0.795442 0.444310 0.319368
C16   C     C_R   0.568965 0.203299 0.444321 0.328098
C17   C     C_R   0.574322 0.897071 0.458512 0.062939
C18   C     C_R   0.574194 0.101705 0.458569 0.065814
C19   C     C_R   0.671032 0.500015 0.499451 0.803186
C20   C     C_R   0.503235 0.948254 0.517058 -0.019943
C21   C     C_R   0.503161 0.051458 0.516926 -0.021997
C22   C     C_R   0.431994 0.896434 0.572334 -0.185989
C23   C     C_R   0.817480 0.436539 0.426158 -0.258938
C24   C     C_R   0.431603 0.104229 0.571162 -0.189928
C25   C     C_R   0.648951 0.949059 0.413311 -0.214040
C26   C     C_R   0.648897 0.048840 0.413326 -0.210906
C27   C     C_R   0.361800 0.052415 0.633430 0.423219
C28   C     C_R   0.362632 0.949346 0.635624 0.428698
C29   C     C_R   0.495038 0.500230 0.739538 0.778587
C30   C     C_3   0.456176 0.597919 0.073127 0.003254
C31   C     C_3   0.440691 0.412942 0.071787 0.022703
C32   C     C_3   0.463780 0.600474 0.929603 -0.396083
C33   C     C_3   0.430659 0.422026 0.930155 -0.410206
C34   C     C_R   0.767448 0.500806 0.501139 -0.057530
C35   C     C_3   0.597589 0.491200 0.058007 0.298917
C36   C     C_3   0.498216 0.500312 0.120338 0.114946
C37   C     C_3   0.494478 0.500547 0.876544 0.039363
C38   C     C_3   0.228948 0.620561 0.695527 -0.900847
C39   C     C_3   0.638375 0.747883 0.359364 -0.830004
C40   C     C_3   0.637971 0.249391 0.359814 -0.854512
C41   C     C_3   0.305620 0.134842 0.803000 -0.323522
C42   C     C_3   0.317895 0.870232 0.812080 -0.344589
C43   C     C_3   0.360052 0.620663 0.121168 -0.830732
C44   C     C_3   0.349364 0.393507 0.138499 -0.874657
C45   C     C_R   0.809502 0.566924 0.577332 -0.253069
C46   C     C_3   0.656682 0.581201 0.079722 -0.870945
C47   C     C_3   0.652249 0.405391 0.107356 -0.890234
C48   C     C_R   0.902042 0.567350 0.581556 0.111441
C49   C     C_R   0.952778 0.501993 0.506969 0.074137
C50   C     C_R   0.910060 0.436657 0.428326 0.119501
C51   C     C_R   0.944476 0.631628 0.659496 -0.223072
Cu1   Cu    Cu3+1 0.499990 0.597420 0.500010 0.922068
Cu2   Cu    Cu3+1 0.499990 0.402580 0.500010 0.924752
H1    H     H_    0.495194 0.659319 0.108413 0.171043
H2    H     H_    0.708396 0.083469 0.375801 0.152876
H3    H     H_    0.399549 0.621572 0.889582 0.169249
H4    H     H_    0.361349 0.441408 0.907309 0.177414
H5    H     H_    0.512472 0.656981 0.899723 0.162992
H6    H     H_    0.445197 0.350443 0.886416 0.161187
H7    H     H_    0.638099 0.524790 0.862521 0.157508
H8    H     H_    0.606747 0.402713 0.886338 0.170284
H9    H     H_    0.784530 0.388020 0.364370 0.136576
H10   H     H_    0.769963 0.616677 0.634890 0.145043
H11   H     H_    0.906141 0.682421 0.716874 0.146087
H12   H     H_    0.478221 0.345436 0.086993 0.163768
H13   H     H_    0.299541 0.600370 0.705234 0.224458
H14   H     H_    0.224897 0.698729 0.673974 0.263940
H15   H     H_    0.196311 0.606958 0.787969 0.219737
H16   H     H_    0.646490 0.788572 0.271096 0.189824
H17   H     H_    0.703091 0.743328 0.404975 0.219983
H18   H     H_    0.618852 0.676955 0.330351 0.277311
H19   H     H_    0.645260 0.208773 0.271024 0.193456
H20   H     H_    0.618774 0.320816 0.332786 0.285404
H21   H     H_    0.702628 0.251409 0.405471 0.215492
H22   H     H_    0.374747 0.162012 0.811999 0.123950
H23   H     H_    0.066382 0.682433 0.726191 0.166090
H24   H     H_    0.291445 0.077319 0.872120 0.180694
H25   H     H_    0.259900 0.195952 0.826073 0.188237
H26   H     H_    0.355004 0.926095 0.863093 0.141858
H27   H     H_    0.358857 0.803520 0.804215 0.150221
H28   H     H_    0.257101 0.852576 0.869107 0.196811
H29   H     H_    0.349045 0.700072 0.120330 0.220492
H30   H     H_    0.309847 0.589290 0.060718 0.231433
H31   H     H_    0.347113 0.595499 0.217635 0.251959
H32   H     H_    0.330247 0.317171 0.122442 0.222915
H33   H     H_    0.350862 0.404265 0.239749 0.249916
H34   H     H_    0.226143 0.387591 0.377270 0.157183
H35   H     H_    0.294908 0.438016 0.103250 0.237180
H36   H     H_    0.630936 0.648503 0.039235 0.210995
H37   H     H_    0.666806 0.591223 0.179315 0.223552
H38   H     H_    0.724081 0.570455 0.035270 0.240153
H39   H     H_    0.714685 0.395342 0.049770 0.240302
H40   H     H_    0.673261 0.421523 0.202218 0.225340
H41   H     H_    0.616958 0.335650 0.105920 0.214075
H42   H     H_    0.090901 0.322438 0.297702 0.145625
H43   H     H_    0.928459 0.322256 0.292441 0.143965
H44   H     H_    0.378243 0.752227 0.604011 0.170339
H45   H     H_    0.378736 0.249135 0.606151 0.174972
H46   H     H_    0.708477 0.913684 0.375959 0.153602
N1    N     N_R   0.499930 0.743810 0.499950 -0.190314
N2    N     N_R   0.499930 0.256190 0.499950 -0.191273
O1    O     O_R   0.370250 0.582280 0.500040 -0.577917
O2    O     O_3   0.292018 0.901825 0.694412 -0.551392
O3    O     O_R   0.370250 0.417720 0.500040 -0.592500
O4    O     O_R   0.499970 0.582270 0.317700 -0.595261
O5    O     O_R   0.499970 0.417730 0.317700 -0.591636
O6    O     O_R   0.629730 0.582260 0.499980 -0.585480
O7    O     O_R   0.629730 0.417740 0.499980 -0.579945
O8    O     O_R   0.500000 0.582270 0.682320 -0.592145
O9    O     O_R   0.500000 0.417730 0.682320 -0.585921
O10   O     O_3   0.288062 0.101413 0.682726 -0.543353

loop_
_geom_bond_atom_site_label_1
_geom_bond_atom_site_label_2
_ccdc_geom_bond_type
Cu2   O9    S    
C4    C36   S    
C42   H27   S    
C18   C21   A    
C43   H30   S    
C47   H39   S    
C35   C36   S    
C8    H43   S    
C24   C27   A    
C32   H5    S    
C15   N1    A    
C35   C47   S    
C26   H2    S    
C7    C8    A    
C46   H36   S    
C30   H1    S    
Cu1   O1    S    
C40   H21   S    
C29   O8    A    
C41   H24   S    
C5    C6    A    
Cu2   O3    S    
C17   C20   A    
C40   H20   S    
C31   H12   S    
C14   C24   A    
C12   C37   S    
Cu2   O5    S    
C25   H46   S    
C48   C51   A    
C38   H13   S    
Cu1   O6    S    
Cu2   N2    S    
C18   C26   A    
C31   C33   S    
C9    C10   A    
C19   O7    A    
C27   O10   S    
C42   H26   S    
C33   H6    S    
C22   C28   A    
C42   O2    S    
C43   H31   S    
C5    C49   A    
C42   H28   S    
C44   H33   S    
C14   H45   S    
C23   H9    S    
C39   H16   S    
C31   C44   S    
C1    C10   S    
C29   O9    A    
C10   C11   A    
C11   H34   S    
C6    C11   A    
C14   N2    A    
C46   H38   S    
C3    C5    A    
C25   C26   A    
C4    O5    A    
C45   H10   S    
C33   C37   S    
C3    C9    A    
C41   H22   S    
C23   C34   A    
C47   H40   S    
C34   C45   A    
C32   C37   S    
C38   H14   S    
C12   C35   S    
C1    O3    A    
C15   C39   S    
C16   C40   S    
C48   C49   A    
C20   C22   A    
Cu1   O4    S    
C30   C43   S    
C44   H32   S    
C8    C50   A    
C41   H25   S    
C2    H23   S    
Cu1   Cu2   S    
C45   C48   A    
C15   C17   A    
C33   H4    S    
C40   H19   S    
C51   H11   S    
C38   H15   S    
C23   C50   A    
C19   C34   S    
C6    C7    A    
C46   H37   S    
C7    H42   S    
C4    O4    A    
C30   C36   S    
C17   C25   A    
C13   N1    A    
C2    C3    A    
C30   C32   S    
C12   H8    S    
C28   O2    S    
Cu1   O8    S    
Cu2   O7    S    
C9    C38   S    
C39   H17   S    
Cu1   N1    S    
C13   C22   A    
C13   H44   S    
C2    C51   A    
C12   H7    S    
C16   N2    A    
C20   C21   A    
C16   C18   A    
C49   C50   A    
C41   O10   S    
C21   C24   A    
C29   C37   S    
C27   C28   A    
C43   H29   S    
C39   H18   S    
C31   C36   S    
C44   H35   S    
C35   C46   S    
C1    O1    A    
C32   H3    S    
C47   H41   S    
C19   O6    A    
