data_mof_unit_64108.cif
_audit_creation_date              2012-12-10T18:40:33-0500
_audit_creation_method            fapswitch 2.2
_symmetry_space_group_name_H-M    P1
_symmetry_Int_Tables_number       1
_space_group_crystal_system       triclinic
_cell_length_a                    10.780698
_cell_length_b                    11.573678
_cell_length_c                    16.769832
_cell_angle_alpha                 90.03214
_cell_angle_beta                  84.57401
_cell_angle_gamma                 90.040591
_cell_volume                      2083.03445708

loop_
_atom_site_label
_atom_site_type_symbol
_atom_type_description
_atom_site_fract_x
_atom_site_fract_y
_atom_site_fract_z
_atom_type_partial_charge
C1    C     C_R   0.500035 0.718834 0.499989 0.913152
C2    C     C_R   0.517771 0.502152 0.346326 0.872661
C3    C     C_R   0.468302 0.457023 0.736753 -0.089394
C4    C     C_R   0.530719 0.497408 0.259482 -0.093254
C5    C     C_R   0.543878 0.368281 0.764324 -0.075928
C6    C     C_R   0.448570 0.557986 0.213971 -0.071320
C7    C     C_R   0.525975 0.334046 0.844784 -0.011563
C8    C     C_R   0.454938 0.539362 0.131082 -0.003342
C9    C     C_R   0.434060 0.389558 0.896435 0.116776
C10   C     C_R   0.541776 0.458754 0.095560 0.116777
C11   C     C_R   0.352416 0.468716 0.866614 -0.154820
C12   C     C_R   0.499964 0.281170 0.500060 0.907960
C13   C     C_R   0.628739 0.406649 0.140338 -0.164194
C14   C     C_R   0.369534 0.502438 0.787146 -0.206639
C15   C     C_R   0.623311 0.425850 0.222005 -0.207233
C16   C     C_2   0.438859 0.387803 0.982833 -0.203585
C17   C     C_2   0.542676 0.426028 0.011824 -0.206886
C18   C     C_1   0.637393 0.310468 0.710495 0.194160
C19   C     C_1   0.359821 0.640115 0.251777 0.189837
C20   C     C_1   0.374775 0.604357 0.082669 0.161966
C21   C     C_1   0.602607 0.243991 0.874979 0.165649
C22   C     C_1   0.500080 0.838962 0.500078 -0.177261
C23   C     C_1   0.499923 0.161059 0.500206 -0.174097
C24   C     C_1   0.500051 0.940855 0.500178 0.014671
C25   C     C_1   0.499976 0.059172 0.500248 0.015035
C26   C     C_1   0.930232 0.499989 0.500007 0.051561
C27   C     C_1   0.069766 0.499994 0.499995 0.050508
C28   C     C_R   0.482244 0.493423 0.653412 0.868723
H1    H     H_    0.687737 0.380248 0.256598 0.163027
H2    H     H_    0.308229 0.567123 0.765561 0.159613
H3    H     H_    0.628370 0.438423 0.973089 0.164471
H4    H     H_    0.352643 0.379298 0.021625 0.162196
H5    H     H_    0.281099 0.510856 0.906244 0.158682
H6    H     H_    0.697353 0.347058 0.112567 0.153302
N1    N     N_1   0.819370 0.500000 0.500010 -0.074666
N2    N     N_1   0.180630 0.500000 0.499990 -0.075227
N3    N     N_1   0.712000 0.264202 0.667702 -0.178099
N4    N     N_1   0.289097 0.705623 0.281946 -0.182917
N5    N     N_1   0.310862 0.656409 0.044183 -0.201890
N6    N     N_1   0.663709 0.172202 0.899096 -0.188560
O1    O     O_R   0.397470 0.665550 0.500010 -0.603118
O2    O     O_R   0.602530 0.334450 0.499990 -0.602356
O3    O     O_R   0.602530 0.665550 0.499990 -0.605574
O4    O     O_R   0.397470 0.334450 0.500010 -0.607171
O5    O     O_R   0.385350 0.500000 0.615800 -0.612371
O6    O     O_R   0.614650 0.500000 0.384200 -0.615462
O7    O     O_R   0.590410 0.500000 0.615800 -0.603742
O8    O     O_R   0.409590 0.500000 0.384200 -0.602316
Zn1   Zn    Zn3+2 0.363080 0.500000 0.500000 0.996593
Zn2   Zn    Zn3+2 0.636920 0.500000 0.500000 0.995667

loop_
_geom_bond_atom_site_label_1
_geom_bond_atom_site_label_2
_ccdc_geom_bond_type
O4    Zn1   S    
C2    C4    S    
O3    Zn2   S    
C19   N4    T    
C3    C14   A    
C27   N2    T    
C16   H4    S    
O6    Zn2   S    
O5    Zn1   S    
N1    Zn2   S    
C23   C25   T    
C13   H6    S    
C12   O4    A    
C2    O6    A    
C6    C19   S    
C9    C11   A    
C12   C23   S    
C26   C27   S    
C8    C20   S    
C21   N6    T    
C14   H2    S    
C6    C8    A    
C28   O7    A    
O1    Zn1   S    
C3    C28   S    
C18   N3    T    
O2    Zn2   S    
C15   H1    S    
O7    Zn2   S    
C13   C15   A    
C4    C15   A    
C17   H3    S    
C11   C14   A    
C22   C24   T    
C28   O5    A    
C10   C17   S    
C7    C9    A    
C26   N1    T    
C1    C22   S    
C24   C25   S    
C4    C6    A    
C11   H5    S    
C5    C7    A    
C20   N5    T    
O8    Zn1   S    
C12   O2    A    
C5    C18   S    
C2    O8    A    
C7    C21   S    
C1    O3    A    
C8    C10   A    
N2    Zn1   S    
C1    O1    A    
C9    C16   S    
C16   C17   D    
C3    C5    A    
C10   C13   A    
