data_mof_unit_37633.cif
_audit_creation_date              2012-12-10T17:02:29-0500
_audit_creation_method            fapswitch 2.2
_symmetry_space_group_name_H-M    P1
_symmetry_Int_Tables_number       1
_space_group_crystal_system       triclinic
_cell_length_a                    10.903556
_cell_length_b                    11.190126
_cell_length_c                    9.83981
_cell_angle_alpha                 111.853905
_cell_angle_beta                  96.128962
_cell_angle_gamma                 90.612882
_cell_volume                      1106.27294004

loop_
_atom_site_label
_atom_site_type_symbol
_atom_type_description
_atom_site_fract_x
_atom_site_fract_y
_atom_site_fract_z
_atom_type_partial_charge
C1    C     C_R   0.490750 0.253990 0.440141 0.787405
C2    C     C_R   0.506681 0.745965 0.559643 0.793976
C3    C     C_2   0.485241 0.113915 0.404778 -0.167354
C4    C     C_2   0.510103 0.885646 0.592358 -0.202051
C5    C     C_2   0.469544 0.068039 0.510637 -0.179720
C6    C     C_2   0.472027 0.929281 0.485092 -0.219997
C7    C     C_2   0.496069 0.519982 0.082760 -0.131698
C8    C     C_2   0.489187 0.492199 0.919737 -0.138574
C9    C     C_R   0.263024 0.501950 0.505471 0.789940
C10   C     C_R   0.737268 0.498980 0.495063 0.791068
C11   C     C_R   0.140960 0.665502 0.766485 -0.243577
C12   C     C_R   0.861506 0.331149 0.236429 -0.214212
C13   C     C_R   0.081865 0.751040 0.880370 0.483093
C14   C     C_R   0.922841 0.248539 0.121359 0.438442
C15   C     C_R   0.958507 0.777513 0.851272 -0.099495
C16   C     C_R   0.047224 0.224371 0.151061 -0.204685
C17   C     C_R   0.892786 0.702613 0.715157 -0.243697
C18   C     C_R   0.109797 0.298218 0.288872 -0.228240
C19   C     C_R   0.945283 0.597154 0.611152 0.050717
C20   C     C_R   0.056009 0.402996 0.391481 0.056357
C21   C     C_R   0.073881 0.585732 0.630192 -0.002697
C22   C     C_R   0.927479 0.413307 0.372252 -0.002097
C23   C     C_R   0.871201 0.505861 0.488071 -0.133971
C24   C     C_R   0.129646 0.494279 0.513693 -0.136137
Cu1   Cu    Cu3+1 0.521920 0.521810 0.644910 0.977602
Cu2   Cu    Cu3+1 0.478080 0.478190 0.355090 0.970013
H1    H     H_    0.238294 0.660506 0.792933 0.203390
H2    H     H_    0.763267 0.331990 0.212215 0.208093
H3    H     H_    0.798889 0.726175 0.691933 0.193677
H4    H     H_    0.203274 0.274885 0.314650 0.185522
H5    H     H_    0.440069 0.860670 0.375315 0.198473
H6    H     H_    0.458502 0.135042 0.621139 0.194077
H7    H     H_    0.424765 0.416276 0.844202 0.178168
H8    H     H_    0.543478 0.608343 0.160227 0.204715
N1    N     N_2   0.445130 0.445420 0.137360 -0.285544
N2    N     N_2   0.554870 0.554580 0.862640 -0.242532
O1    O     O_R   0.511700 0.332340 0.577400 -0.592350
O2    O     O_R   0.488300 0.667660 0.422600 -0.600499
O3    O     O_R   0.474680 0.295500 0.332650 -0.550437
O4    O     O_R   0.525320 0.704500 0.667350 -0.522273
O5    O     O_R   0.338170 0.518410 0.622370 -0.600750
O6    O     O_R   0.661830 0.481590 0.377630 -0.584364
O7    O     O_R   0.301150 0.481570 0.377630 -0.593989
O8    O     O_R   0.698850 0.518430 0.622370 -0.591353
C25   C     C_2   0.114629 0.119846 0.047418 1.009423
O9    O     O_2   0.198227 0.071603 0.098434 -0.465669
O10   O     O_R   0.088770 0.075224 0.894121 -0.697217
H9    H     H_    0.051410 0.140979 0.857432 0.306335
C26   C     C_2   0.896331 0.882098 0.959811 0.925622
O11   O     O_2   0.805000 0.926600 0.917425 -0.504671
O12   O     O_R   0.940344 0.930233 0.109913 -0.778812
H10   H     H_    0.887948 0.999575 0.171343 0.349599
O13   O     O_3   0.149406 0.815163 0.016296 -0.504188
C27   C     C_3   0.129278 0.750928 0.112481 0.167974
H11   H     H_    0.037271 0.697496 0.087204 0.119441
H12   H     H_    0.132579 0.824679 0.225960 0.210459
C28   C     C_3   0.231005 0.659467 0.112843 -0.857709
H13   H     H_    0.321704 0.713834 0.150189 0.274878
H14   H     H_    0.214376 0.609808 0.188599 0.230252
H15   H     H_    0.232617 0.586679 0.000121 0.222632
O14   O     O_3   0.857282 0.185706 0.984058 -0.531453
C29   C     C_3   0.857926 0.266009 0.901434 0.072551
H16   H     H_    0.853737 0.202887 0.783036 0.206026
H17   H     H_    0.943640 0.330085 0.928074 0.094967
C30   C     C_3   0.745909 0.347389 0.919311 -0.685757
H18   H     H_    0.753682 0.421602 0.032161 0.254269
H19   H     H_    0.741828 0.395648 0.838877 0.227292
H20   H     H_    0.659555 0.287383 0.899640 0.282268
C31   C     C_2   0.564848 0.973818 0.739572 0.957376
O15   O     O_2   0.646633 0.053324 0.750680 -0.569126
O16   O     O_R   0.526242 0.963048 0.865079 -0.666022
H21   H     H_    0.576341 0.024167 0.957926 0.414111
C32   C     C_2   0.505990 0.027214 0.254959 0.918503
O17   O     O_2   0.606166 0.032646 0.211969 -0.585136
O18   O     O_R   0.411502 0.939640 0.164178 -0.702290
H22   H     H_    0.436263 0.884958 0.064393 0.381100
C33   C     C_2   0.635897 0.661223 0.955569 0.987184
O19   O     O_2   0.625487 0.765416 0.944280 -0.539842
O20   O     O_R   0.728877 0.646784 0.056832 -0.833720
H23   H     H_    0.779316 0.730060 0.116178 0.333097
C34   C     C_2   0.399535 0.319212 0.041141 1.037509
O21   O     O_2   0.462552 0.227751 0.030754 -0.542400
O22   O     O_R   0.283022 0.298059 0.959700 -0.782008
H24   H     H_    0.235293 0.378860 0.984934 0.270717

loop_
_geom_bond_atom_site_label_1
_geom_bond_atom_site_label_2
_ccdc_geom_bond_type
C10   O6    A    
C17   H3    S    
C32   O17   D    
C2    C4    S    
C34   O21   D    
N1    C34   S    
C7    C8    S    
C25   O9    D    
C12   H2    S    
C19   C21   A    
N2    C33   S    
Cu1   O4    S    
C5    C6    S    
Cu2   O3    S    
C28   H14   S    
C12   C22   A    
C8    N2    D    
C31   O16   S    
C29   H17   S    
Cu1   O1    S    
O22   H24   S    
C26   O12   S    
C18   H4    S    
C1    O1    A    
C5    H6    S    
C25   O10   S    
C6    H5    S    
C32   O18   S    
O14   C29   S    
Cu1   O8    S    
C4    C31   S    
C34   O22   S    
Cu2   O7    S    
C13   O13   S    
C33   O20   S    
C27   H12   S    
C9    O7    A    
C10   O8    A    
O12   H10   S    
C20   C24   A    
C4    C6    D    
Cu1   O5    S    
Cu2   O2    S    
C28   H15   S    
C30   H19   S    
Cu1   Cu2   S    
C33   O19   D    
C14   O14   S    
C11   C21   A    
C1    C3    S    
C19   C23   A    
O18   H22   S    
C29   H16   S    
C2    O2    A    
O10   H9    S    
C11   H1    S    
C30   H20   S    
C12   C14   A    
C26   O11   D    
C13   C15   A    
C7    H8    S    
C14   C16   A    
Cu2   O6    S    
C15   C17   A    
C27   H11   S    
C29   C30   S    
C7    N1    D    
C20   C22   A    
C3    C5    D    
C16   C25   S    
C9    C24   S    
O13   C27   S    
C10   C23   S    
C9    O5    A    
O16   H21   S    
C11   C13   A    
C28   H13   S    
C17   C19   A    
C18   C20   A    
C8    H7    S    
C15   C26   S    
C31   O15   D    
C3    C32   S    
C1    O3    A    
Cu1   N2    S    
O20   H23   S    
C2    O4    A    
Cu2   N1    S    
C16   C18   A    
C30   H18   S    
C21   C24   A    
C22   C23   A    
C27   C28   S    
