data_mof_unit_26031.cif
_audit_creation_date              2012-10-26T19:52:28-0400
_audit_creation_method            fapswitch 2.2
_symmetry_space_group_name_H-M    P1
_symmetry_Int_Tables_number       1
_space_group_crystal_system       triclinic
_cell_length_a                    9.646412
_cell_length_b                    10.887832
_cell_length_c                    13.475922
_cell_angle_alpha                 92.765978
_cell_angle_beta                  74.47743
_cell_angle_gamma                 90.508261
_cell_volume                      1362.13027919

loop_
_atom_site_label
_atom_site_type_symbol
_atom_type_description
_atom_site_fract_x
_atom_site_fract_y
_atom_site_fract_z
_atom_type_partial_charge
Br1   Br    Br    0.767939 0.758383 0.258572 -0.605913
Br2   Br    Br    0.633315 0.157073 0.679764 -0.466342
Br3   Br    Br    0.365682 0.841223 0.264104 -0.551305
Br4   Br    Br    0.091774 0.670784 0.678255 -0.501476
Br5   Br    Br    0.252837 0.287929 0.244461 -0.575425
C1    C     C_R   0.499218 0.737128 0.504756 0.591537
C2    C     C_R   0.383739 0.498135 0.811142 0.017814
C3    C     C_R   0.454599 0.931690 0.434916 0.117803
C4    C     C_R   0.424456 0.502695 0.698939 0.558280
C5    C     C_R   0.502576 0.870211 0.506925 0.025674
C6    C     C_R   0.562266 0.939098 0.576101 -0.150759
C7    C     C_R   0.559503 0.068611 0.578382 0.136989
C8    C     C_R   0.497023 0.129388 0.510082 0.004308
C9    C     C_R   0.452366 0.058098 0.435919 -0.084245
C10   C     C_3   0.313396 0.056975 0.407816 -0.221010
C11   C     C_3   0.319755 0.917784 0.402650 0.388569
C12   C     C_R   0.436597 0.524346 0.977879 0.035937
C13   C     C_R   0.956951 0.447913 0.419439 0.123278
C14   C     C_R   0.897950 0.564970 0.573172 0.016165
C15   C     C_R   0.045597 0.566291 0.573291 0.255171
C16   C     C_R   0.497879 0.262975 0.504895 0.574522
C17   C     C_R   0.102897 0.447849 0.418913 0.114628
C18   C     C_3   0.117583 0.317890 0.376626 0.033306
C19   C     C_3   0.964878 0.324344 0.366169 0.180747
C20   C     C_R   0.575231 0.512867 0.302109 0.579503
C21   C     C_R   0.725180 0.693646 0.061989 -0.073118
C22   C     C_R   0.610500 0.553693 0.195010 0.019250
C23   C     C_R   0.470048 0.550588 0.872563 -0.006348
C24   C     C_R   0.259507 0.432237 0.857152 -0.146820
C25   C     C_R   0.215113 0.424640 0.963079 -0.094669
C26   C     C_R   0.298420 0.476652 0.024024 0.289644
C27   C     C_3   0.076463 0.861864 0.453781 0.009589
C28   C     C_3   0.962980 0.930962 0.537672 -0.346796
C29   C     C_3   0.837875 0.143410 0.356196 -0.006216
C30   C     C_3   0.964127 0.082350 0.274833 -0.399427
C31   C     C_3   0.171946 0.622931 0.133755 0.005974
C32   C     C_3   0.095286 0.654395 0.244859 -0.326189
C33   C     C_R   0.534542 0.559041 0.036034 0.038237
C34   C     C_R   0.644012 0.644409 0.997415 0.020459
C35   C     C_R   0.665504 0.683105 0.897002 -0.113939
C36   C     C_R   0.582301 0.634351 0.834337 -0.102403
C37   C     C_R   0.528486 0.507857 0.130550 -0.100429
C38   C     C_R   0.701559 0.654414 0.162738 0.161939
Cu1   Cu    Cu3+1 0.359330 0.500020 0.500010 1.072037
Cu2   Cu    Cu3+1 0.640670 0.499980 0.499990 1.027171
H1    H     H_    0.225503 0.094574 0.472598 0.138636
H2    H     H_    0.111252 0.385257 0.998724 0.147061
H3    H     H_    0.601253 0.669049 0.758162 0.126308
H4    H     H_    0.605479 0.892738 0.630711 0.136278
H5    H     H_    0.041283 0.765163 0.449169 0.160815
H6    H     H_    0.080230 0.901162 0.378898 0.134496
H7    H     H_    0.989545 0.030114 0.541003 0.181748
H8    H     H_    0.857646 0.921401 0.519958 0.126595
H9    H     H_    0.954564 0.892598 0.613827 0.198759
H10   H     H_    0.760984 0.184075 0.318248 0.147818
H11   H     H_    0.780311 0.069327 0.403937 0.176884
H12   H     H_    0.324993 0.093864 0.331471 0.192744
H13   H     H_    0.932775 0.989837 0.250671 0.168477
H14   H     H_    0.995223 0.137627 0.205279 0.171029
H15   H     H_    0.058283 0.073463 0.306113 0.182484
H16   H     H_    0.092015 0.627972 0.087626 0.142813
H17   H     H_    0.257274 0.692812 0.107465 0.182793
H18   H     H_    0.167468 0.638088 0.294540 0.207077
H19   H     H_    0.063589 0.752575 0.253085 0.150706
H20   H     H_    0.998062 0.596696 0.268146 0.176378
H21   H     H_    0.820372 0.617155 0.632511 0.125935
H22   H     H_    0.128727 0.255701 0.436224 0.147971
H23   H     H_    0.954938 0.335003 0.286329 0.133601
H24   H     H_    0.747730 0.750086 0.866423 0.141348
H25   H     H_    0.799771 0.768002 0.036677 0.149507
H26   H     H_    0.459374 0.431870 0.154618 0.218165
H27   H     H_    0.193229 0.390589 0.811355 0.162053
N1    N     N_R   0.852320 0.499070 0.499340 -0.238457
N2    N     N_R   0.148230 0.499110 0.499340 -0.237880
O1    O     O_R   0.381190 0.680360 0.500000 -0.411759
O2    O     O_3   0.879547 0.232445 0.423293 -0.528653
O3    O     O_3   0.231701 0.503923 0.126290 -0.538744
O4    O     O_R   0.618780 0.680320 0.499990 -0.517928
O5    O     O_R   0.323230 0.500000 0.650990 -0.470971
O6    O     O_R   0.560820 0.499960 0.650980 -0.506280
O7    O     O_R   0.381220 0.319680 0.500010 -0.513616
O8    O     O_R   0.618810 0.319640 0.500000 -0.421006
O9    O     O_R   0.439180 0.500040 0.349020 -0.464482
O10   O     O_R   0.676770 0.500000 0.349010 -0.497554
O11   O     O_3   0.209557 0.863005 0.479141 -0.506854

loop_
_geom_bond_atom_site_label_1
_geom_bond_atom_site_label_2
_ccdc_geom_bond_type
C29   H11   S    
C2    C24   A    
C14   C15   A    
Cu1   O9    S    
Br2   C7    S    
C1    O1    A    
C28   H7    S    
C30   H13   S    
C13   C19   S    
Cu2   N1    S    
C31   C32   S    
C33   C37   A    
C31   O3    S    
C25   C26   A    
C21   C34   A    
C1    O4    A    
C10   C11   S    
C23   C36   A    
C14   H21   S    
C30   H14   S    
C29   C30   S    
C4    O5    A    
C18   H22   S    
Br1   C38   S    
Cu2   O8    S    
C32   H20   S    
C20   O10   A    
C18   C19   S    
Cu2   O4    S    
C24   H27   S    
C29   H10   S    
C3    C11   S    
C8    C9    A    
C10   H12   S    
C31   H17   S    
C32   H18   S    
C21   C38   A    
C26   O3    S    
C28   H8    S    
C35   H24   S    
C15   N2    A    
C25   H2    S    
C14   N1    A    
Cu1   O7    S    
C34   C35   A    
C19   O2    S    
C2    C23   A    
C30   H15   S    
C4    O6    A    
Cu1   O1    S    
C27   H6    S    
C24   C25   A    
C6    H4    S    
Br5   C18   S    
C9    C10   S    
C8    C16   S    
C16   O8    A    
Cu1   N2    S    
C27   H5    S    
C35   C36   A    
C16   O7    A    
C13   N1    A    
C11   O11   S    
C21   H25   S    
Cu2   O10   S    
C17   N2    A    
C31   H16   S    
C32   H19   S    
Cu1   Cu2   S    
C28   H9    S    
C2    C4    S    
C3    C9    A    
C13   C17   A    
C12   C23   A    
Cu1   O5    S    
C1    C5    S    
C6    C7    A    
C20   C22   S    
C27   C28   S    
C22   C37   A    
C33   C34   A    
C12   C26   A    
C27   O11   S    
C37   H26   S    
C36   H3    S    
Cu2   O6    S    
C12   C33   A    
C5    C6    A    
C19   H23   S    
Br4   C15   S    
C22   C38   A    
C7    C8    A    
C3    C5    A    
C20   O9    A    
C17   C18   S    
C10   H1    S    
Br3   C11   S    
C29   O2    S    
