data_mof_unit_31848.cif
_audit_creation_date              2013-03-05T16:48:18-0500
_audit_creation_method            fapswitch 2.2
_symmetry_space_group_name_H-M    P1
_symmetry_Int_Tables_number       1
_space_group_crystal_system       triclinic
_cell_length_a                    23.477289
_cell_length_b                    8.9559
_cell_length_c                    8.083289
_cell_angle_alpha                 90.316766
_cell_angle_beta                  89.567128
_cell_angle_gamma                 89.559418
_cell_volume                      1699.46910998

loop_
_atom_site_label
_atom_site_type_symbol
_atom_site_description
_atom_site_fract_x
_atom_site_fract_y
_atom_site_fract_z
_atom_type_partial_charge
O1    O     O_R   0.500000 0.285350 0.636850 -0.615778
O2    O     O_R   0.500000 0.714650 0.363150 -0.616439
O3    O     O_R   0.500000 0.714650 0.636850 -0.615443
O4    O     O_R   0.500000 0.285350 0.363150 -0.613911
C1    C     C_R   0.499678 0.217861 0.499726 0.933033
C2    C     C_R   0.499981 0.782146 0.500287 0.935984
O5    O     O_R   0.416160 0.500000 0.636910 -0.623687
O6    O     O_R   0.583840 0.500000 0.363090 -0.622100
O7    O     O_R   0.583840 0.500000 0.636910 -0.622051
O8    O     O_R   0.416160 0.500000 0.363090 -0.624751
C3    C     C_R   0.209394 0.518972 0.470843 0.200982
C4    C     C_R   0.793496 0.501215 0.466348 0.218900
C5    C     C_R   0.389426 0.500844 0.500492 0.893525
C6    C     C_R   0.611319 0.497149 0.498965 0.878574
Zn1   Zn    Zn3+2 0.500000 0.500000 0.682780 0.973066
Zn2   Zn    Zn3+2 0.500000 0.500000 0.317220 0.972488
H1    H     H_    0.220822 0.751551 0.413623 0.168556
H2    H     H_    0.783533 0.402023 0.227764 0.150121
H3    H     H_    0.211916 0.284727 0.532013 0.176596
H4    H     H_    0.792419 0.594793 0.710206 0.158801
C7    C     C_R   0.300401 0.645576 0.470894 0.096706
C8    C     C_R   0.702718 0.427765 0.352185 0.101724
C9    C     C_R   0.296061 0.375859 0.517325 0.088945
C10   C     C_R   0.707222 0.552722 0.625019 0.090873
C11   C     C_R   0.327783 0.507826 0.500186 -0.074052
C12   C     C_R   0.674193 0.491283 0.493581 -0.101795
C13   C     C_R   0.880158 0.645138 0.474571 0.580379
C14   C     C_R   0.122480 0.414464 0.359824 0.589508
C15   C     C_R   0.884592 0.386142 0.404393 0.536033
C16   C     C_R   0.117737 0.639376 0.518264 0.546068
N1    N     N_R   0.854171 0.510975 0.448849 -0.359053
N2    N     N_R   0.148622 0.524235 0.449423 -0.351159
C17   C     C_R   0.943137 0.395617 0.370882 -0.144387
C18   C     C_R   0.059472 0.654566 0.484891 -0.137426
C19   C     C_R   0.939910 0.654452 0.471551 -0.114628
C20   C     C_R   0.062741 0.406474 0.356857 -0.103327
C21   C     C_R   0.971402 0.527356 0.418506 -0.140626
C22   C     C_R   0.031158 0.530094 0.418191 -0.139785
C23   C     C_R   0.974387 0.275207 0.299078 0.343475
C24   C     C_R   0.028521 0.786766 0.524160 0.341301
C25   C     C_R   0.968516 0.786375 0.519131 0.471592
C26   C     C_R   0.034359 0.279345 0.294986 0.463469
C27   C     C_1   0.499755 0.065119 0.499599 -0.207889
C28   C     C_1   0.499874 0.934888 0.500400 -0.204947
C29   C     C_R   0.241705 0.648045 0.447657 -0.122136
C30   C     C_R   0.761590 0.441381 0.338294 -0.143551
C31   C     C_R   0.236766 0.384496 0.511944 -0.109677
C32   C     C_R   0.766564 0.551351 0.610682 -0.133950
N3    N     N_1   0.500000 0.500000 0.073640 -0.040834
N4    N     N_1   0.500000 0.500000 0.926360 -0.039600
O9    O     O_2   0.847986 0.768181 0.503545 -0.464329
O10   O     O_2   0.154306 0.314268 0.273886 -0.490445
O11   O     O_2   0.858433 0.252486 0.399526 -0.492821
O12   O     O_2   0.142794 0.734620 0.624781 -0.525513
O13   O     O_3   0.947618 0.154979 0.226815 -0.712699
H5    H     H_    0.914999 0.194196 0.162634 0.367343
O14   O     O_3   0.055621 0.918766 0.562095 -0.726809
H6    H     H_    0.089797 0.926349 0.489955 0.378449
O15   O     O_3   0.936991 0.912548 0.561372 -0.646870
H7    H     H_    0.962240 0.995527 0.593629 0.388179
O16   O     O_3   0.066103 0.159893 0.233955 -0.691470
H8    H     H_    0.041142 0.074876 0.206619 0.381443
C33   C     C_3   0.332645 0.790865 0.465606 -0.435737
C34   C     C_3   0.347837 0.842844 0.640166 -0.823644
H9    H     H_    0.308427 0.870158 0.711347 0.272570
H10   H     H_    0.372035 0.755838 0.707335 0.274800
H11   H     H_    0.374762 0.943808 0.633790 0.243946
H12   H     H_    0.371781 0.779050 0.388525 0.211453
H13   H     H_    0.306106 0.878767 0.407287 0.221520
C35   C     C_3   0.673555 0.339367 0.215492 -0.387986
C36   C     C_3   0.649486 0.192510 0.280064 -0.778163
H14   H     H_    0.684443 0.121435 0.328915 0.266292
H15   H     H_    0.617709 0.211997 0.379950 0.243031
H16   H     H_    0.628463 0.131555 0.177575 0.241926
H17   H     H_    0.640559 0.406301 0.151989 0.223788
H18   H     H_    0.704302 0.309556 0.115051 0.195926
C37   C     C_3   0.324689 0.224543 0.528034 -0.428880
C38   C     C_3   0.343811 0.171091 0.356045 -0.825599
H19   H     H_    0.306188 0.137765 0.282393 0.271550
H20   H     H_    0.366817 0.259194 0.287725 0.276391
H21   H     H_    0.373243 0.074417 0.367019 0.242851
H22   H     H_    0.361829 0.229556 0.612148 0.208205
H23   H     H_    0.294979 0.141119 0.581019 0.224237
C39   C     C_3   0.682110 0.625853 0.779715 -0.391659
C40   C     C_3   0.656521 0.779409 0.742495 -0.773653
H24   H     H_    0.690124 0.854718 0.694482 0.265058
H25   H     H_    0.622112 0.772145 0.649773 0.249886
H26   H     H_    0.638446 0.828864 0.857905 0.241314
H27   H     H_    0.650799 0.552447 0.841432 0.221158
H28   H     H_    0.715635 0.642838 0.874352 0.197243

loop_
_geom_bond_atom_site_label_1
_geom_bond_atom_site_label_2
_geom_bond_distance
_ccdc_geom_bond_type
O13   H5    0.991376 S    
C20   C26   1.414515 A    
C4    C32   1.393292 A    
O3    C2    1.261482 A    
C37   C38   1.530803 S    
C16   O12   1.349908 S    
C17   C23   1.418630 A    
O1    C1    1.259662 A    
C19   C21   1.415265 A    
H1    C29   1.083160 S    
C38   H20   1.107328 S    
C37   H23   1.111398 S    
Zn2   N3    1.968928 S    
C15   C17   1.402202 A    
Zn1   N4    1.968928 S    
C3    C31   1.403406 A    
C23   O13   1.380058 S    
C33   H13   1.109582 S    
C35   C36   1.528452 S    
O1    Zn1   1.955890 S    
O2    Zn2   1.955889 S    
O5    Zn1   2.005707 S    
C1    C27   1.367929 S    
O15   H7    0.989248 S    
O6    Zn2   2.005705 S    
C2    C28   1.367915 S    
C5    C11   1.448111 S    
O2    C2    1.259683 A    
C39   H28   1.112408 S    
H2    C30   1.083816 S    
C13   O9    1.349567 S    
C23   C26   1.408896 A    
C7    C29   1.392211 A    
C40   H25   1.108141 S    
C9    C31   1.394648 A    
C16   C18   1.401994 A    
C13   N1    1.367337 A    
C10   C32   1.397073 A    
C34   H11   1.108456 S    
C14   N2    1.369608 A    
C39   C40   1.528821 S    
C25   O15   1.385759 S    
C4    C30   1.389760 A    
C36   H15   1.107381 S    
C38   H19   1.110742 S    
C13   C19   1.405969 A    
C40   H24   1.111015 S    
C9    C37   1.511246 S    
C34   H10   1.107808 S    
O4    Zn2   1.959921 S    
O7    C6    1.284036 A    
C21   C22   1.403297 A    
C6    C12   1.476939 S    
C26   O16   1.385504 S    
H4    C32   1.083780 S    
C24   C25   1.409679 A    
C8    C30   1.392212 A    
C3    N2    1.438983 S    
C4    N1    1.433827 S    
C35   H18   1.112339 S    
C18   C24   1.417622 A    
C3    C29   1.400193 A    
C39   H27   1.107678 S    
O3    Zn1   1.959920 S    
C40   H26   1.110451 S    
C7    C11   1.408756 A    
C33   H12   1.110291 S    
O6    C6    1.278243 A    
C24   O14   1.380898 S    
C18   C22   1.409040 A    
C10   C12   1.430180 A    
O4    C1    1.261543 A    
O8    C5    1.271556 A    
C36   H16   1.110514 S    
C34   H9    1.110809 S    
C20   C22   1.413184 A    
C10   C39   1.521196 S    
C36   H14   1.110993 S    
C15   N1    1.366926 A    
O8    Zn2   2.000202 S    
C16   N2    1.369235 A    
C14   O10   1.349461 S    
C38   H21   1.107941 S    
O14   H6    0.991290 S    
C15   O11   1.350076 S    
C37   H22   1.110784 S    
C27   C28   1.166370 T    
H3    C31   1.083176 S    
C9    C11   1.408712 A    
O7    Zn1   2.000199 S    
O16   H8    0.989412 S    
C19   C25   1.416316 A    
C17   C21   1.411189 A    
C7    C33   1.511036 S    
C33   C34   1.528988 S    
O5    C5    1.272960 A    
C14   C20   1.405257 A    
N3    N4    1.190506 T    
C8    C12   1.433104 A    
C35   H17   1.106885 S    
C8    C35   1.525288 S    
