data_mof_unit_51516.cif
_audit_creation_date              2013-03-05T15:48:30-0500
_audit_creation_method            fapswitch 2.2
_symmetry_space_group_name_H-M    P1
_symmetry_Int_Tables_number       1
_space_group_crystal_system       triclinic
_cell_length_a                    20.134539
_cell_length_b                    7.096305
_cell_length_c                    13.65536
_cell_angle_alpha                 90.013695
_cell_angle_beta                  103.72496
_cell_angle_gamma                 89.982015
_cell_volume                      1895.37736029

loop_
_atom_site_label
_atom_site_type_symbol
_atom_site_description
_atom_site_fract_x
_atom_site_fract_y
_atom_site_fract_z
_atom_type_partial_charge
O1    O     O_R   0.449830 0.506740 0.599960 -0.588678
O2    O     O_R   0.550170 0.006740 0.400040 -0.588584
O3    O     O_R   0.588980 0.179860 0.596720 -0.606539
O4    O     O_R   0.411020 0.679860 0.403280 -0.606560
C1    C     C_R   0.615466 0.344927 0.621807 0.883524
C2    C     C_R   0.384532 0.844932 0.378196 0.883405
O5    O     O_R   0.452740 0.177340 0.612040 -0.601341
O6    O     O_R   0.547260 0.677340 0.387960 -0.601296
O7    O     O_R   0.412960 0.002070 0.415460 -0.595973
O8    O     O_R   0.587040 0.502070 0.584540 -0.596019
C3    C     C_R   0.436925 0.346285 0.639020 0.976491
C4    C     C_R   0.563091 0.846211 0.360994 0.976239
O9    O     O_3   0.487110 0.337570 0.435490 -0.283862
O10   O     O_3   0.512890 0.837570 0.564510 -0.284024
V1    V     V_3+5 0.502390 0.064650 0.511970 1.132194
V2    V     V_3+5 0.497610 0.564650 0.488030 1.132232
C5    C     C_R   0.612683 0.980682 0.122554 0.238654
C6    C     C_R   0.387289 0.482564 0.877183 0.239228
H1    H     H_    0.518922 0.944846 0.170532 0.119599
H2    H     H_    0.481037 0.447062 0.829134 0.119668
H3    H     H_    0.706262 0.130032 0.029307 0.139590
H4    H     H_    0.293631 0.629759 0.971062 0.140238
C7    C     C_R   0.605207 0.859653 0.286666 -0.143376
C8    C     C_R   0.394837 0.359997 0.713376 -0.144047
C9    C     C_R   0.924736 0.710508 0.291419 -0.099821
C10   C     C_R   0.075426 0.210107 0.708701 -0.099726
C11   C     C_R   0.881897 0.608611 0.337650 -0.053828
C12   C     C_R   0.118340 0.108165 0.662569 -0.053868
C13   C     C_R   0.812269 0.646635 0.314359 -0.237832
C14   C     C_R   0.187951 0.146338 0.685899 -0.238089
C15   C     C_R   0.785423 0.803764 0.254519 0.121455
C16   C     C_R   0.214700 0.303617 0.745690 0.121532
C17   C     C_R   0.827409 0.891231 0.197449 0.109792
C18   C     C_R   0.172654 0.391029 0.802720 0.109918
C19   C     C_R   0.715877 0.861315 0.241057 -0.025945
C20   C     C_R   0.284200 0.361465 0.759091 -0.025507
C21   C     C_R   0.684786 0.960336 0.151090 0.117817
C22   C     C_R   0.315225 0.460975 0.848947 0.116541
C23   C     C_R   0.726823 0.040474 0.093289 -0.224322
C24   C     C_R   0.273147 0.540503 0.906919 -0.225664
C25   C     C_R   0.797122 0.013221 0.118758 -0.247645
C26   C     C_R   0.202875 0.512946 0.881479 -0.247215
C27   C     C_R   0.677008 0.832611 0.315016 0.116742
C28   C     C_R   0.323058 0.332674 0.685110 0.116681
C29   C     C_R   0.573957 0.925943 0.190453 -0.321036
C30   C     C_R   0.426038 0.427430 0.809372 -0.320273
C31   C     C_R   0.897571 0.842351 0.215791 -0.190411
C32   C     C_R   0.102503 0.342103 0.784301 -0.190599
H5    H     H_    0.978053 0.669543 0.305455 0.140267
H6    H     H_    0.022122 0.169076 0.694613 0.140293
H7    H     H_    0.779559 0.552837 0.344281 0.132809
H8    H     H_    0.220720 0.052586 0.656014 0.132768
H9    H     H_    0.902235 0.493848 0.388131 0.149799
H10   H     H_    0.098073 0.993299 0.612113 0.149683
H11   H     H_    0.827027 0.082879 0.073450 0.139855
H12   H     H_    0.172944 0.582330 0.926870 0.139810
C33   C     C_3   0.222452 0.664193 0.181041 -0.423559
C34   C     C_3   0.777544 0.164310 0.819042 -0.423660
H13   H     H_    0.190913 0.551192 0.203787 0.215096
H14   H     H_    0.809090 0.051194 0.796345 0.215070
H15   H     H_    0.225887 0.632300 0.102797 0.160166
H16   H     H_    0.774096 0.132597 0.897296 0.160088
C35   C     C_3   0.294870 0.659666 0.251650 -0.346897
C36   C     C_3   0.705135 0.159766 0.748409 -0.347084
H17   H     H_    0.332708 0.624856 0.206776 0.153830
H18   H     H_    0.667286 0.125142 0.793268 0.153578
H19   H     H_    0.297282 0.544076 0.306576 0.177574
H20   H     H_    0.702730 0.044063 0.693530 0.177602
H21   H     H_    0.160893 0.768724 0.322082 0.069182
H22   H     H_    0.839092 0.268445 0.677964 0.069298
H23   H     H_    0.263690 0.813469 0.431672 0.129049
H24   H     H_    0.736310 0.313367 0.568331 0.129078
C37   C     C_3   0.186044 0.893952 0.297155 0.274893
C38   C     C_3   0.813949 0.393784 0.702862 0.274817
C39   C     C_3   0.236492 0.007433 0.151662 -0.306235
C40   C     C_3   0.763491 0.507633 0.848316 -0.306247
C41   C     C_3   0.188432 0.859867 0.184929 -0.042725
C42   C     C_3   0.811559 0.359916 0.815095 -0.042674
H25   H     H_    0.215287 0.152043 0.150456 0.195414
H26   H     H_    0.784684 0.652210 0.849463 0.195414
H27   H     H_    0.239898 0.976612 0.073071 0.131069
H28   H     H_    0.760093 0.476991 0.926921 0.131155
C43   C     C_3   0.313929 0.852430 0.306138 0.091025
C44   C     C_3   0.686065 0.352452 0.693876 0.091055
C45   C     C_3   0.259624 0.905796 0.365213 -0.486347
C46   C     C_3   0.740371 0.405691 0.634805 -0.486414
C47   C     C_3   0.309663 0.002828 0.222284 -0.366105
C48   C     C_3   0.690315 0.502981 0.777702 -0.365886
H29   H     H_    0.347747 0.970671 0.177389 0.134314
H30   H     H_    0.652239 0.470936 0.822612 0.134386
H31   H     H_    0.322413 0.144711 0.256327 0.171224
H32   H     H_    0.677542 0.644827 0.743633 0.171247
H33   H     H_    0.270307 0.051066 0.394516 0.198904
H34   H     H_    0.729685 0.550965 0.605522 0.198895
O11   O     O_R   0.912980 0.203550 0.915410 -0.604287
O12   O     O_R   0.087020 0.703550 0.084590 -0.604325
O13   O     O_R   0.047270 0.535570 0.887960 -0.584650
O14   O     O_R   0.952730 0.035570 0.112040 -0.584697
C49   C     C_R   0.063758 0.366687 0.861888 0.954394
C50   C     C_R   0.936242 0.866753 0.138115 0.954313
O15   O     O_R   0.911030 0.532970 0.903270 -0.562509
O16   O     O_R   0.088970 0.032970 0.096730 -0.562488
O17   O     O_R   0.949820 0.708150 0.099970 -0.603545
O18   O     O_R   0.050180 0.208150 0.900030 -0.603589
C51   C     C_R   0.883147 0.365226 0.883940 0.879382
C52   C     C_R   0.116848 0.865201 0.116076 0.879363
O19   O     O_3   0.012900 0.375230 0.064480 -0.268679
O20   O     O_3   0.987100 0.875230 0.935520 -0.268685
V3    V     V_3+5 0.997610 0.648190 0.988040 1.213945
V4    V     V_3+5 0.002390 0.148190 0.011960 1.213964
N1    N     N_R   0.145832 0.060821 0.310267 0.236485
O21   O     O_R   0.166811 0.229842 0.296210 -0.446514
O22   O     O_R   0.089763 0.040713 0.340849 -0.427732
N2    N     N_R   0.854171 0.560529 0.689708 0.236462
O23   O     O_R   0.833206 0.729629 0.703740 -0.446438
O24   O     O_R   0.910234 0.540224 0.659121 -0.427783
C53   C     C_3   0.575291 0.059336 0.020782 -0.364744
C54   C     C_3   0.580592 0.928395 0.933901 -0.927412
H35   H     H_    0.633997 0.915637 0.926254 0.254042
H36   H     H_    0.561641 0.785743 0.946182 0.254161
H37   H     H_    0.548979 0.985231 0.862029 0.256898
H38   H     H_    0.520057 0.077068 0.017647 0.191171
H39   H     H_    0.594806 0.201848 0.009045 0.177119
C55   C     C_3   0.424586 0.563717 0.978388 -0.364695
C56   C     C_3   0.420606 0.433271 0.066009 -0.928054
H40   H     H_    0.367201 0.413427 0.072420 0.254655
H41   H     H_    0.442406 0.293362 0.055568 0.254698
H42   H     H_    0.450467 0.495015 0.137753 0.256598
H43   H     H_    0.479593 0.584077 0.980880 0.192104
H44   H     H_    0.404258 0.705440 0.989742 0.177074
C57   C     C_3   0.711402 0.796142 0.426064 -0.406017
C58   C     C_3   0.698424 0.950385 0.497042 -0.843257
H45   H     H_    0.684416 0.085237 0.456120 0.253880
H46   H     H_    0.657524 0.905684 0.533887 0.264482
H47   H     H_    0.745384 0.974211 0.557551 0.257016
H48   H     H_    0.693751 0.657837 0.447859 0.183761
H49   H     H_    0.767540 0.792792 0.441522 0.234977
C59   C     C_3   0.288650 0.296037 0.574072 -0.405911
C60   C     C_3   0.301526 0.450292 0.503062 -0.843302
H50   H     H_    0.315463 0.585204 0.543968 0.253833
H51   H     H_    0.342444 0.405700 0.466205 0.264425
H52   H     H_    0.254549 0.473977 0.442557 0.257099
H53   H     H_    0.306364 0.157761 0.552270 0.183746
H54   H     H_    0.232515 0.292549 0.558647 0.234935

loop_
_geom_bond_atom_site_label_1
_geom_bond_atom_site_label_2
_geom_bond_distance
_ccdc_geom_bond_type
C34   H16   1.110265 S    
C43   C47   1.552878 S    
C35   H17   1.112780 S    
O14   V4    2.038524 S    
C47   H31   1.113131 S    
C11   C13   1.388367 A    
N1    O21   1.301075 A    
O1    C3    1.309483 A    
O2    C4    1.309588 A    
C2    O7    1.300737 A    
N2    O23   1.301078 A    
C23   C25   1.388550 A    
O5    C3    1.315169 A    
C4    C7    1.472025 S    
C42   C51   1.523097 S    
C7    C29   1.396839 A    
C16   C20   1.427940 A    
C41   C52   1.523081 S    
C19   C21   1.424817 A    
C5    C29   1.400693 A    
C59   H53   1.108469 S    
C10   H6    1.084372 S    
C60   H52   1.111150 S    
C33   H13   1.112113 S    
O15   V3    2.022447 S    
C38   N2    1.469003 S    
C3    C8    1.471986 S    
C7    C27   1.418083 A    
O20   V3    1.755916 S    
C54   H35   1.108399 S    
C36   C44   1.560809 S    
C14   H8    1.082514 S    
C46   H34   1.108232 S    
C26   H12   1.080153 S    
H23   C45   1.106586 S    
C45   H33   1.108244 S    
C25   H11   1.080189 S    
C48   H32   1.113136 S    
C58   H45   1.110345 S    
C18   C26   1.401705 A    
H22   C38   1.115451 S    
C56   H42   1.110724 S    
C15   C17   1.421409 A    
C33   C35   1.545837 S    
C19   C27   1.431496 A    
C40   C48   1.558059 S    
C5    C53   1.520965 S    
C24   C26   1.388428 A    
C49   O18   1.296056 A    
C53   H39   1.110429 S    
O6    V2    2.038480 S    
C22   C24   1.407366 A    
O15   C51   1.315972 A    
O19   V3    2.187334 S    
C6    C30   1.400605 A    
O13   C49   1.314862 A    
C37   N1    1.468988 S    
C54   H36   1.108675 S    
C34   C36   1.545836 S    
C21   C23   1.407234 A    
C35   H19   1.104857 S    
C33   C41   1.554584 S    
O4    C2    1.298864 A    
C57   H48   1.108457 S    
C40   H28   1.113130 S    
C1    C44   1.525830 S    
C12   H10   1.082679 S    
C39   H27   1.113130 S    
O5    V1    2.037976 S    
C16   C18   1.421357 A    
C50   O17   1.296104 A    
C31   C50   1.467450 S    
C35   C43   1.560907 S    
C54   H37   1.111139 S    
C36   H18   1.112680 S    
O4    V2    2.022245 S    
C53   H38   1.109844 S    
C57   H49   1.099769 S    
O13   V3    2.038020 S    
H24   C46   1.106529 S    
H3    C23   1.080319 S    
O6    C4    1.315075 A    
H4    C24   1.080253 S    
H1    C29   1.084801 S    
C55   H44   1.110315 S    
N1    O22   1.301168 A    
O1    V2    2.031947 S    
C5    C21   1.418367 A    
C38   C46   1.553112 S    
H21   C37   1.115458 S    
O2    V1    2.031677 S    
C39   C41   1.564852 S    
C37   C45   1.553152 S    
C39   C47   1.558008 S    
C43   C45   1.551738 S    
C48   H30   1.113015 S    
O14   C50   1.314795 A    
C47   H29   1.113014 S    
C56   H40   1.108364 S    
C17   C31   1.417944 A    
O19   V4    1.755723 S    
C15   C19   1.427893 A    
O16   V4    2.022230 S    
C18   C32   1.417938 A    
C57   C58   1.524877 S    
C36   H20   1.104810 S    
O3    V1    2.022464 S    
O18   V4    2.035075 S    
C13   H7    1.082520 S    
C32   C49   1.467478 S    
O12   C52   1.318751 A    
C9    C31   1.404678 A    
C28   C59   1.532343 S    
C2    C43   1.525813 S    
C40   H26   1.109969 S    
C40   C42   1.564855 S    
O3    C1    1.298986 A    
O11   V4    2.001735 S    
N2    O24   1.301165 A    
C60   H50   1.110343 S    
C11   H9    1.082687 S    
C33   H15   1.110199 S    
C10   C32   1.404687 A    
C9    C11   1.387228 A    
O12   V3    2.001831 S    
C10   C12   1.387241 A    
O17   V3    2.034796 S    
C8    C30   1.396816 A    
C27   C57   1.532250 S    
O7    V1    2.012576 S    
C17   C25   1.401822 A    
C1    O8    1.300670 A    
C13   C15   1.411967 A    
O8    V2    2.012468 S    
C53   C54   1.530308 S    
C20   C22   1.424996 A    
C14   C16   1.411956 A    
C60   H51   1.108487 S    
C44   C48   1.552948 S    
C39   H25   1.109969 S    
C58   H47   1.111138 S    
C8    C28   1.418009 A    
C12   C14   1.388385 A    
O20   V4    2.187064 S    
C55   H43   1.109445 S    
O16   C52   1.315909 A    
C6    C22   1.418480 A    
C9    H5    1.084375 S    
C20   C28   1.431530 A    
C59   C60   1.525014 S    
C34   C42   1.554638 S    
C58   H46   1.108490 S    
C38   C42   1.563345 S    
O9    V2    1.756081 S    
O11   C51   1.318746 A    
C56   H41   1.108188 S    
C37   C41   1.563361 S    
O10   V1    1.756274 S    
C44   C46   1.551746 S    
C59   H54   1.099773 S    
C34   H14   1.112120 S    
H2    C30   1.084804 S    
C6    C55   1.520828 S    
C55   C56   1.530042 S    
