data_mof_unit_5155.cif
_audit_creation_date              2012-12-10T20:35:55-0500
_audit_creation_method            fapswitch 2.2
_symmetry_space_group_name_H-M    P1
_symmetry_Int_Tables_number       1
_space_group_crystal_system       triclinic
_cell_length_a                    15.733636
_cell_length_b                    10.663605
_cell_length_c                    9.86921
_cell_angle_alpha                 89.889002
_cell_angle_beta                  90.762745
_cell_angle_gamma                 90.057903
_cell_volume                      1655.67857372

loop_
_atom_site_label
_atom_site_type_symbol
_atom_type_description
_atom_site_fract_x
_atom_site_fract_y
_atom_site_fract_z
_atom_type_partial_charge
C1    C     C_R   0.502164 0.260045 0.500415 0.889632
C2    C     C_3   0.951067 0.397647 0.604899 0.053774
C3    C     C_3   0.917324 0.503125 0.508589 0.080824
C4    C     C_3   0.952217 0.632251 0.557981 0.029030
C5    C     C_3   0.051091 0.631132 0.558238 0.368591
C6    C     C_1   0.825759 0.502733 0.506023 0.048925
C7    C     C_1   0.174256 0.500830 0.500991 -0.002700
C8    C     C_1   0.249509 0.500428 0.498572 -0.152562
C9    C     C_R   0.496519 0.063545 0.621943 0.008044
C10   C     C_R   0.514491 0.128690 0.503656 -0.208808
C11   C     C_R   0.550246 0.066367 0.393270 -0.281381
C12   C     C_R   0.338323 0.500041 0.499345 0.888728
C13   C     C_R   0.554029 0.936118 0.394297 0.513637
C14   C     C_R   0.516598 0.871430 0.503181 -0.194827
C15   C     C_R   0.495892 0.935751 0.620611 -0.035243
C16   C     C_3   0.418986 0.925526 0.707686 -0.485597
C17   C     C_3   0.418819 0.068105 0.709926 0.409593
C18   C     C_R   0.445590 0.424165 0.069832 0.098602
C19   C     C_R   0.558193 0.567471 0.073397 -0.198261
C20   C     C_R   0.557326 0.570372 0.928007 0.558848
C21   C     C_R   0.446378 0.422956 0.927592 0.060815
C22   C     C_3   0.351887 0.423219 0.917418 -0.460124
C23   C     C_R   0.503325 0.739900 0.500109 0.905846
C24   C     C_3   0.350551 0.426451 0.071558 0.340568
C25   C     C_R   0.661671 0.500415 0.500823 0.877694
C26   C     C_3   0.050112 0.392306 0.597763 0.174555
C27   C     C_3   0.046932 0.481370 0.361124 -0.585312
C28   C     C_3   0.949208 0.476465 0.363471 -0.420935
C29   C     C_1   0.750474 0.501741 0.503264 -0.120166
C30   C     C_3   0.082795 0.501532 0.506520 0.107858
H1    H     H_    0.925824 0.306067 0.567970 0.123203
H2    H     H_    0.572292 0.117416 0.305388 0.179575
H3    H     H_    0.363326 0.884936 0.652608 0.159917
H4    H     H_    0.433443 0.881057 0.807241 0.223205
H5    H     H_    0.362879 0.108784 0.655590 0.086529
H6    H     H_    0.604612 0.621095 0.130466 0.174210
H7    H     H_    0.066912 0.302592 0.547091 0.095476
H8    H     H_    0.326513 0.509649 0.868380 0.237653
H9    H     H_    0.326571 0.334201 0.874616 0.217890
H10   H     H_    0.324223 0.340730 0.120575 0.084957
H11   H     H_    0.067408 0.559063 0.293456 0.215053
H12   H     H_    0.071645 0.392465 0.317726 0.209610
H13   H     H_    0.927244 0.382130 0.329664 0.195442
H14   H     H_    0.922669 0.545579 0.289715 0.252366
H15   H     H_    0.074677 0.702801 0.484750 0.105654
H16   H     H_    0.929502 0.650419 0.662307 0.213495
N1    N     N_R   0.499430 0.499140 0.142800 -0.104401
N2    N     N_R   0.499430 0.499180 0.857150 -0.141468
O1    O     O_R   0.500010 0.316790 0.614690 -0.611230
O2    O     O_R   0.500000 0.316760 0.385350 -0.631381
O3    O     O_R   0.377150 0.500020 0.614720 -0.617664
O4    O     O_R   0.377140 0.499990 0.385380 -0.573850
O5    O     O_R   0.500000 0.683240 0.614650 -0.592965
O6    O     O_R   0.499990 0.683210 0.385310 -0.563405
O7    O     O_R   0.622860 0.500010 0.614620 -0.554298
O8    O     O_R   0.622850 0.499980 0.385280 -0.632449
Zn1   Zn    Zn3+2 0.500010 0.500020 0.653130 1.006491
Zn2   Zn    Zn3+2 0.499990 0.499980 0.346870 0.996804
Br1   Br    Br    0.110091 0.379657 0.773363 -0.456102
Br2   Br    Br    0.905418 0.413712 0.788600 -0.434972
Br3   Br    Br    0.908613 0.772727 0.449456 -0.617626
O9    O     O_3   0.587411 0.873975 0.284481 -0.618229
C31   C     C_3   0.673338 0.846909 0.314615 -0.254479
H17   H     H_    0.700822 0.795369 0.228264 0.185754
H18   H     H_    0.710990 0.934494 0.328723 0.183239
H19   H     H_    0.679832 0.785651 0.405680 0.168213
O10   O     O_3   0.427504 0.118884 0.843215 -0.599457
C32   C     C_3   0.511648 0.118662 0.895459 -0.230711
H20   H     H_    0.551437 0.188285 0.841431 0.182187
H21   H     H_    0.540871 0.024127 0.891340 0.151587
H22   H     H_    0.510069 0.146855 0.003536 0.173079
O11   O     O_3   0.615724 0.639551 0.854824 -0.567629
C33   C     C_3   0.623683 0.762677 0.905618 -0.273044
H23   H     H_    0.646105 0.824345 0.822749 0.194042
H24   H     H_    0.672308 0.765646 0.987960 0.171420
H25   H     H_    0.562217 0.801723 0.941107 0.150930
O12   O     O_3   0.320168 0.541921 0.121459 -0.561578
C34   C     C_3   0.230924 0.536497 0.130317 -0.245765
H26   H     H_    0.210600 0.460418 0.199995 0.148852
H27   H     H_    0.200776 0.523981 0.028680 0.211187
H28   H     H_    0.207961 0.626559 0.172240 0.183393
O13   O     O_3   0.083341 0.653340 0.691136 -0.560520
C35   C     C_3   0.096455 0.782680 0.712824 -0.245415
H29   H     H_    0.037318 0.837356 0.693652 0.186492
H30   H     H_    0.148901 0.818275 0.648750 0.147995
H31   H     H_    0.115498 0.797013 0.820304 0.203089

loop_
_geom_bond_atom_site_label_1
_geom_bond_atom_site_label_2
_ccdc_geom_bond_type
C31   H18   S    
C18   C21   A    
C33   H23   S    
C19   C20   A    
C27   H12   S    
C25   O8    A    
C3    C6    S    
C18   N1    A    
C7    C8    T    
C4    H16   S    
O12   C34   S    
C18   C24   S    
C3    C28   S    
C19   H6    S    
C2    Br2   S    
C15   C16   S    
C22   H8    S    
O1    Zn1   S    
C16   H4    S    
C13   O9    S    
C32   H20   S    
O3    Zn1   S    
C9    C10   A    
C21   N2    A    
C31   H19   S    
C7    C30   S    
C13   C14   A    
C27   C30   S    
C33   H24   S    
C12   O4    A    
C23   O5    A    
C25   C29   S    
C17   O10   S    
O10   C32   S    
O2    Zn2   S    
N2    Zn1   S    
O5    Zn1   S    
C34   H26   S    
O11   C33   S    
C5    H15   S    
C4    Br3   S    
C28   H14   S    
C2    H1    S    
C14   C23   S    
O9    C31   S    
C1    O2    A    
C16   H3    S    
C27   H11   S    
C35   H29   S    
C8    C12   S    
C6    C29   T    
C2    C26   S    
C20   N2    A    
O4    Zn2   S    
C9    C17   S    
C35   H30   S    
C11   H2    S    
C26   C30   S    
O7    Zn1   S    
C33   H25   S    
C22   C24   S    
C3    C4    S    
C12   O3    A    
C23   O6    A    
C5    C30   S    
O6    Zn2   S    
C1    C10   S    
C25   O7    A    
C4    C5    S    
C26   H7    S    
C28   H13   S    
C2    C3    S    
C9    C15   A    
N1    Zn2   S    
C5    O13   S    
C11   C13   A    
C34   H28   S    
C16   C17   S    
C32   H22   S    
C22   H9    S    
C24   H10   S    
O8    Zn2   S    
C34   H27   S    
C10   C11   A    
C31   H17   S    
C24   O12   S    
C35   H31   S    
C32   H21   S    
O13   C35   S    
C19   N1    A    
C27   C28   S    
C14   C15   A    
C20   O11   S    
C26   Br1   S    
C17   H5    S    
C21   C22   S    
C1    O1    A    
