data_mof_unit_38406.cif
_audit_creation_date              2012-12-11T20:17:05-0500
_audit_creation_method            fapswitch 2.2
_symmetry_space_group_name_H-M    P1
_symmetry_Int_Tables_number       1
_space_group_crystal_system       triclinic
_cell_length_a                    8.30513
_cell_length_b                    17.483181
_cell_length_c                    18.850864
_cell_angle_alpha                 99.919891
_cell_angle_beta                  92.695859
_cell_angle_gamma                 98.628246
_cell_volume                      2658.23703479

loop_
_atom_site_label
_atom_site_type_symbol
_atom_type_description
_atom_site_fract_x
_atom_site_fract_y
_atom_site_fract_z
_atom_type_partial_charge
Ba1   Ba    Ba6+2 0.852650 0.537180 0.468240 1.746352
Ba2   Ba    Ba6+2 0.337190 0.462880 0.531770 1.747355
C1    C     C_3   0.599752 0.769320 0.208412 -0.302737
C2    C     C_3   0.642104 0.739529 0.277641 0.347791
C3    C     C_3   0.387201 0.291243 0.300251 0.324379
C4    C     C_3   0.344339 0.228268 0.231413 -0.276393
C5    C     C_3   0.079605 0.301811 0.720059 0.333994
C6    C     C_3   0.093449 0.281240 0.794998 -0.296397
C7    C     C_3   0.559229 0.256614 0.682397 0.293799
C8    C     C_3   0.548302 0.177039 0.706461 -0.232770
C9    C     C_2   0.279626 0.531049 0.298967 -0.150287
C10   C     C_3   0.387718 0.578360 0.255020 -0.042597
C11   C     C_2   0.349207 0.553945 0.174322 -0.101960
C12   C     C_3   0.184858 0.763692 0.288837 0.336649
C13   C     C_2   0.208330 0.506290 0.146351 -0.062723
C14   C     C_2   0.100686 0.468422 0.198011 -0.111209
C15   C     C_1   0.147552 0.481481 0.269080 0.018870
C16   C     C_R   0.053912 0.489401 0.924966 0.467918
C17   C     C_R   0.158844 0.497262 0.066522 0.447176
C18   C     C_R   0.091461 0.523185 0.800852 -0.125670
C19   C     C_R   0.032076 0.521854 0.729454 0.039655
C20   C     C_R   0.770694 0.451033 0.752214 0.023547
C21   C     C_R   0.830563 0.450270 0.823109 -0.097701
C22   C     C_R   0.991524 0.487331 0.848701 -0.060824
C23   C     C_3   0.116990 0.771727 0.213929 -0.203224
C24   C     C_R   0.871870 0.487816 0.706892 -0.271476
C25   C     C_2   0.447417 0.718027 0.476673 -0.276720
C26   C     C_3   0.366041 0.767935 0.432564 -0.075617
C27   C     C_2   0.415825 0.854294 0.459261 -0.056686
C28   C     C_2   0.562789 0.881246 0.494900 0.042360
C29   C     C_2   0.652093 0.823755 0.524884 -0.092335
C30   C     C_1   0.584779 0.748224 0.517348 0.068275
C31   C     C_R   0.813145 0.134285 0.526509 -0.092691
C32   C     C_R   0.864723 0.215479 0.543506 -0.016916
C33   C     C_R   0.614951 0.237770 0.482514 -0.009775
C34   C     C_3   0.251565 0.699587 0.622495 0.237819
C35   C     C_R   0.562124 0.156523 0.466824 -0.131895
C36   C     C_R   0.660359 0.104023 0.488668 -0.058803
C37   C     C_2   0.626958 0.967241 0.509834 -0.065631
C38   C     C_2   0.612575 0.017945 0.463035 -0.043129
C39   C     C_R   0.761453 0.266454 0.524340 -0.305087
C40   C     C_3   0.280002 0.789677 0.636696 -0.298075
C41   C     C_3   0.937661 0.295652 0.368424 0.295553
C42   C     C_3   0.891615 0.207343 0.342605 -0.375381
C43   C     C_3   0.791097 0.678539 0.700731 0.312096
C44   C     C_3   0.908682 0.744319 0.751517 -0.161312
H1    H     H_    0.326821 0.810893 0.588479 0.068656
H2    H     H_    0.786401 0.194671 0.301455 0.150419
H3    H     H_    0.858144 0.177780 0.388364 0.066944
H4    H     H_    0.866190 0.642892 0.665601 -0.068842
H5    H     H_    0.541545 0.822767 0.221143 0.127711
H6    H     H_    0.981566 0.779979 0.717956 0.026787
H7    H     H_    0.994340 0.717625 0.783150 0.035265
H8    H     H_    0.526581 0.727126 0.303880 -0.200920
H9    H     H_    0.512350 0.723510 0.171932 0.075983
H10   H     H_    0.242894 0.243398 0.198593 0.033522
H11   H     H_    0.452007 0.227428 0.198541 0.083854
H12   H     H_    0.220774 0.789992 0.182224 -0.000996
H13   H     H_    0.220286 0.272810 0.808721 0.175854
H14   H     H_    0.061739 0.329425 0.835611 0.064486
H15   H     H_    0.008361 0.226309 0.796898 0.133715
H16   H     H_    0.689542 0.275791 0.675176 -0.072908
H17   H     H_    0.487283 0.249599 0.629767 0.048998
H18   H     H_    0.608543 0.185264 0.761813 0.131826
H19   H     H_    0.429802 0.582177 0.139473 0.087205
H20   H     H_    0.215120 0.551622 0.818728 0.124783
H21   H     H_    0.301664 0.547906 0.357127 0.057681
H22   H     H_    0.822969 0.493192 0.654126 0.059416
H23   H     H_    0.770243 0.844789 0.554512 0.099026
H24   H     H_    0.894754 0.095048 0.539598 0.082056
H25   H     H_    0.276091 0.817174 0.309470 0.031541
H26   H     H_    0.682303 0.990797 0.564080 0.086112
H27   H     H_    0.340048 0.894509 0.442546 0.085879
H28   H     H_    0.406096 0.655029 0.464974 0.069955
H29   H     H_    0.039616 0.818647 0.219436 0.113487
H30   H     H_    0.366029 0.678200 0.608152 0.017320
H31   H     H_    0.159055 0.679589 0.575986 0.086181
N1    N     N_R   0.182839 0.543763 0.957046 -0.227107
N2    N     N_R   0.233565 0.547765 0.026123 -0.234713
N3    N     N_R   0.032908 0.441654 0.033545 -0.252833
N4    N     N_R   0.981064 0.438004 0.964731 -0.242120
O1    O     O_2   0.865200 0.455450 0.325860 -0.394719
O2    O     O_3   0.682903 0.712604 0.661111 -0.628452
O3    O     O_3   0.059030 0.758261 0.336087 -0.560708
O4    O     O_2   0.324510 0.544570 0.674190 -0.467941
O5    O     O_3   0.071830 0.543290 0.586690 -0.460569
O6    O     O_3   0.531950 0.400150 0.621890 -0.503115
O7    O     O_3   0.198307 0.671138 0.684050 -0.653731
O8    O     O_3   0.606980 0.404400 0.458100 -0.389864
O9    O     O_3   0.107660 0.359170 0.583950 -0.467586
O10   O     O_2   0.202903 0.221176 0.536448 -0.488635
O11   O     O_3   0.117418 0.239470 0.669351 -0.601757
O12   O     O_3   0.117880 0.456770 0.413320 -0.476360
O13   O     O_3   0.582730 0.595670 0.541910 -0.489950
O14   O     O_2   0.334130 0.306180 0.453490 -0.472283
O15   O     O_3   0.519246 0.272807 0.340114 -0.626446
O16   O     O_2   0.433789 0.453811 0.751405 -0.479041
O17   O     O_3   0.501021 0.311205 0.734866 -0.594700
O18   O     O_3   0.657770 0.599920 0.378120 -0.446307
O19   O     O_2   0.690600 0.521865 0.246651 -0.433522
O20   O     O_3   0.993510 0.329502 0.310440 -0.616364
O21   O     O_3   0.722734 0.673817 0.259872 -0.574707
O22   O     O_2   0.855570 0.693850 0.546560 -0.478506
O23   O     O_3   0.082050 0.640900 0.416060 -0.468704
O24   O     O_2   0.047395 0.784093 0.477774 -0.494644
P1    P     P_3+3 0.032830 0.432130 0.335280 1.066543
P2    P     P_3+3 0.680690 0.682340 0.566920 0.990936
P3    P     P_3+3 0.139663 0.740365 0.418050 0.966685
P4    P     P_3+3 0.156880 0.567940 0.664730 0.997557
P5    P     P_3+3 0.074525 0.257369 0.582541 0.955788
P6    P     P_3+3 0.611401 0.590773 0.284952 1.061215
P7    P     P_3+3 0.515926 0.304187 0.433970 1.034683
P8    P     P_3+3 0.560112 0.405708 0.715863 0.960411
C45   C     C_2   0.751192 0.801351 0.331275 0.689335
H32   H     H_    0.768291 0.792096 0.386311 -0.026520
O25   O     O_2   0.823362 0.860925 0.314242 -0.571825
C46   C     C_2   0.397527 0.823816 0.700994 0.585371
H33   H     H_    0.369240 0.811355 0.753861 0.065120
O26   O     O_2   0.524314 0.866585 0.694510 -0.560775
H34   H     H_    0.163201 0.811899 0.644724 0.071265
H35   H     H_    0.828570 0.319515 0.387277 0.065593
H36   H     H_    0.034387 0.306688 0.413286 0.071292
H37   H     H_    0.996433 0.183045 0.318379 0.155084
C47   C     C_2   0.691724 0.624136 0.741517 0.475843
H38   H     H_    0.607315 0.575799 0.710882 0.025127
O27   O     O_2   0.707128 0.631457 0.807238 -0.579292
C48   C     C_2   0.829053 0.800385 0.803321 0.631984
H39   H     H_    0.905879 0.848851 0.838907 -0.036291
O28   O     O_2   0.681190 0.792757 0.806449 -0.526242
H40   H     H_    0.275272 0.292154 0.329660 0.028649
C49   C     C_2   0.436784 0.370017 0.279940 0.441091
H41   H     H_    0.414460 0.379205 0.225029 -0.057891
O29   O     O_2   0.499481 0.425457 0.326034 -0.557414
C50   C     C_2   0.292184 0.146429 0.245948 0.514552
H42   H     H_    0.260137 0.098155 0.200594 0.010636
O30   O     O_2   0.284874 0.132998 0.307276 -0.596052
H43   H     H_    0.711286 0.783339 0.179763 0.117811
H44   H     H_    0.166434 0.356410 0.719376 0.089226
H45   H     H_    0.953479 0.312601 0.709167 -0.074963
H46   H     H_    0.614749 0.138257 0.669508 0.008461
H47   H     H_    0.246163 0.710982 0.283319 -0.006523
C51   C     C_2   0.374669 0.137489 0.704211 0.589533
H48   H     H_    0.301264 0.121130 0.653139 0.010022
O31   O     O_2   0.315533 0.122590 0.759280 -0.558060
C52   C     C_2   0.933491 0.428118 0.170942 0.585846
H49   H     H_    0.855095 0.457306 0.140620 0.049642
O32   O     O_2   0.884486 0.361217 0.179537 -0.564170
H50   H     H_    0.751107 0.422209 0.858282 0.100837
C53   C     C_2   0.559748 0.993331 0.384360 0.513501
H51   H     H_    0.535361 0.037076 0.352642 0.033532
O33   O     O_2   0.550834 0.925867 0.352707 -0.611214
H52   H     H_    0.447705 0.134214 0.434973 0.120131
C54   C     C_2   0.804502 0.349865 0.552270 0.594401
H53   H     H_    0.800678 0.368448 0.608986 -0.117094
O34   O     O_2   0.872028 0.394427 0.515924 -0.544290
C55   C     C_2   0.019688 0.696957 0.171549 0.542474
H54   H     H_    0.963813 0.697421 0.118477 -0.004929
O35   O     O_2   0.002443 0.635786 0.195284 -0.569816

loop_
_geom_bond_atom_site_label_1
_geom_bond_atom_site_label_2
_ccdc_geom_bond_type
C42   H3    S    
C36   C38   S    
C19   C24   A    
Ba2   P4    S    
C7    O17   S    
C12   H25   S    
C34   C40   S    
C12   O3    S    
C40   H34   S    
Ba1   O18   S    
C41   O20   S    
C45   H32   S    
C53   H51   S    
C5    C6    S    
C11   H19   S    
C43   C44   S    
C34   O7    S    
C13   C17   S    
O15   P7    S    
O8    P7    S    
C26   C27   S    
C35   C36   A    
C16   C22   S    
O10   P5    D    
C18   H20   S    
Ba2   O14   S    
C33   C35   A    
O4    P4    D    
O14   P7    D    
C46   O26   D    
C6    H13   S    
C28   C29   S    
C27   H27   S    
C13   C14   S    
C44   H6    S    
O20   P1    S    
C16   N4    A    
Ba2   O4    S    
Ba1   Ba2   S    
C8    C51   S    
Ba2   O9    S    
C34   H30   S    
C1    H9    S    
C20   P8    S    
C18   C22   A    
Ba1   O13   S    
C30   P2    S    
C2    O21   S    
C38   C53   S    
C21   C22   A    
C1    H43   S    
C54   O34   D    
C25   H28   S    
C7    C8    S    
Ba1   O22   S    
C6    H15   S    
C12   H47   S    
C23   C55   S    
C4    H11   S    
O21   P6    S    
C43   O2    S    
C32   C39   A    
C8    H46   S    
C52   O32   D    
C9    H21   S    
C52   H49   S    
C39   C54   S    
C20   C21   A    
C43   C47   S    
O24   P3    D    
O13   P2    S    
C7    H16   S    
C44   C48   S    
Ba2   O13   S    
O5    P4    S    
C17   N3    A    
C37   C38   D    
C1    H5    S    
N1    N2    A    
C14   C15   D    
O17   P8    S    
C50   O30   D    
Ba1   O1    S    
C14   C52   S    
C23   H29   S    
C55   H54   S    
Ba2   O8    S    
C41   C42   S    
C48   O28   D    
C27   C28   D    
O12   P1    S    
C45   O25   D    
C29   C30   D    
C41   H36   S    
C29   H23   S    
C16   N1    A    
O18   P6    S    
C31   C32   A    
Ba2   O6    S    
C10   C11   S    
C17   N2    A    
Ba1   O23   S    
C37   H26   S    
C31   H24   S    
Ba1   P2    S    
O7    P4    S    
C3    H40   S    
C11   C13   D    
C32   P5    S    
C51   O31   D    
C23   H12   S    
O9    P5    S    
C35   H52   S    
O16   P8    D    
C1    C2    S    
O23   P3    S    
C3    O15   S    
C47   O27   D    
C2    C45   S    
Ba1   O5    S    
C41   H35   S    
C9    C15   D    
Ba1   O8    S    
C2    H8    S    
C25   C30   D    
C7    H17   S    
Ba2   O12   S    
C8    H18   S    
C4    H10   S    
N3    N4    A    
C49   O29   D    
C5    H44   S    
C19   P4    S    
C9    C10   S    
C40   C46   S    
C50   H42   S    
C21   H50   S    
Ba1   P1    S    
C42   H37   S    
C31   C36   A    
C34   H31   S    
C24   H22   S    
C53   O33   D    
C4    C50   S    
C15   P1    S    
C6    H14   S    
C5    H45   S    
O11   P5    S    
C3    C4    S    
C43   H4    S    
C26   P3    S    
C5    O11   S    
C44   H7    S    
C55   O35   D    
O3    P3    S    
O2    P2    S    
C28   C37   S    
Ba2   O5    S    
C40   H1    S    
O1    P1    D    
C12   C23   S    
C49   H41   S    
C33   C39   A    
O6    P8    S    
C42   H2    S    
C3    C49   S    
C18   C19   A    
O19   P6    D    
Ba1   O12   S    
C20   C24   A    
C25   C26   S    
C51   H48   S    
O22   P2    D    
C54   H53   S    
C46   H33   S    
C10   P6    S    
C33   P7    S    
C48   H39   S    
C47   H38   S    
