data_mof_unit_7832.cif
_audit_creation_date              2013-03-05T16:05:20-0500
_audit_creation_method            fapswitch 2.2
_symmetry_space_group_name_H-M    P1
_symmetry_Int_Tables_number       1
_space_group_crystal_system       triclinic
_cell_length_a                    10.784151
_cell_length_b                    9.520542
_cell_length_c                    15.923687
_cell_angle_alpha                 89.912775
_cell_angle_beta                  90.133394
_cell_angle_gamma                 90.111743
_cell_volume                      1634.89084796

loop_
_atom_site_label
_atom_site_type_symbol
_atom_site_description
_atom_site_fract_x
_atom_site_fract_y
_atom_site_fract_z
_atom_type_partial_charge
O1    O     O_R   0.319660 0.618740 0.500000 -0.590467
O2    O     O_R   0.319660 0.381260 0.500000 -0.573480
C1    C     C_R   0.262178 0.499938 0.500603 0.791188
O3    O     O_R   0.500020 0.618840 0.379440 -0.577460
O4    O     O_R   0.500020 0.381160 0.379440 -0.585006
C2    C     C_R   0.499575 0.500085 0.340381 0.818774
Cu1   Cu    Cu3+1 0.500020 0.640660 0.500000 0.940013
Cu2   Cu    Cu3+1 0.500020 0.359340 0.500000 0.942968
O5    O     O_R   0.680370 0.618830 0.500010 -0.578350
O6    O     O_R   0.680370 0.381170 0.500010 -0.577311
O7    O     O_R   0.500010 0.618730 0.620560 -0.581658
O8    O     O_R   0.500010 0.381270 0.620560 -0.583387
C3    C     C_R   0.737442 0.500152 0.500016 0.805869
C4    C     C_R   0.500807 0.499918 0.659633 0.830433
C5    C     C_3   0.462546 0.646976 0.048029 0.021840
C6    C     C_3   0.418757 0.377041 0.047279 -0.002574
C7    C     C_3   0.402087 0.398253 0.950755 -0.197099
C8    C     C_3   0.472138 0.648720 0.949475 -0.168885
H1    H     H_    0.379891 0.671122 0.922176 0.151811
H2    H     H_    0.312809 0.452733 0.939694 0.137773
H3    H     H_    0.470484 0.277518 0.054576 0.196279
H4    H     H_    0.532661 0.720810 0.072957 0.197187
C9    C     C_1   0.502493 0.499650 0.748791 -0.188019
C10   C     C_3   0.504053 0.497996 0.083471 -0.003547
C11   C     C_3   0.508638 0.498021 0.916568 -0.062467
C12   C     C_3   0.642221 0.449423 0.951235 -0.088891
C13   C     C_3   0.643629 0.468663 0.053086 -0.137655
C14   C     C_1   0.504678 0.499076 0.823995 -0.181847
C15   C     C_1   0.500814 0.499361 0.176004 -0.119554
C16   C     C_1   0.499851 0.500143 0.251225 -0.191777
C17   C     C_R   0.062370 0.422467 0.438496 0.124630
C18   C     C_R   0.062844 0.576560 0.563028 0.131655
C19   C     C_R   0.933448 0.421971 0.440372 -0.192735
C20   C     C_R   0.933856 0.578519 0.560235 -0.205920
H5    H     H_    0.881637 0.363213 0.393616 0.151653
H6    H     H_    0.881951 0.636366 0.607064 0.135754
C21   C     C_R   0.870522 0.500546 0.500061 -0.080492
C22   C     C_R   0.127792 0.499779 0.500631 -0.073443
C23   C     C_R   0.437346 0.074394 0.439671 -0.028474
C24   C     C_R   0.436731 0.925652 0.439925 -0.017078
H7    H     H_    0.387819 0.130375 0.391021 0.130249
H8    H     H_    0.385639 0.869796 0.391876 0.123630
N1    N     N_R   0.500030 0.852070 0.500020 -0.160061
N2    N     N_R   0.500030 0.147930 0.500020 -0.158092
C25   C     C_R   0.563723 0.925597 0.559935 -0.015141
C26   C     C_R   0.563544 0.074373 0.560019 -0.010042
H9    H     H_    0.615173 0.869651 0.607780 0.122303
H10   H     H_    0.614805 0.130300 0.607955 0.127572
C27   C     C_3   0.341957 0.714914 0.085616 -0.415728
C28   C     C_3   0.219161 0.699069 0.037699 -0.759406
H11   H     H_    0.217267 0.768171 0.981513 0.259057
H12   H     H_    0.199966 0.589804 0.019108 0.244571
H13   H     H_    0.142047 0.733431 0.078914 0.257184
H14   H     H_    0.327353 0.679065 0.151112 0.204202
H15   H     H_    0.357890 0.830177 0.091071 0.225880
C29   C     C_3   0.292555 0.353702 0.093303 -0.331849
C30   C     C_3   0.296474 0.230042 0.154807 -0.839198
H16   H     H_    0.316125 0.130795 0.120780 0.276899
H17   H     H_    0.368626 0.246623 0.203592 0.247675
H18   H     H_    0.205127 0.219480 0.186191 0.253797
H19   H     H_    0.264252 0.447948 0.128886 0.223051
H20   H     H_    0.217361 0.330933 0.047405 0.235463
C31   C     C_2   0.382348 0.261406 0.903032 0.323502
H21   H     H_    0.361741 0.264954 0.836331 0.099828
O9    O     O_2   0.386000 0.147080 0.937893 -0.523974
C32   C     C_2   0.549734 0.768568 0.914156 0.417785
H22   H     H_    0.569755 0.771727 0.847457 0.061709
O10   O     O_2   0.584360 0.866763 0.957597 -0.469820
C33   C     C_2   0.727183 0.588581 0.086375 0.459335
H23   H     H_    0.758391 0.585539 0.151331 0.067063
O11   O     O_2   0.755165 0.691630 0.044809 -0.503421
C34   C     C_2   0.696104 0.338521 0.098063 0.390118
H24   H     H_    0.636354 0.265063 0.130817 0.072661
O12   O     O_2   0.807683 0.315667 0.099356 -0.473096
C35   C     C_2   0.746957 0.529929 0.907852 0.515408
H25   H     H_    0.728614 0.602244 0.856833 0.028628
O13   O     O_2   0.855219 0.508911 0.927042 -0.478344
C36   C     C_2   0.665330 0.297657 0.921824 0.410512
H26   H     H_    0.609059 0.251275 0.872935 0.084401
O14   O     O_2   0.756894 0.231433 0.943475 -0.438468
C37   C     C_3   0.124906 0.342524 0.367987 -0.402628
C38   C     C_3   0.120128 0.184524 0.384304 -0.796411
H27   H     H_    0.169236 0.128070 0.333354 0.225494
H28   H     H_    0.165429 0.159143 0.445162 0.260827
H29   H     H_    0.022559 0.147095 0.385911 0.253655
H30   H     H_    0.076800 0.365710 0.307699 0.206511
H31   H     H_    0.222524 0.375493 0.358492 0.200232
C39   C     C_3   0.126503 0.650241 0.635954 -0.407199
C40   C     C_3   0.171238 0.544702 0.701639 -0.790770
H32   H     H_    0.236236 0.467889 0.673638 0.238344
H33   H     H_    0.219790 0.601019 0.753209 0.239949
H34   H     H_    0.090962 0.486950 0.728526 0.263788
H35   H     H_    0.204527 0.716721 0.614270 0.228141
H36   H     H_    0.061345 0.723486 0.667498 0.203969

loop_
_geom_bond_atom_site_label_1
_geom_bond_atom_site_label_2
_geom_bond_distance
_ccdc_geom_bond_type
C5    C8    1.573046 S    
C32   O10   1.221205 D    
C31   O9    1.221740 D    
C6    H3    1.106298 S    
C20   C21   1.390259 A    
C10   C13   1.607220 S    
C37   C38   1.526923 S    
Cu1   Cu2   2.678319 S    
C23   H7    1.080463 S    
C25   C26   1.416445 A    
C11   C14   1.474639 S    
Cu1   O7    1.930762 S    
C12   C13   1.632469 S    
C12   C36   1.540513 S    
C5    H4    1.104895 S    
O4    C2    1.291001 A    
O7    C4    1.290183 A    
C36   O14   1.221312 D    
C30   H17   1.109461 S    
C27   H14   1.108362 S    
C18   C39   1.519461 S    
C7    H2    1.108111 S    
C29   C30   1.530853 S    
C8    H1    1.105716 S    
C33   O11   1.220435 D    
O5    C3    1.287691 A    
C10   C15   1.474036 S    
C24   N1    1.367204 A    
C1    C22   1.449235 S    
C6    C7    1.559934 S    
C28   H12   1.101108 S    
C17   C19   1.390706 A    
C18   C22   1.421128 A    
C40   H33   1.110946 S    
C3    C21   1.435152 S    
C37   H30   1.112186 S    
C13   C33   1.546594 S    
C24   H8    1.081626 S    
C32   H22   1.084669 S    
C6    C10   1.581063 S    
C8    C11   1.579063 S    
O3    Cu1   1.931281 S    
N2    C26   1.367169 A    
C28   H11   1.109903 S    
C26   H10   1.081604 S    
C25   H9    1.081635 S    
C39   H36   1.112178 S    
C28   H13   1.110656 S    
C34   O12   1.223336 D    
C23   C24   1.416100 A    
C36   H26   1.080316 S    
C30   H18   1.109964 S    
C11   C12   1.610029 S    
C27   H15   1.113896 S    
C19   C21   1.389487 A    
O1    C1    1.288767 A    
C18   C20   1.391789 A    
C4    C9    1.419790 S    
C35   H25   1.082228 S    
C6    C29   1.562598 S    
C15   C16   1.197895 T    
C35   O13   1.222941 D    
Cu2   O8    1.931394 S    
C12   C35   1.529405 S    
C9    C14   1.197709 T    
C40   H34   1.110958 S    
N1    C25   1.367178 A    
C37   H31   1.108572 S    
O3    C2    1.291221 A    
C5    C10   1.590450 S    
C2    C16   1.419703 S    
O8    C4    1.290451 A    
C38   H27   1.109961 S    
C38   H28   1.110729 S    
C29   H20   1.111639 S    
Cu1   N1    2.012738 S    
Cu1   O5    1.956398 S    
C39   H35   1.107439 S    
O1    Cu1   1.955788 S    
O2    Cu2   1.956598 S    
Cu2   N2    2.012738 S    
C34   H24   1.083982 S    
O6    C3    1.288124 A    
O4    Cu2   1.930652 S    
C23   N2    1.366661 A    
C8    C32   1.521508 S    
C38   H29   1.110582 S    
C17   C37   1.517501 S    
C17   C22   1.419653 A    
C7    C11   1.586181 S    
O2    C1    1.289876 A    
C7    C31   1.523632 S    
C30   H16   1.110928 S    
C19   H5    1.085155 S    
C20   H6    1.084936 S    
C5    C27   1.573479 S    
C33   H23   1.087327 S    
C31   H21   1.085108 S    
C39   C40   1.527320 S    
Cu2   O6    1.955592 S    
C27   C28   1.534104 S    
C29   H19   1.105779 S    
C40   H32   1.108777 S    
C13   C34   1.538348 S    
