data_mof_unit_48097.cif
_audit_creation_date              2012-12-10T19:18:42-0500
_audit_creation_method            fapswitch 2.2
_symmetry_space_group_name_H-M    P1
_symmetry_Int_Tables_number       1
_space_group_crystal_system       triclinic
_cell_length_a                    15.729605
_cell_length_b                    14.975991
_cell_length_c                    10.501349
_cell_angle_alpha                 90.314174
_cell_angle_beta                  89.722636
_cell_angle_gamma                 90.662456
_cell_volume                      2473.53445326

loop_
_atom_site_label
_atom_site_type_symbol
_atom_type_description
_atom_site_fract_x
_atom_site_fract_y
_atom_site_fract_z
_atom_type_partial_charge
C1    C     C_R   0.338046 0.499522 0.501412 0.884254
C2    C     C_3   0.956894 0.463303 0.371883 0.611170
C3    C     C_3   0.053572 0.487347 0.382012 -0.610574
C4    C     C_1   0.826194 0.499333 0.503934 0.175244
C5    C     C_1   0.174677 0.498475 0.520332 0.199867
C6    C     C_R   0.500807 0.499649 0.256949 0.942751
C7    C     C_1   0.249668 0.498526 0.511176 -0.006489
C8    C     C_3   0.417339 0.054682 0.594147 0.426928
C9    C     C_3   0.409372 0.944836 0.574633 0.428397
C10   C     C_3   0.591376 0.055744 0.552825 0.357290
C11   C     C_3   0.587114 0.946820 0.568923 0.333525
C12   C     C_3   0.500341 0.498767 0.122354 -0.213386
C13   C     C_3   0.498367 0.090419 0.509628 -0.299183
C14   C     C_3   0.498453 0.909575 0.509289 -0.299424
C15   C     C_3   0.499974 0.948066 0.370850 -0.394239
C16   C     C_3   0.485857 0.050854 0.372665 -0.406080
C17   C     C_1   0.498586 0.809123 0.501715 0.372832
C18   C     C_1   0.498389 0.190924 0.501645 0.392371
C19   C     C_R   0.662214 0.500428 0.499477 0.895577
C20   C     C_R   0.498488 0.500266 0.743043 0.919693
C21   C     C_3   0.422297 0.522128 0.043475 0.123712
C22   C     C_3   0.518816 0.417478 0.037721 0.201299
C23   C     C_3   0.051354 0.593953 0.568107 0.143571
C24   C     C_3   0.440229 0.440497 0.957387 -0.163262
C25   C     C_3   0.498013 0.500841 0.877017 -0.130788
C26   C     C_3   0.479181 0.582811 0.959722 -0.214078
C27   C     C_3   0.576677 0.477345 0.954203 -0.279864
C28   C     C_3   0.556830 0.558157 0.039539 0.336710
C29   C     C_3   0.045560 0.421325 0.608797 0.174228
C30   C     C_3   0.946225 0.429281 0.623464 0.295220
C31   C     C_3   0.952355 0.600239 0.545638 0.312131
C32   C     C_1   0.750950 0.500930 0.500968 0.024797
C33   C     C_3   0.083186 0.499880 0.525209 -0.225329
C34   C     C_3   0.917334 0.497252 0.509532 -0.356272
H1    H     H_    0.392289 0.392604 0.918926 0.200108
H2    H     H_    0.068818 0.548220 0.326803 0.252843
H3    H     H_    0.093583 0.436342 0.333745 0.263029
H4    H     H_    0.810342 0.471324 0.090623 0.397546
H5    H     H_    0.026176 0.221397 0.334595 0.424081
H6    H     H_    0.404040 0.852576 0.916324 0.390096
H7    H     H_    0.489476 0.073855 0.940510 0.403671
H8    H     H_    0.811032 0.114847 0.438568 0.425533
H9    H     H_    0.814987 0.881713 0.552545 0.415891
H10   H     H_    0.188280 0.119812 0.613876 0.415104
H11   H     H_    0.345035 0.791479 0.347774 0.358258
H12   H     H_    0.423535 0.065941 0.333662 0.273661
H13   H     H_    0.671888 0.674946 0.904075 0.357394
H14   H     H_    0.073321 0.653972 0.914371 0.418576
H15   H     H_    0.230804 0.332568 0.778100 0.402277
H16   H     H_    0.845327 0.224114 0.770777 0.408901
H17   H     H_    0.837425 0.769981 0.352896 0.426960
H18   H     H_    0.455620 0.913087 0.305927 0.233299
H19   H     H_    0.526794 0.084436 0.301405 0.253561
H20   H     H_    0.560125 0.934614 0.321774 0.279940
H21   H     H_    0.463393 0.650298 0.924136 0.208305
H22   H     H_    0.639731 0.459963 0.913643 0.189571
H23   H     H_    0.056516 0.362185 0.551084 0.221202
H24   H     H_    0.083614 0.638357 0.497835 0.183303
I1    I     I_    0.641653 0.128884 0.717958 0.016043
I2    I     I_    0.606140 0.899229 0.761645 0.016884
I3    I     I_    0.299855 0.556559 0.116669 -0.199759
I4    I     I_    0.551287 0.284438 0.091264 -0.132384
I5    I     I_    0.877212 0.669450 0.694439 0.028410
I6    I     I_    0.912068 0.470311 0.817367 0.063779
N1    N     N_1   0.498630 0.731150 0.497460 -0.032668
N2    N     N_1   0.498630 0.268850 0.497460 -0.036816
O1    O     O_R   0.377210 0.574260 0.500130 -0.582835
O2    O     O_2   0.969029 0.543667 0.136391 -0.198582
O3    O     O_3   0.839326 0.437698 0.158479 -0.444335
O4    O     O_2   0.869841 0.301445 0.341985 -0.167269
O5    O     O_2   0.972683 0.341050 0.179186 -0.161526
O6    O     O_3   0.033077 0.279839 0.378250 -0.548360
O7    O     O_2   0.287529 0.912245 0.757152 -0.124756
O8    O     O_2   0.370238 0.784940 0.690686 -0.260191
O9    O     O_3   0.432332 0.892852 0.854271 -0.485732
O10   O     O_2   0.444285 0.191801 0.764818 -0.293396
O11   O     O_2   0.340597 0.079957 0.827976 -0.148340
O12   O     O_R   0.377210 0.425740 0.500130 -0.585381
O13   O     O_3   0.496932 0.045611 0.855690 -0.494604
O14   O     O_2   0.670605 0.055569 0.309210 -0.239457
O15   O     O_2   0.665342 0.196493 0.422035 -0.268016
O16   O     O_3   0.772445 0.081981 0.497112 -0.414698
O17   O     O_2   0.672426 0.787992 0.532138 -0.283109
O18   O     O_2   0.697042 0.895036 0.365001 -0.215182
O19   O     O_3   0.769037 0.921382 0.582651 -0.431923
O20   O     O_2   0.328166 0.212984 0.583246 -0.254230
O21   O     O_2   0.296539 0.113021 0.409695 -0.244774
O22   O     O_3   0.234505 0.077215 0.631096 -0.397657
O23   O     O_R   0.500050 0.574220 0.314080 -0.584725
O24   O     O_2   0.234145 0.921466 0.526520 -0.072292
O25   O     O_2   0.317001 0.953281 0.339099 -0.284438
O26   O     O_3   0.325974 0.797576 0.437415 -0.498059
O27   O     O_2   0.590353 0.723100 0.130927 -0.250714
O28   O     O_2   0.677446 0.600741 0.208954 -0.218617
O29   O     O_3   0.705724 0.657826 0.979247 -0.467817
O30   O     O_2   0.187228 0.620075 0.726988 -0.238196
O31   O     O_2   0.092730 0.744922 0.695758 -0.160530
O32   O     O_3   0.043408 0.620011 0.846536 -0.450611
O33   O     O_2   0.121148 0.462613 0.839731 -0.187142
O34   O     O_R   0.500050 0.425780 0.314080 -0.612648
O35   O     O_2   0.059464 0.313119 0.814902 -0.162869
O36   O     O_3   0.200516 0.348097 0.698898 -0.527064
O37   O     O_2   0.806473 0.319781 0.569287 -0.259046
O38   O     O_2   0.943949 0.245288 0.567719 -0.207258
O39   O     O_3   0.877299 0.281197 0.779520 -0.443738
O40   O     O_2   0.979930 0.775975 0.492936 -0.214917
O41   O     O_2   0.984681 0.680557 0.308902 -0.235593
O42   O     O_3   0.836785 0.717827 0.410514 -0.444527
O43   O     O_R   0.622930 0.574200 0.500140 -0.570424
O44   O     O_R   0.622930 0.425800 0.500140 -0.584070
O45   O     O_R   0.500090 0.574240 0.686180 -0.619068
O46   O     O_R   0.500090 0.425760 0.686180 -0.599337
O47   O     O_2   0.845539 0.587920 0.262644 -0.187778
S1    S     S_3+6 0.903502 0.512823 0.231709 0.162776
S2    S     S_3+6 0.095682 0.645330 0.711665 0.140456
S3    S     S_3+6 0.105975 0.387412 0.747575 0.125488
S4    S     S_3+6 0.892867 0.317487 0.629297 0.117762
S5    S     S_3+6 0.939999 0.693939 0.433920 0.101865
S6    S     S_3+6 0.955444 0.344133 0.320387 0.122708
S7    S     S_3+6 0.375491 0.883121 0.720673 0.141286
S8    S     S_3+6 0.424917 0.093230 0.762428 0.107162
S9    S     S_3+6 0.674214 0.097436 0.439257 0.114305
S10   S     S_3+6 0.681230 0.886280 0.505321 0.104611
S11   S     S_3+6 0.318864 0.115861 0.548263 0.134191
S12   S     S_3+6 0.319785 0.908139 0.466240 0.145201
S13   S     S_3+6 0.633598 0.637656 0.094501 0.098073
Zn1   Zn    Zn3+2 0.500090 0.599130 0.500180 1.118999
Zn2   Zn    Zn3+2 0.500090 0.400870 0.500180 1.111750

loop_
_geom_bond_atom_site_label_1
_geom_bond_atom_site_label_2
_ccdc_geom_bond_type
C8    C9    S    
C23   H24   S    
C21   C26   S    
C8    C13   S    
C30   I6    S    
H8    O16   S    
O22   S11   S    
O12   Zn2   S    
C26   H21   S    
O14   S9    D    
C16   H19   S    
O18   S10   D    
O13   S8    S    
C13   C18   S    
C12   C28   S    
O10   S8    D    
N1    Zn1   S    
O38   S4    D    
O1    Zn1   S    
C6    C12   S    
O21   S11   D    
C11   C14   S    
C8    S8    S    
C20   C25   S    
C3    C33   S    
C15   C16   S    
C12   C22   S    
H11   O26   S    
O27   S13   D    
C20   O46   A    
O43   Zn1   S    
C29   C33   S    
H17   O42   S    
C23   C33   S    
C5    C33   S    
H16   O39   S    
H5    O6    S    
O30   S2    D    
O31   S2    D    
O41   S5    D    
C21   I3    S    
C2    C34   S    
O28   S13   D    
H4    O3    S    
O7    S7    D    
C1    C7    S    
O40   S5    D    
C1    O12   A    
C14   C17   S    
O39   S4    S    
O37   S4    D    
C19   C32   S    
C28   S13   S    
C19   O43   A    
C4    C34   S    
O3    S1    S    
C24   H1    S    
C30   C34   S    
H9    O19   S    
C15   H20   S    
C31   I5    S    
O36   S3    S    
C24   C25   S    
O26   S12   S    
C16   H12   S    
H15   O36   S    
C5    C7    T    
C27   H22   S    
C8    S11   S    
C25   C26   S    
C12   C21   S    
C9    S12   S    
C23   C31   S    
C9    C14   S    
C31   S5    S    
C29   C30   S    
O42   S5    S    
C22   I4    S    
C20   O45   A    
O4    S6    D    
C31   C34   S    
C15   H18   S    
C4    C32   T    
C29   S3    S    
C29   H23   S    
C22   C27   S    
O45   Zn1   S    
C22   C24   S    
C21   C24   S    
C25   C27   S    
C11   I2    S    
O33   S3    D    
H14   O32   S    
O47   S1    D    
O23   Zn1   S    
C19   O44   A    
C9    S7    S    
O25   S12   D    
O34   Zn2   S    
C17   N1    T    
C11   S10   S    
O9    S7    S    
C10   S9    S    
C10   C13   S    
H7    O13   S    
C2    S6    S    
C30   S4    S    
C18   N2    T    
C6    O23   A    
O8    S7    D    
C26   C28   S    
H6    O9    S    
O5    S6    D    
O15   S9    D    
C2    C3    S    
O20   S11   D    
C2    S1    S    
O29   S13   S    
O2    S1    D    
O32   S2    S    
C3    H2    S    
O6    S6    S    
C1    O1    A    
O24   S12   D    
N2    Zn2   S    
O19   S10   S    
O46   Zn2   S    
O11   S8    D    
C10   C11   S    
C23   S2    S    
C3    H3    S    
C13   C16   S    
O44   Zn2   S    
C27   C28   S    
O35   S3    D    
H13   O29   S    
C14   C15   S    
O17   S10   D    
H10   O22   S    
C10   I1    S    
O16   S9    S    
C6    O34   A    
