data_mof_unit_41159.cif
_audit_creation_date              2012-12-11T18:11:10-0500
_audit_creation_method            fapswitch 2.2
_symmetry_space_group_name_H-M    P1
_symmetry_Int_Tables_number       1
_space_group_crystal_system       triclinic
_cell_length_a                    8.259415
_cell_length_b                    12.775153
_cell_length_c                    18.663912
_cell_angle_alpha                 99.192086
_cell_angle_beta                  90.634079
_cell_angle_gamma                 98.503637
_cell_volume                      1921.45285307

loop_
_atom_site_label
_atom_site_type_symbol
_atom_type_description
_atom_site_fract_x
_atom_site_fract_y
_atom_site_fract_z
_atom_type_partial_charge
Ba1   Ba    Ba6+2 0.852780 0.548340 0.465070 1.704277
Ba2   Ba    Ba6+2 0.337060 0.451750 0.534940 1.696371
C1    C     C_3   0.701409 0.915779 0.259951 -0.363908
C2    C     C_R   0.921835 0.365748 0.093037 -0.046038
C3    C     C_R   0.770287 0.424881 0.962899 -0.110852
C4    C     C_3   0.176029 0.789886 0.265420 0.318780
C5    C     C_R   0.938226 0.449876 0.979796 0.013841
C6    C     C_R   0.704448 0.427398 0.894383 -0.075189
C7    C     C_R   0.807054 0.459913 0.838541 -0.054810
C8    C     C_R   0.973399 0.503642 0.859019 0.013627
C9    C     C_R   0.037839 0.501127 0.930560 0.032670
C10   C     C_R   0.754206 0.453328 0.764289 -0.022252
C11   C     C_R   0.864318 0.491000 0.714153 -0.266007
C12   C     C_3   0.667644 0.815138 0.294467 0.350820
C13   C     C_R   0.020327 0.546017 0.735226 -0.024131
C14   C     C_R   0.075758 0.551392 0.808674 -0.031635
C15   C     C_R   0.163035 0.488938 0.071141 0.044166
C16   C     C_3   0.286648 0.871079 0.229936 -0.432895
C17   C     C_R   0.222275 0.488397 0.143216 0.010056
C18   C     C_R   0.120966 0.437750 0.192344 -0.041419
C19   C     C_R   0.976910 0.371126 0.164741 -0.039226
C20   C     C_R   0.228378 0.607834 0.834388 -0.040680
C21   C     C_R   0.284583 0.616451 0.905820 -0.041077
C22   C     C_R   0.199216 0.552609 0.953207 0.016731
C23   C     C_3   0.420502 0.235886 0.309046 0.300744
C24   C     C_R   0.264495 0.541373 0.022650 0.025017
C25   C     C_R   0.431890 0.572382 0.043482 -0.097842
C26   C     C_R   0.383399 0.537538 0.165898 -0.036366
C27   C     C_R   0.489041 0.573389 0.113893 -0.087650
C28   C     C_3   0.247170 0.809634 0.722495 0.697287
C29   C     C_R   0.435046 0.545910 0.239247 0.007451
C30   C     C_R   0.326076 0.507024 0.288986 -0.289639
C31   C     C_R   0.171130 0.450933 0.266600 0.023422
C32   C     C_R   0.757214 0.182989 0.533530 -0.272153
C33   C     C_R   0.426869 0.809862 0.473803 -0.205635
C34   C     C_3   0.297044 0.148464 0.264959 -0.382693
C35   C     C_R   0.401440 0.985343 0.447610 -0.077351
C36   C     C_R   0.337778 0.877165 0.443266 0.011227
C37   C     C_R   0.576118 0.849774 0.511730 0.089239
C38   C     C_R   0.639550 0.961424 0.519541 -0.020264
C39   C     C_R   0.550420 0.029574 0.486462 -0.033951
C40   C     C_3   0.113697 0.829278 0.777054 -0.376655
C41   C     C_R   0.612200 0.140541 0.493739 0.051677
C42   C     C_R   0.851344 0.116775 0.561716 -0.038157
C43   C     C_R   0.790326 0.007146 0.557458 -0.059273
C44   C     C_3   0.958858 0.219910 0.389235 0.286291
C45   C     C_3   0.078320 0.240669 0.735218 0.386490
C46   C     C_3   0.957425 0.099238 0.381276 -0.376847
C47   C     C_3   0.726637 0.702027 0.682550 0.315893
C48   C     C_3   0.704113 0.726782 0.764207 -0.354322
C49   C     C_1   0.517577 0.290895 0.257245 0.235550
C50   C     C_1   0.066279 0.722728 0.208324 0.337214
C51   C     C_1   0.529219 0.399649 0.888466 0.319909
C52   C     C_1   0.795405 0.276880 0.065521 0.266604
C53   C     C_1   0.418297 0.702463 0.929082 0.223419
C54   C     C_3   0.090889 0.213647 0.811402 -0.285802
C55   C     C_3   0.595649 0.196009 0.717688 0.415116
C56   C     C_3   0.669742 0.150811 0.778900 -0.290480
C57   C     C_R   0.004165 0.435564 0.047947 0.005815
H1    H     H_    0.745045 0.826704 0.345031 0.079140
H2    H     H_    0.855832 0.693964 0.672324 -0.011650
H3    H     H_    0.646231 0.625441 0.661421 0.051289
H4    H     H_    0.832171 0.929431 0.246108 0.141674
H5    H     H_    0.751618 0.812002 0.785741 0.148056
H6    H     H_    0.768597 0.675232 0.793309 0.053662
H7    H     H_    0.572980 0.711242 0.776030 0.109466
H8    H     H_    0.536549 0.801399 0.308026 -0.090368
H9    H     H_    0.669493 0.985781 0.297362 0.084604
H10   H     H_    0.355037 0.294685 0.343072 0.002383
H11   H     H_    0.233738 0.096810 0.301401 0.124831
H12   H     H_    0.050105 0.753715 0.790973 0.007619
H13   H     H_    0.206366 0.183805 0.235694 0.095723
H14   H     H_    0.360593 0.097317 0.224104 0.115346
H15   H     H_    0.629062 0.905908 0.208364 0.129004
H16   H     H_    0.366877 0.926182 0.272153 0.111362
H17   H     H_    0.172765 0.310166 0.730698 0.106459
H18   H     H_    0.956320 0.263688 0.727069 -0.100350
H19   H     H_    0.059382 0.280486 0.851866 0.063256
H20   H     H_    0.006590 0.139282 0.816257 0.112125
H21   H     H_    0.217038 0.200233 0.823511 0.194382
H22   H     H_    0.696510 0.233249 0.686776 -0.131772
H23   H     H_    0.168708 0.879015 0.828218 0.126621
H24   H     H_    0.526920 0.130677 0.677986 0.163102
H25   H     H_    0.748038 0.091115 0.755941 0.103636
H26   H     H_    0.572679 0.111592 0.810523 0.186804
H27   H     H_    0.744578 0.216627 0.816447 0.059057
H28   H     H_    0.824456 0.482313 0.657815 0.055110
H29   H     H_    0.909853 0.318516 0.197777 0.108494
H30   H     H_    0.305717 0.649249 0.799713 0.051537
H31   H     H_    0.617808 0.600935 0.126286 0.132893
H32   H     H_    0.365478 0.516197 0.345421 0.073820
H33   H     H_    0.685568 0.408217 0.004880 0.084174
H34   H     H_    0.022210 0.871519 0.754107 0.130708
H35   H     H_    0.252035 0.736936 0.287964 -0.077117
H36   H     H_    0.524002 0.591855 0.005447 0.086791
H37   H     H_    0.330395 0.034198 0.422003 0.076657
H38   H     H_    0.863386 0.958961 0.582631 0.093306
H39   H     H_    0.804275 0.267503 0.537427 0.050289
H40   H     H_    0.376101 0.726052 0.470397 0.062006
H41   H     H_    0.362246 0.829006 0.189293 0.092268
H42   H     H_    0.212249 0.919092 0.201861 0.126123
H43   H     H_    0.350014 0.779786 0.746249 -0.038777
H44   H     H_    0.132887 0.932969 0.621025 0.338525
H45   H     H_    0.836193 0.239274 0.401758 0.020555
H46   H     H_    0.045065 0.258059 0.435169 0.078481
H47   H     H_    0.960939 0.064074 0.323483 0.141444
H48   H     H_    0.846233 0.059538 0.404146 0.062784
H49   H     H_    0.066035 0.081699 0.409864 0.122500
N1    N     N_1   0.592135 0.332075 0.214727 -0.292011
N2    N     N_1   0.981736 0.670930 0.162068 -0.277829
N3    N     N_1   0.388380 0.376695 0.886377 -0.294690
N4    N     N_1   0.694543 0.205538 0.043688 -0.277907
N5    N     N_1   0.524871 0.771764 0.947196 -0.283087
O1    O     O_2   0.873090 0.425890 0.325140 -0.439546
O2    O     O_2   0.188123 0.121089 0.550461 -0.437429
O3    O     O_3   0.103262 0.151341 0.684428 -0.543366
O4    O     O_3   0.122420 0.434370 0.414380 -0.500907
O5    O     O_3   0.578370 0.633800 0.536380 -0.493859
O6    O     O_2   0.341510 0.231850 0.465510 -0.480620
O7    O     O_3   0.524731 0.186335 0.348432 -0.655700
O8    O     O_2   0.413042 0.456787 0.754620 -0.491177
O9    O     O_3   0.485596 0.264359 0.746891 -0.583765
O10   O     O_3   0.659500 0.627100 0.368810 -0.500629
O11   O     O_2   0.770574 0.538567 0.244360 -0.441473
O12   O     O_3   0.687605 0.787620 0.650887 -0.578649
O13   O     O_3   0.002879 0.254540 0.323605 -0.647785
O14   O     O_3   0.708521 0.730042 0.244529 -0.590100
O15   O     O_2   0.848200 0.768190 0.534530 -0.469602
O16   O     O_3   0.081160 0.685950 0.404810 -0.466002
O17   O     O_2   0.001945 0.877626 0.451534 -0.482307
O18   O     O_2   0.295861 0.026079 0.752766 -0.337721
O19   O     O_2   0.513328 0.938917 0.692547 -0.339773
O20   O     O_3   0.253054 0.944859 0.615877 -0.482258
O21   O     O_3   0.082832 0.845865 0.317023 -0.613030
O22   O     O_2   0.316610 0.574140 0.674900 -0.480693
O23   O     O_3   0.067290 0.565720 0.585630 -0.452083
O24   O     O_3   0.530210 0.372990 0.631200 -0.464882
O25   O     O_3   0.183389 0.742945 0.658384 -0.620225
O26   O     O_3   0.611340 0.366290 0.463630 -0.472293
O27   O     O_3   0.108550 0.314140 0.595200 -0.500473
P1    P     P_3+3 0.041040 0.394770 0.336330 0.976523
P2    P     P_3+3 0.672880 0.754030 0.556100 1.041554
P3    P     P_3+3 0.129086 0.823566 0.404759 0.981075
P4    P     P_3+3 0.148670 0.605320 0.663680 0.979777
P5    P     P_3+3 0.061201 0.175784 0.597054 0.992543
P6    P     P_3+3 0.642141 0.608797 0.274420 0.979575
P7    P     P_3+3 0.523220 0.230585 0.442512 0.942357
P8    P     P_3+3 0.547775 0.391623 0.725313 0.962452
S1    S     S_3+6 0.331658 0.934363 0.697352 -0.096525

loop_
_geom_bond_atom_site_label_1
_geom_bond_atom_site_label_2
_ccdc_geom_bond_type
C56   H26   S    
C16   H16   S    
C28   O25   S    
C25   C27   A    
C40   H34   S    
C48   H5    S    
C36   P3    S    
O24   P8    S    
C25   H36   S    
C1    H9    S    
C40   H23   S    
Ba1   O15   S    
Ba2   P4    S    
Ba1   O10   S    
Ba2   O5    S    
C5    C9    A    
O26   P7    S    
C24   C25   A    
C54   H20   S    
C15   C24   A    
C26   C27   A    
C22   C24   A    
C45   H17   S    
Ba1   O16   S    
O3    P5    S    
C46   H48   S    
O6    P7    D    
C13   C14   A    
C44   H46   S    
C9    C22   A    
C54   H19   S    
Ba1   Ba2   S    
C1    H15   S    
Ba1   P2    S    
C15   C17   A    
C55   O9    S    
C29   P6    S    
C46   H47   S    
C17   C18   A    
C6    C7    A    
C4    H35   S    
C12   H8    S    
O10   P6    S    
C41   P7    S    
O9    P8    S    
Ba1   O23   S    
C7    C8    A    
Ba1   O26   S    
C51   N3    T    
O21   P3    S    
C19   H29   S    
C49   N1    T    
O19   S1    D    
C39   C41   A    
C28   H43   S    
C45   O3    S    
C16   H41   S    
C33   H40   S    
C56   H27   S    
C5    C57   A    
C27   H31   S    
C48   H6    S    
Ba2   O4    S    
C34   H11   S    
C38   C43   A    
C4    C16   S    
C44   C46   S    
C47   H2    S    
O1    P1    D    
C33   C36   A    
C32   C42   A    
C8    C9    A    
C37   C38   A    
C3    C5    A    
O20   S1    S    
C28   S1    S    
C53   N5    T    
C31   P1    S    
O11   P6    D    
Ba2   O23   S    
C12   O14   S    
C35   H37   S    
C16   H42   S    
O27   P5    S    
C33   C37   A    
C23   C49   S    
C35   C36   A    
O17   P3    D    
C56   H25   S    
C29   C30   A    
C37   P2    S    
C50   N2    T    
O12   P2    S    
C21   C22   A    
C11   H28   S    
C55   H24   S    
C42   P5    S    
O4    P1    S    
O8    P8    D    
C52   N4    T    
Ba1   O4    S    
C18   C19   A    
C17   C26   A    
C48   H7    S    
C1    C12   S    
C15   C57   A    
C18   C31   A    
O22   P4    D    
C11   C13   A    
C55   H22   S    
O18   S1    D    
C23   H10   S    
Ba1   O1    S    
C45   H18   S    
Ba2   O26   S    
C23   O7    S    
C47   O12   S    
C42   C43   A    
C38   C39   A    
C14   C20   A    
C47   H3    S    
C2    C52   S    
C23   C34   S    
Ba2   O24   S    
C44   O13   S    
C26   C29   A    
C32   C41   A    
O5    P2    S    
C6    C51   S    
C3    C6    A    
Ba2   O6    S    
C21   C53   S    
O16   P3    S    
C1    H4    S    
C12   H1    S    
O2    P5    D    
O13   P1    S    
Ba2   O22   S    
C54   H21   S    
Ba2   O27   S    
C30   C31   A    
C10   P8    S    
H44   O20   S    
C4    O21   S    
C43   H38   S    
C2    C19   A    
C55   C56   S    
C46   H49   S    
C44   H45   S    
O25   P4    S    
C2    C57   A    
C40   H12   S    
C32   H39   S    
C20   H30   S    
Ba1   O5    S    
C35   C39   A    
C7    C10   A    
C3    H33   S    
Ba1   P1    S    
C34   H14   S    
O14   P6    S    
C13   P4    S    
C30   H32   S    
C10   C11   A    
O7    P7    S    
O23   P4    S    
C47   C48   S    
C20   C21   A    
C28   C40   S    
C8    C14   A    
C4    C50   S    
O15   P2    D    
C34   H13   S    
C45   C54   S    
