data_mof_unit_41016.cif
_audit_creation_date              2012-12-11T14:44:14-0500
_audit_creation_method            fapswitch 2.2
_symmetry_space_group_name_H-M    P1
_symmetry_Int_Tables_number       1
_space_group_crystal_system       triclinic
_cell_length_a                    18.8661
_cell_length_b                    10.941514
_cell_length_c                    18.72987
_cell_angle_alpha                 89.823662
_cell_angle_beta                  89.829501
_cell_angle_gamma                 89.915512
_cell_volume                      3866.2494342

loop_
_atom_site_label
_atom_site_type_symbol
_atom_type_description
_atom_site_fract_x
_atom_site_fract_y
_atom_site_fract_z
_atom_type_partial_charge
C1    C     C_R   0.731537 0.381480 0.147146 0.557390
C2    C     C_R   0.986921 0.999343 0.033439 0.272604
C3    C     C_R   0.994826 0.775653 0.037107 -0.004035
C4    C     C_R   0.498651 0.052963 0.037034 -0.160516
C5    C     C_R   0.499316 0.052553 0.963925 -0.161416
C6    C     C_R   0.998660 0.552958 0.037032 -0.160537
C7    C     C_R   0.999326 0.552556 0.963923 -0.161426
C8    C     C_R   0.515405 0.498549 0.964276 0.274153
C9    C     C_R   0.487017 0.499360 0.033425 0.272776
C10   C     C_R   0.678506 0.923751 0.029732 -0.148027
C11   C     C_R   0.321482 0.923212 0.970325 -0.148701
C12   C     C_R   0.178474 0.423857 0.029717 -0.148042
C13   C     C_R   0.821480 0.423204 0.970323 -0.148707
C14   C     C_R   0.687202 0.892547 0.958081 -0.172789
C15   C     C_R   0.312760 0.892064 0.042047 -0.172877
C16   C     C_R   0.187187 0.392610 0.958073 -0.172799
C17   C     C_R   0.268477 0.381277 0.852885 0.559044
C18   C     C_R   0.812753 0.392054 0.042043 -0.172897
C19   C     C_R   0.743966 0.941144 0.918871 0.062871
C20   C     C_R   0.256157 0.941396 0.081136 0.063016
C21   C     C_R   0.243972 0.441157 0.918873 0.062876
C22   C     C_R   0.756150 0.441389 0.081130 0.062949
C23   C     C_R   0.784411 0.036732 0.948936 0.098204
C24   C     C_R   0.215986 0.037574 0.050912 0.097946
C25   C     C_R   0.284436 0.536718 0.948944 0.098201
C26   C     C_R   0.715991 0.537591 0.050911 0.097974
C27   C     C_R   0.777515 0.062866 0.021283 -0.126244
C28   C     C_R   0.231540 0.881483 0.147149 0.557412
C29   C     C_R   0.222941 0.063817 0.978503 -0.125519
C30   C     C_R   0.277537 0.562857 0.021290 -0.126256
C31   C     C_R   0.722965 0.563858 0.978506 -0.125465
C32   C     C_R   0.727749 0.001136 0.063037 -0.004222
C33   C     C_R   0.272466 0.001378 0.936895 -0.004862
C34   C     C_R   0.227741 0.501178 0.063034 -0.004201
C35   C     C_R   0.772476 0.501393 0.936895 -0.004879
C36   C     C_R   0.458601 0.065466 0.448485 -0.127093
C37   C     C_R   0.439476 0.062599 0.519812 -0.135739
C38   C     C_R   0.958572 0.565512 0.448475 -0.127028
C39   C     C_R   0.768475 0.881278 0.852883 0.559049
C40   C     C_R   0.939446 0.562642 0.519802 -0.135719
C41   C     C_R   0.454334 0.162136 0.563812 0.027223
C42   C     C_R   0.494503 0.167253 0.420930 0.048409
C43   C     C_R   0.954356 0.662135 0.563817 0.027225
C44   C     C_R   0.994523 0.667260 0.420938 0.048485
C45   C     C_R   0.530400 0.155470 0.147023 0.572647
C46   C     C_R   0.469516 0.155141 0.853012 0.582152
C47   C     C_R   0.030399 0.655469 0.147024 0.572646
C48   C     C_R   0.969516 0.655142 0.853012 0.582138
C49   C     C_R   0.486377 0.267133 0.535334 -0.141269
C50   C     C_R   0.523808 0.386000 0.927656 0.067548
C51   C     C_R   0.506756 0.269339 0.464156 -0.120108
C52   C     C_R   0.986464 0.767089 0.535361 -0.141347
C53   C     C_R   0.006842 0.769298 0.464183 -0.120225
C54   C     C_R   0.818127 0.929518 0.456578 0.229612
C55   C     C_R   0.208654 0.025912 0.525171 0.239791
C56   C     C_R   0.318134 0.429648 0.456593 0.229659
C57   C     C_R   0.708711 0.525997 0.525158 0.239777
C58   C     C_R   0.822139 0.923359 0.530129 -0.127079
C59   C     C_R   0.211700 0.013623 0.451844 -0.123124
C60   C     C_R   0.322126 0.423536 0.530145 -0.127096
C61   C     C_R   0.477770 0.387508 0.070921 0.066778
C62   C     C_R   0.711742 0.513668 0.451832 -0.123120
C63   C     C_R   0.761209 0.902357 0.571667 0.010905
C64   C     C_R   0.250852 0.919449 0.421661 -0.003931
C65   C     C_R   0.261204 0.402368 0.571666 0.010799
C66   C     C_R   0.750854 0.419435 0.421662 -0.003933
C67   C     C_R   0.695599 0.885941 0.539462 -0.129370
C68   C     C_R   0.293990 0.844174 0.464095 -0.160706
C69   C     C_R   0.195619 0.385760 0.539436 -0.129360
C70   C     C_R   0.793958 0.344118 0.464105 -0.160720
C71   C     C_R   0.690605 0.894350 0.465915 -0.190723
C72   C     C_R   0.023759 0.886023 0.927671 0.067564
C73   C     C_R   0.294368 0.859109 0.537411 -0.205535
C74   C     C_R   0.190639 0.394151 0.465887 -0.190674
C75   C     C_R   0.794339 0.359070 0.537419 -0.205563
C76   C     C_R   0.751337 0.920149 0.424622 0.062979
C77   C     C_R   0.251606 0.948828 0.568404 0.058817
C78   C     C_R   0.251359 0.420117 0.424614 0.062977
C79   C     C_R   0.751618 0.448856 0.568400 0.058798
C80   C     C_R   0.726552 0.022402 0.140305 0.562870
C81   C     C_R   0.273523 0.022507 0.859598 0.563735
C82   C     C_R   0.226549 0.522416 0.140306 0.562909
C83   C     C_R   0.977713 0.887479 0.070934 0.066679
C84   C     C_R   0.773525 0.522512 0.859597 0.563725
C85   C     C_R   0.730831 0.379879 0.351418 0.552155
C86   C     C_R   0.271523 0.376418 0.646364 0.550686
C87   C     C_R   0.230832 0.879883 0.351417 0.552168
C88   C     C_R   0.771523 0.876418 0.646366 0.550696
C89   C     C_R   0.530837 0.157233 0.352798 0.555222
C90   C     C_R   0.436376 0.153410 0.639087 0.558155
C91   C     C_R   0.030840 0.657234 0.352799 0.555252
C92   C     C_R   0.936382 0.653410 0.639087 0.558136
C93   C     C_R   0.741863 0.968958 0.353620 0.593487
C94   C     C_R   0.015320 0.998563 0.964294 0.274100
C95   C     C_R   0.259286 0.976486 0.643547 0.572112
C96   C     C_R   0.241868 0.468948 0.353617 0.593453
C97   C     C_R   0.759290 0.476498 0.643544 0.572125
C98   C     C_R   0.499644 0.162225 0.925276 0.036417
C99   C     C_R   0.499871 0.163039 0.074901 0.038044
C100  C     C_R   0.999639 0.662232 0.925278 0.036416
C101  C     C_R   0.999866 0.663029 0.074904 0.038039
C102  C     C_R   0.505771 0.275068 0.962297 -0.004550
C103  C     C_R   0.494854 0.275663 0.037099 -0.004022
C104  C     C_R   0.005744 0.775074 0.962305 -0.004529
Cr1   Cr    Cr6+3 0.772000 0.169640 0.250110 1.023793
Cr2   Cr    Cr6+3 0.383330 0.010620 0.749160 1.021314
Cr3   Cr    Cr6+3 0.116670 0.510620 0.250840 1.020001
Cr4   Cr    Cr6+3 0.883330 0.510620 0.749160 1.021327
Cr5   Cr    Cr6+3 0.228000 0.169640 0.749890 1.034321
Cr6   Cr    Cr6+3 0.272000 0.669640 0.250110 1.023829
Cr7   Cr    Cr6+3 0.728000 0.669640 0.749890 1.034321
Cr8   Cr    Cr6+3 0.614960 0.323350 0.249260 1.040007
Cr9   Cr    Cr6+3 0.385040 0.323350 0.750740 1.029511
Cr10  Cr    Cr6+3 0.114960 0.823350 0.249260 1.039970
Cr11  Cr    Cr6+3 0.885040 0.823350 0.750740 1.029515
Cr12  Cr    Cr6+3 0.616670 0.010620 0.250840 1.019951
H1    H     H_    0.500367 0.965077 0.063817 0.162023
H2    H     H_    0.324176 0.769507 0.441270 0.159274
H3    H     H_    0.148649 0.366978 0.571007 0.157334
H4    H     H_    0.824111 0.269405 0.441289 0.159277
H5    H     H_    0.638552 0.887860 0.441965 0.141626
H6    H     H_    0.327782 0.800703 0.569880 0.133410
H7    H     H_    0.138599 0.387512 0.441920 0.141578
H8    H     H_    0.827722 0.300625 0.569896 0.133437
H9    H     H_    0.635522 0.882634 0.059666 0.150116
H10   H     H_    0.364256 0.881444 0.940453 0.149115
H11   H     H_    0.135461 0.382811 0.059639 0.150080
H12   H     H_    0.496484 0.964494 0.937776 0.162471
H13   H     H_    0.864249 0.381419 0.940450 0.149151
H14   H     H_    0.651777 0.826430 0.934518 0.144346
H15   H     H_    0.347952 0.825282 0.065741 0.142356
H16   H     H_    0.151755 0.326502 0.934509 0.144318
H17   H     H_    0.847942 0.325266 0.065738 0.142409
H18   H     H_    0.812507 0.129044 0.045196 0.137161
H19   H     H_    0.188139 0.130501 0.954404 0.138892
H20   H     H_    0.312548 0.629001 0.045209 0.137139
H21   H     H_    0.688176 0.630555 0.954405 0.138868
H22   H     H_    0.448999 0.985422 0.416013 0.132177
H23   H     H_    0.000388 0.465070 0.063812 0.162022
H24   H     H_    0.415451 0.980968 0.541428 0.132125
H25   H     H_    0.948927 0.485502 0.415988 0.132161
H26   H     H_    0.915374 0.481042 0.541405 0.132119
H27   H     H_    0.498375 0.345331 0.568452 0.136495
H28   H     H_    0.535560 0.347993 0.444186 0.137352
H29   H     H_    0.998508 0.845248 0.568493 0.136582
H30   H     H_    0.035688 0.847916 0.444227 0.137343
H31   H     H_    0.918425 0.969495 0.446780 0.309688
H32   H     H_    0.133755 0.149314 0.517459 0.305310
H33   H     H_    0.418420 0.469773 0.446827 0.309630
H34   H     H_    0.996506 0.464499 0.937770 0.162475
H35   H     H_    0.633878 0.649510 0.517435 0.305352
H36   H     H_    0.608303 0.414544 0.863086 0.255329
H37   H     H_    0.528227 0.436841 0.823033 0.243827
H38   H     H_    0.393516 0.419569 0.135190 0.255876
H39   H     H_    0.473738 0.439571 0.175158 0.245538
H40   H     H_    0.108259 0.914648 0.863121 0.255308
H41   H     H_    0.028187 0.936875 0.823051 0.243831
H42   H     H_    0.893459 0.919432 0.135223 0.255889
H43   H     H_    0.973684 0.939552 0.175169 0.245538
H44   H     H_    0.055110 0.099829 0.887364 0.315781
H45   H     H_    0.873747 0.932145 0.554600 0.124166
H46   H     H_    0.947934 0.102561 0.109639 0.314557
H47   H     H_    0.555213 0.599775 0.887337 0.315811
H48   H     H_    0.448101 0.602624 0.109640 0.314535
H49   H     H_    0.882178 0.107604 0.931777 0.273210
H50   H     H_    0.813967 0.195860 0.903808 0.234729
H51   H     H_    0.118428 0.109610 0.067966 0.274356
H52   H     H_    0.186875 0.196808 0.095775 0.234397
H53   H     H_    0.382233 0.607473 0.931793 0.273156
H54   H     H_    0.314056 0.695833 0.903840 0.234730
H55   H     H_    0.618546 0.610227 0.067802 0.274361
H56   H     H_    0.178875 0.071826 0.418556 0.119581
H57   H     H_    0.687105 0.696670 0.096075 0.234386
H58   H     H_    0.373719 0.432475 0.554630 0.124144
H59   H     H_    0.678943 0.571901 0.418536 0.119574
H60   H     H_    0.648622 0.867291 0.571048 0.157233
N1    N     N_3   0.556677 0.381640 0.858518 -0.609086
N2    N     N_3   0.444803 0.384927 0.140052 -0.607786
N3    N     N_3   0.056645 0.881697 0.858541 -0.609072
N4    N     N_3   0.944765 0.884863 0.140073 -0.607800
N5    N     N_3   0.833015 0.106405 0.906337 -0.585583
N6    N     N_3   0.167585 0.107619 0.093411 -0.588079
N7    N     N_3   0.333068 0.606352 0.906356 -0.585565
N8    N     N_3   0.667600 0.607654 0.093414 -0.588145
O1    O     O_R   0.787540 0.042690 0.170470 -0.534287
O2    O     O_R   0.454130 0.051100 0.669160 -0.507296
O3    O     O_R   0.045870 0.551100 0.330840 -0.526418
O4    O     O_R   0.954130 0.551100 0.669160 -0.507267
O5    O     O_R   0.681340 0.959300 0.325510 -0.518365
O6    O     O_R   0.318660 0.959300 0.674490 -0.530963
O7    O     O_R   0.181340 0.459300 0.325510 -0.518344
O8    O     O_R   0.818660 0.459300 0.674490 -0.530955
O9    O     O_3   0.667880 0.167870 0.250070 -0.278106
O10   O     O_3   0.332120 0.167870 0.749930 -0.301102
O11   O     O_3   0.167880 0.667870 0.250070 -0.278126
O12   O     O_R   0.212460 0.042690 0.829530 -0.537570
O13   O     O_3   0.832120 0.667870 0.749930 -0.301103
O14   O     O_R   0.765660 0.292160 0.175050 -0.537474
O15   O     O_R   0.234340 0.292160 0.824950 -0.535848
O16   O     O_R   0.265660 0.792160 0.175050 -0.537479
O17   O     O_R   0.734340 0.792160 0.824950 -0.535862
O18   O     O_R   0.670190 0.408980 0.168550 -0.471153
O19   O     O_R   0.329810 0.408980 0.831450 -0.469191
O20   O     O_R   0.170190 0.908980 0.168550 -0.471271
O21   O     O_R   0.829810 0.908980 0.831450 -0.469195
O22   O     O_R   0.556580 0.251450 0.175160 -0.477557
O23   O     O_R   0.287540 0.542690 0.170470 -0.534255
O24   O     O_R   0.443420 0.251450 0.824840 -0.474005
O25   O     O_R   0.056580 0.751450 0.175160 -0.477563
O26   O     O_R   0.943420 0.751450 0.824840 -0.474008
O27   O     O_R   0.545920 0.049510 0.170320 -0.537805
O28   O     O_R   0.454080 0.049510 0.829680 -0.532050
O29   O     O_R   0.045920 0.549510 0.170320 -0.537824
O30   O     O_R   0.954080 0.549510 0.829680 -0.532048
O31   O     O_R   0.681390 0.957840 0.176710 -0.497949
O32   O     O_R   0.318610 0.957840 0.823290 -0.496535
O33   O     O_R   0.181390 0.457840 0.176710 -0.497882
O34   O     O_R   0.712460 0.542690 0.829530 -0.537593
O35   O     O_R   0.818610 0.457840 0.823290 -0.496542
O36   O     O_R   0.787500 0.044280 0.330990 -0.450494
O37   O     O_R   0.212500 0.044280 0.669010 -0.436337
O38   O     O_R   0.287500 0.544280 0.330990 -0.450432
O39   O     O_R   0.712500 0.544280 0.669010 -0.436366
O40   O     O_R   0.765610 0.293630 0.323860 -0.505847
O41   O     O_R   0.234390 0.293630 0.676140 -0.474819
O42   O     O_R   0.265610 0.793630 0.323860 -0.505822
O43   O     O_R   0.734390 0.793630 0.676140 -0.474746
O44   O     O_R   0.670140 0.410570 0.329080 -0.521269
O45   O     O_R   0.556540 0.252920 0.323970 -0.494427
O46   O     O_R   0.329860 0.410570 0.670920 -0.535048
O47   O     O_R   0.170140 0.910570 0.329080 -0.521274
O48   O     O_R   0.829860 0.910570 0.670920 -0.535053
O49   O     O_3   0.877995 0.949240 0.415319 -0.681902
O50   O     O_3   0.163806 0.112018 0.555057 -0.678005
O51   O     O_3   0.378004 0.449484 0.415353 -0.681900
O52   O     O_3   0.663921 0.612199 0.555035 -0.677955
O53   O     O_3   0.031660 0.110682 0.934094 -0.694917
O54   O     O_3   0.971225 0.112226 0.062712 -0.696948
O55   O     O_3   0.531765 0.610652 0.934067 -0.694967
O56   O     O_R   0.443460 0.252920 0.676030 -0.503723
O57   O     O_3   0.471353 0.612260 0.062694 -0.696949
O58   O     O_R   0.056540 0.752920 0.323970 -0.494423
O59   O     O_R   0.943460 0.752920 0.676030 -0.503736
O60   O     O_R   0.545870 0.051100 0.330840 -0.526441

loop_
_geom_bond_atom_site_label_1
_geom_bond_atom_site_label_2
_ccdc_geom_bond_type
C3    C104  A    
C99   C103  A    
Cr12  O5    S    
Cr12  O60   S    
C89   O45   A    
C16   C21   A    
C47   C101  S    
C55   C59   A    
C63   C88   S    
C60   H58   S    
Cr9   O10   S    
C57   C79   A    
C36   C42   A    
C1    O14   A    
Cr8   O18   S    
H43   N4    S    
C9    O57   S    
Cr7   O17   S    
C66   C85   S    
Cr3   O11   S    
C72   C104  A    
H47   O55   S    
C57   C62   A    
Cr2   O10   S    
C12   H11   S    
C51   H28   S    
Cr1   O9    S    
Cr11  O13   S    
C59   C64   A    
C95   O37   A    
C13   C18   A    
C18   H17   S    
C93   O36   A    
C9    C61   A    
C64   C68   A    
C96   O7    A    
C36   C37   A    
C61   C103  A    
C23   N5    S    
Cr12  O27   S    
C40   H26   S    
C14   H14   S    
C71   C76   A    
C55   C77   A    
C92   O59   A    
C65   C69   A    
C43   C52   A    
C88   O43   A    
C1    O18   A    
Cr3   O3    S    
Cr4   O13   S    
C56   C78   A    
Cr5   O12   S    
H41   N3    S    
C6    C101  A    
Cr1   O1    S    
H36   N1    S    
C17   O19   A    
H42   N4    S    
C24   C29   A    
H53   N7    S    
C21   C25   A    
C83   N4    S    
C95   O6    A    
C68   H2    S    
Cr3   O33   S    
Cr4   O35   S    
C11   C15   A    
C44   C53   A    
Cr9   O56   S    
C12   C16   A    
C29   C33   A    
C78   C96   S    
C8    C9    A    
C49   C51   A    
C37   H24   S    
C67   C71   A    
C80   O1    A    
C56   O51   S    
Cr6   O23   S    
Cr7   O34   S    
C23   C27   A    
C31   H21   S    
C10   H9    S    
C64   C87   S    
C20   C28   S    
H39   N2    S    
C42   C51   A    
C72   C94   A    
C3    C101  A    
C65   C86   S    
C74   H7    S    
C46   C98   S    
C26   C31   A    
C36   H22   S    
C2    C83   A    
H50   N5    S    
C87   O47   A    
Cr12  O31   S    
H48   O57   S    
C41   C49   A    
C82   O23   A    
C85   O40   A    
C71   H5    S    
C80   O31   A    
C63   C67   A    
C97   O8    A    
C69   C74   A    
C15   C20   A    
C48   C100  S    
H37   N1    S    
Cr10  O11   S    
C62   C66   A    
C24   N6    S    
C75   H8    S    
C86   O46   A    
Cr9   O24   S    
C20   C24   A    
H55   N8    S    
C2    C94   A    
C11   H10   S    
H57   N8    S    
C45   C99   S    
C70   H4    S    
Cr10  O47   S    
C52   H29   S    
C30   C34   A    
C2    O54   S    
C90   O2    A    
C100  C104  A    
C68   C73   A    
C98   C102  A    
Cr6   O16   S    
C77   C95   S    
C17   C21   S    
Cr8   O45   S    
C56   C60   A    
C54   C76   A    
C28   O20   A    
C19   C23   A    
C45   O22   A    
C38   C44   A    
C46   O24   A    
C84   O35   A    
C10   C32   A    
C76   C93   S    
C32   C80   S    
C7    H34   S    
C94   O53   S    
Cr8   O44   S    
Cr3   O29   S    
C91   O58   A    
C11   C33   A    
C67   H60   S    
C87   O42   A    
Cr2   O28   S    
C61   N2    S    
C40   C43   A    
C89   O60   A    
C15   H15   S    
Cr5   O10   S    
H33   O51   S    
C85   O44   A    
Cr7   O39   S    
Cr2   O2    S    
Cr11  O48   S    
C44   C91   S    
C19   C39   S    
Cr1   O36   S    
Cr11  O59   S    
Cr12  O9    S    
H31   O49   S    
H44   O53   S    
C88   O48   A    
C48   O26   A    
C60   C65   A    
C50   C102  A    
C96   O38   A    
H38   N2    S    
C10   C14   A    
C38   H25   S    
C31   C35   A    
C4    H1    S    
Cr5   O15   S    
Cr2   O6    S    
C55   O50   S    
C12   C34   A    
C59   H56   S    
Cr6   O38   S    
C79   C97   S    
C8    C50   A    
Cr6   O11   S    
C57   O52   S    
Cr5   O37   S    
C52   C53   A    
Cr10  O25   S    
C54   C58   A    
C8    O55   S    
H35   O52   S    
C25   C30   A    
C45   O27   A    
C91   O3    A    
Cr1   O14   S    
Cr10  O20   S    
Cr5   O41   S    
Cr11  O26   S    
Cr10  O58   S    
C27   C32   A    
C18   C22   A    
C27   H18   S    
C14   C19   A    
Cr4   O4    S    
C48   O30   A    
C50   N1    S    
C58   C63   A    
Cr6   O42   S    
C4    C5    A    
C35   C84   S    
C92   O4    A    
C13   C35   A    
C6    C7    A    
C84   O34   A    
C93   O5    A    
C7    C100  A    
Cr1   O40   S    
Cr2   O32   S    
Cr9   O46   S    
C74   C78   A    
C30   H20   S    
C43   C92   S    
C72   N3    S    
Cr11  O21   S    
C90   O56   A    
C42   C89   S    
H49   N5    S    
H54   N7    S    
C47   O25   A    
C47   O29   A    
Cr7   O43   S    
Cr7   O13   S    
C81   O12   A    
C38   C40   A    
C28   O16   A    
C66   C70   A    
C82   O33   A    
C75   C79   A    
C46   O28   A    
C62   H59   S    
C49   H27   S    
C5    H12   S    
C53   H30   S    
H40   N3    S    
C69   H3    S    
C17   O15   A    
C29   H19   S    
H32   O50   S    
Cr9   O19   S    
C39   O17   A    
C37   C41   A    
C102  C103  A    
C16   H16   S    
H52   N6    S    
Cr4   O30   S    
Cr8   O9    S    
C6    H23   S    
Cr8   O22   S    
C81   O32   A    
H46   O54   S    
C97   O39   A    
C1    C22   S    
C3    C83   A    
C5    C98   A    
C73   H6    S    
C22   C26   A    
C4    C99   A    
Cr3   O7    S    
C70   C75   A    
C86   O41   A    
C73   C77   A    
Cr4   O8    S    
C34   C82   S    
C54   O49   S    
H51   N6    S    
C39   O21   A    
C58   H45   S    
C33   C81   S    
C13   H13   S    
C25   N7    S    
C41   C90   S    
C26   N8    S    
