data_mof_unit_58304.cif
_audit_creation_date              2012-12-10T18:16:26-0500
_audit_creation_method            fapswitch 2.2
_symmetry_space_group_name_H-M    P1
_symmetry_Int_Tables_number       1
_space_group_crystal_system       triclinic
_cell_length_a                    12.616855
_cell_length_b                    13.085884
_cell_length_c                    27.616383
_cell_angle_alpha                 90.778772
_cell_angle_beta                  103.201159
_cell_angle_gamma                 81.971929
_cell_volume                      4394.75437937

loop_
_atom_site_label
_atom_site_type_symbol
_atom_type_description
_atom_site_fract_x
_atom_site_fract_y
_atom_site_fract_z
_atom_type_partial_charge
C1    C     C_R   0.438320 0.691397 0.492309 0.925023
C2    C     C_R   0.577325 0.532354 0.731394 -0.108953
C3    C     C_R   0.528068 0.453967 0.747688 0.328492
C4    C     C_R   0.506125 0.446251 0.896914 -0.053282
C5    C     C_R   0.439997 0.522813 0.863733 -0.013213
C6    C     C_R   0.366620 0.596935 0.880468 -0.139953
C7    C     C_R   0.578383 0.370489 0.879374 -0.023676
C8    C     C_R   0.512623 0.482006 0.646633 -0.015139
C9    C     C_R   0.498772 0.488292 0.353238 -0.057295
C10   C     C_R   0.431958 0.530453 0.016313 0.045528
C11   C     C_R   0.558343 0.365961 0.030867 0.044694
C12   C     C_R   0.502652 0.497178 0.593787 0.865078
C13   C     C_R   0.494455 0.449673 0.048862 0.070653
C14   C     C_R   0.374764 0.614898 0.036632 -0.215422
C15   C     C_R   0.376157 0.618222 0.086922 -0.140315
C16   C     C_R   0.434820 0.537864 0.118919 -0.019321
C17   C     C_R   0.493833 0.453172 0.100114 -0.052336
C18   C     C_R   0.552937 0.372459 0.132754 -0.021007
C19   C     C_R   0.552470 0.378317 0.183373 0.501843
C20   C     C_R   0.437273 0.541010 0.169775 0.500646
C21   C     C_R   0.401928 0.460777 0.268836 -0.104964
C22   C     C_R   0.402316 0.470938 0.318981 -0.233552
C23   C     C_R   0.561439 0.308603 0.505463 0.902661
C24   C     C_R   0.594980 0.494578 0.336635 -0.220902
C25   C     C_R   0.594238 0.484521 0.286393 -0.113197
C26   C     C_R   0.497672 0.467895 0.252495 0.321001
C27   C     C_R   0.430504 0.525603 0.964923 0.045303
C28   C     C_R   0.500527 0.446011 0.947584 0.070526
C29   C     C_R   0.565673 0.366827 0.980381 0.044889
C30   C     C_R   0.361391 0.598169 0.930023 -0.216814
C31   C     C_R   0.643686 0.294128 0.912028 -0.140214
C32   C     C_R   0.613317 0.284348 0.064328 -0.215099
C33   C     C_R   0.610753 0.287870 0.114289 -0.140701
C34   C     C_R   0.499363 0.497578 0.406118 0.889943
C35   C     C_R   0.637709 0.292182 0.961560 -0.213646
C36   C     C_R   0.694728 0.065475 0.460970 -0.161900
C37   C     C_R   0.598432 0.199446 0.501945 -0.154919
C38   C     C_R   0.298789 0.839307 0.498992 -0.222148
C39   C     C_R   0.270283 0.944626 0.503652 -0.175330
C40   C     C_R   0.343620 0.011754 0.498690 -0.065787
C41   C     C_R   0.446084 0.973910 0.487581 0.025029
C42   C     C_R   0.463611 0.870444 0.473113 -0.057257
C43   C     C_R   0.529773 0.035893 0.488325 -0.048678
C44   C     C_R   0.616642 0.001216 0.464511 0.023506
C45   C     C_R   0.448567 0.523269 0.814199 0.493142
C46   C     C_R   0.622040 0.904663 0.442738 -0.300019
C47   C     C_R   0.545232 0.839894 0.445859 0.528065
C48   C     C_R   0.531856 0.130560 0.512886 0.473998
C49   C     C_R   0.683132 0.165929 0.477987 -0.282537
C50   C     C_R   0.397534 0.801373 0.485728 -0.106051
C51   C     C_R   0.099426 0.323956 0.444218 -0.087766
C52   C     C_R   0.794973 0.635228 0.555968 0.007254
C53   C     C_R   0.898996 0.662805 0.570616 -0.289630
C54   C     C_R   0.986600 0.607602 0.553921 0.008732
C55   C     C_R   0.966215 0.527658 0.518237 -0.037526
C56   C     C_R   0.584536 0.373950 0.829414 0.507271
C57   C     C_R   0.857537 0.501702 0.505836 0.232688
C58   C     C_R   0.045724 0.472104 0.494240 -0.027606
C59   C     C_R   0.019038 0.384431 0.464827 0.140700
C60   C     C_R   0.911333 0.362122 0.454357 -0.296259
C61   C     C_R   0.832167 0.421262 0.473566 -0.208739
C62   C     C_R   0.148869 0.502455 0.495790 -0.053406
C63   C     C_R   0.201304 0.357170 0.449720 -0.032031
C64   C     C_R   0.475612 0.386501 0.713722 -0.153643
C65   C     C_R   0.467378 0.400796 0.663151 -0.249474
C66   C     C_R   0.570630 0.545746 0.680904 -0.244317
H1    H     H_    0.607184 0.607770 0.668472 0.147715
H2    H     H_    0.437049 0.326246 0.726360 0.142974
H3    H     H_    0.700623 0.235621 0.899520 0.188353
H4    H     H_    0.658090 0.215464 0.053066 0.142800
H5    H     H_    0.670544 0.507423 0.362326 0.176264
H6    H     H_    0.655005 0.223872 0.138493 0.188313
H7    H     H_    0.668206 0.490608 0.273649 0.142835
H8    H     H_    0.693191 0.232386 0.984388 0.142687
H9    H     H_    0.736277 0.218498 0.470087 0.167114
H10   H     H_    0.684781 0.879743 0.422365 0.168892
H11   H     H_    0.760222 0.040373 0.442183 0.148706
H12   H     H_    0.617666 0.584639 0.757781 0.138506
H13   H     H_    0.244975 0.787339 0.506780 0.158844
H14   H     H_    0.316429 0.093052 0.501559 0.190720
H15   H     H_    0.193144 0.973944 0.513087 0.139221
H16   H     H_    0.265812 0.311951 0.435497 0.142102
H17   H     H_    0.885744 0.301054 0.429476 0.170781
H18   H     H_    0.173235 0.572241 0.512639 0.150257
H19   H     H_    0.728450 0.675909 0.570418 0.141514
H20   H     H_    0.312932 0.654985 0.855312 0.189369
H21   H     H_    0.912420 0.723634 0.597458 0.161533
H22   H     H_    0.750714 0.402197 0.462517 0.204355
H23   H     H_    0.327126 0.465443 0.330801 0.164412
H24   H     H_    0.327159 0.448037 0.242539 0.140613
H25   H     H_    0.331357 0.684805 0.100667 0.189002
H26   H     H_    0.330348 0.681642 0.014988 0.143266
H27   H     H_    0.300738 0.656424 0.939525 0.143519
H28   H     H_    0.424303 0.349805 0.636923 0.170742
N1    N     N_R   0.520744 0.450140 0.798319 -0.354215
N2    N     N_R   0.495629 0.461998 0.200706 -0.355224
N3    N     N_R   0.222180 0.444690 0.474320 -0.112942
N4    N     N_R   0.776980 0.554780 0.525420 -0.124853
O1    O     O_R   0.366730 0.627160 0.487740 -0.628884
O2    O     O_2   0.382754 0.622795 0.188380 -0.570360
O3    O     O_2   0.654034 0.302567 0.812077 -0.562458
O4    O     O_2   0.608000 0.301149 0.215046 -0.565303
O5    O     O_R   0.544830 0.662520 0.504140 -0.585911
O6    O     O_R   0.410970 0.482310 0.563040 -0.600072
O7    O     O_R   0.589070 0.517670 0.579450 -0.624692
O8    O     O_R   0.455170 0.337480 0.495860 -0.579896
O9    O     O_R   0.633270 0.372840 0.512260 -0.648257
O10   O     O_R   0.410930 0.482330 0.420550 -0.630953
O11   O     O_R   0.589030 0.517690 0.436960 -0.602876
O12   O     O_2   0.385295 0.596150 0.782001 -0.591879
Zn1   Zn    Zn3+2 0.381080 0.476390 0.489050 0.958806
Zn2   Zn    Zn3+2 0.618920 0.523610 0.510950 0.958505
O13   O     O_3   0.466671 0.158932 0.546271 -0.629019
C67   C     C_3   0.529365 0.132097 0.594633 -0.328300
H29   H     H_    0.599681 0.177003 0.604959 0.166868
H30   H     H_    0.559122 0.047714 0.598445 0.168377
H31   H     H_    0.476219 0.151330 0.621330 0.194072
O14   O     O_3   0.546115 0.750280 0.418784 -0.593448
C68   C     C_3   0.469415 0.770510 0.372860 -0.319675
H32   H     H_    0.485998 0.837315 0.352523 0.169480
H33   H     H_    0.383802 0.783643 0.378172 0.160159
H34   H     H_    0.476571 0.702493 0.348962 0.206115
C69   C     C_R   0.082278 0.224495 0.419027 0.110929
C70   C     C_R   0.049274 0.144652 0.443218 -0.179937
C71   C     C_R   0.035179 0.050536 0.419768 -0.142649
C72   C     C_R   0.055917 0.034555 0.372479 -0.086202
C73   C     C_R   0.090247 0.112869 0.348435 -0.119420
C74   C     C_R   0.103540 0.207456 0.371559 -0.156038
H35   H     H_    0.034816 0.155213 0.480260 0.135055
H36   H     H_    0.009146 0.989630 0.438473 0.123451
H37   H     H_    0.045665 0.961403 0.354523 0.126506
H38   H     H_    0.106558 0.100294 0.311847 0.134123
H39   H     H_    0.129996 0.267498 0.352420 0.124276
C75   C     C_R   0.095808 0.626510 0.582400 0.107660
C76   C     C_R   0.155101 0.556573 0.620205 -0.149864
C77   C     C_R   0.249040 0.582145 0.653022 -0.081239
C78   C     C_R   0.286731 0.675701 0.647278 -0.074769
C79   C     C_R   0.228719 0.745249 0.609355 -0.160986
C80   C     C_R   0.132369 0.721690 0.577518 -0.191270
H40   H     H_    0.125734 0.484609 0.625640 0.133948
H41   H     H_    0.291118 0.530333 0.683579 0.173231
H42   H     H_    0.359806 0.694987 0.672698 0.153519
H43   H     H_    0.256980 0.818386 0.605363 0.140708
H44   H     H_    0.085524 0.777764 0.549459 0.127749

loop_
_geom_bond_atom_site_label_1
_geom_bond_atom_site_label_2
_ccdc_geom_bond_type
C10   C27   A    
C58   C62   A    
C56   N1    A    
C59   C60   A    
C21   C26   A    
C35   H8    S    
C8    C66   A    
C72   C73   A    
C51   C69   S    
C41   C42   A    
C54   C55   A    
C78   H42   S    
C1    O1    A    
C46   H10   S    
C67   H29   S    
C76   C77   A    
C53   C54   A    
C64   H2    S    
C28   C29   A    
C7    C31   A    
C56   O3    S    
C12   O6    A    
C30   H27   S    
C36   H11   S    
C5    C6    A    
N3    Zn1   S    
C60   H17   S    
C9    C22   A    
C38   H13   S    
C15   C16   A    
C54   C75   S    
C18   C19   A    
O9    Zn2   S    
C73   H38   S    
C33   H6    S    
O14   C68   S    
C71   H36   S    
C47   O14   S    
C16   C17   A    
C70   H35   S    
C40   H14   S    
C43   C48   A    
C1    O5    A    
C8    C12   S    
C21   H24   S    
C66   H1    S    
C20   N2    A    
C23   O9    A    
C8    C65   A    
C21   C22   A    
C27   C30   A    
C41   C43   A    
C7    C56   A    
C4    C7    A    
C4    C28   A    
C44   C46   A    
O8    Zn1   S    
C68   H33   S    
C26   N2    S    
C76   H40   S    
C70   C71   A    
N4    Zn2   S    
C63   H16   S    
C69   C70   A    
C51   C63   A    
C24   C25   A    
C39   H15   S    
C10   C14   A    
O11   Zn2   S    
C75   C80   A    
C45   O12   S    
C77   C78   A    
C32   H4    S    
C58   C59   A    
C23   C37   S    
C23   O8    A    
C5    C45   A    
C60   C61   A    
C38   C39   A    
C43   C44   A    
C77   H41   S    
C2    H12   S    
C61   H22   S    
C62   N3    A    
C37   C49   A    
C80   H44   S    
C20   O2    S    
C16   C20   A    
O1    Zn1   S    
C49   H9    S    
C17   C18   A    
C53   H21   S    
C37   C48   A    
C14   H26   S    
C42   C50   A    
C65   H28   S    
C6    C30   A    
O7    Zn2   S    
C11   C32   A    
C55   C57   A    
C71   C72   A    
C31   C35   A    
C36   C44   A    
C51   C59   A    
C73   C74   A    
C45   N1    A    
C39   C40   A    
C52   C53   A    
O13   C67   S    
C1    C50   S    
C68   H34   S    
C62   H18   S    
C46   C47   A    
C52   H19   S    
C4    C5    A    
C2    C66   A    
C10   C13   A    
O6    Zn1   S    
C67   H30   S    
C68   H32   S    
C9    C24   A    
C57   C61   A    
C75   C76   A    
C38   C50   A    
C78   C79   A    
C29   C35   A    
C6    H20   S    
O10   Zn1   S    
C13   C17   A    
C79   H43   S    
C34   O10   A    
C64   C65   A    
C2    C3    A    
C25   C26   A    
C63   N3    A    
C74   H39   S    
C32   C33   A    
C11   C13   A    
C69   C74   A    
C12   O7    A    
C72   H37   S    
C57   N4    A    
C52   N4    A    
C19   O4    S    
C22   H23   S    
C9    C34   S    
C25   H7    S    
C42   C47   A    
C3    C64   A    
C18   C33   A    
C67   H31   S    
C79   C80   A    
C36   C49   A    
C15   H25   S    
C31   H3    S    
C11   C29   A    
C3    N1    S    
C55   C58   A    
C27   C28   A    
C34   O11   A    
C14   C15   A    
O5    Zn2   S    
C40   C41   A    
C19   N2    A    
C24   H5    S    
C48   O13   S    
