data_mof_unit_10943.cif
_audit_creation_date              2012-12-11T15:06:48-0500
_audit_creation_method            fapswitch 2.2
_symmetry_space_group_name_H-M    P1
_symmetry_Int_Tables_number       1
_space_group_crystal_system       triclinic
_cell_length_a                    19.659047
_cell_length_b                    11.337925
_cell_length_c                    18.750033
_cell_angle_alpha                 89.756638
_cell_angle_beta                  89.573657
_cell_angle_gamma                 89.904327
_cell_volume                      4179.08835659

loop_
_atom_site_label
_atom_site_type_symbol
_atom_type_description
_atom_site_fract_x
_atom_site_fract_y
_atom_site_fract_z
_atom_type_partial_charge
C1    C     C_R   0.761531 0.521554 0.638359 0.534718
C2    C     C_R   0.238766 0.522965 0.361046 0.534376
C3    C     C_R   0.261531 0.021561 0.638362 0.534718
C4    C     C_R   0.738759 0.022937 0.361054 0.534395
C5    C     C_3   0.813497 0.129496 0.446512 -0.243663
C6    C     C_3   0.190515 0.134311 0.551492 -0.245432
C7    C     C_3   0.313468 0.629616 0.446518 -0.243668
C8    C     C_3   0.690523 0.634296 0.551480 -0.245548
C9    C     C_3   0.749673 0.055883 0.436803 0.054236
C10   C     C_3   0.250650 0.051913 0.561962 0.049321
C11   C     C_3   0.249680 0.555926 0.436795 0.054231
C12   C     C_3   0.750644 0.551872 0.561952 0.049242
C13   C     C_3   0.767789 0.088183 0.573692 0.070306
C14   C     C_3   0.233143 0.083139 0.424778 0.070247
C15   C     C_3   0.267780 0.588179 0.573696 0.070281
C16   C     C_3   0.733144 0.583071 0.424764 0.070292
C17   C     C_3   0.781612 0.955584 0.558933 -0.081546
C18   C     C_3   0.211305 0.954601 0.442702 -0.079654
C19   C     C_3   0.281681 0.455619 0.558904 -0.081516
C20   C     C_3   0.711301 0.454534 0.442691 -0.079689
C21   C     C_3   0.821819 0.152107 0.527216 -0.202426
C22   C     C_3   0.185928 0.161339 0.470768 -0.209354
C23   C     C_3   0.321754 0.652248 0.527231 -0.202415
C24   C     C_3   0.685922 0.661273 0.470747 -0.209275
C25   C     C_3   0.998409 0.203302 0.459327 -0.234965
C26   C     C_3   0.000045 0.203931 0.541566 -0.230067
C27   C     C_3   0.498410 0.703291 0.459323 -0.234961
C28   C     C_3   0.500060 0.703908 0.541565 -0.230054
C29   C     C_3   0.067358 0.395165 0.472413 -0.213417
C30   C     C_3   0.937599 0.406122 0.527147 -0.209457
C31   C     C_3   0.567361 0.895140 0.472403 -0.213388
C32   C     C_3   0.437604 0.906080 0.527159 -0.209463
C33   C     C_3   0.944320 0.396891 0.446133 -0.265509
C34   C     C_3   0.059380 0.391335 0.554160 -0.269157
C35   C     C_3   0.444323 0.896892 0.446144 -0.265529
C36   C     C_3   0.559390 0.891325 0.554152 -0.269144
C37   C     C_3   0.009865 0.331022 0.430779 0.066426
C38   C     C_3   0.991441 0.332387 0.569558 0.070016
C39   C     C_3   0.509862 0.831014 0.430777 0.066420
C40   C     C_3   0.491456 0.832367 0.569562 0.070011
C41   C     C_3   0.814327 0.015816 0.044971 -0.227092
C42   C     C_3   0.185732 0.016214 0.955222 -0.227361
C43   C     C_3   0.314327 0.515815 0.044971 -0.227092
C44   C     C_3   0.685733 0.516212 0.955223 -0.227359
C45   C     C_R   0.776167 0.122050 0.648894 0.535883
C46   C     C_R   0.224978 0.118642 0.349662 0.531990
C47   C     C_R   0.276156 0.622025 0.648904 0.535837
C48   C     C_R   0.724986 0.618612 0.349650 0.531977
C49   C     C_3   0.819511 0.030994 0.965709 -0.226504
C50   C     C_3   0.180658 0.031439 0.034464 -0.225435
C51   C     C_3   0.319511 0.530993 0.965709 -0.226504
C52   C     C_3   0.680659 0.531434 0.034464 -0.225431
C53   C     C_3   0.683743 0.030088 0.032145 -0.213865
C54   C     C_3   0.316245 0.029953 0.968127 -0.213790
C55   C     C_3   0.183742 0.530087 0.032144 -0.213865
C56   C     C_3   0.816246 0.529953 0.968127 -0.213790
C57   C     C_3   0.754109 0.203555 0.061229 -0.261833
C58   C     C_3   0.245852 0.203546 0.937861 -0.260901
C59   C     C_3   0.254109 0.703554 0.061229 -0.261833
C60   C     C_3   0.745851 0.703545 0.937861 -0.260901
C61   C     C_3   0.747699 0.070794 0.074814 0.061962
C62   C     C_3   0.252291 0.070683 0.925082 0.061483
C63   C     C_3   0.247699 0.570793 0.074814 0.061964
C64   C     C_3   0.752291 0.570683 0.925083 0.061482
C65   C     C_3   0.759460 0.105279 0.936048 0.061615
C66   C     C_3   0.240559 0.105850 0.063795 0.061523
C67   C     C_3   0.259460 0.605279 0.936048 0.061616
C68   C     C_3   0.740559 0.605849 0.063795 0.061527
C69   C     C_3   0.695777 0.030971 0.950136 -0.261781
C70   C     C_3   0.304267 0.031321 0.050151 -0.261016
C71   C     C_3   0.195776 0.530971 0.950135 -0.261781
C72   C     C_3   0.804269 0.531322 0.050151 -0.261016
C73   C     C_3   0.748682 0.222318 0.979245 -0.217468
C74   C     C_3   0.251225 0.222669 0.019762 -0.218266
C75   C     C_3   0.248681 0.722318 0.979245 -0.217468
C76   C     C_3   0.751225 0.722669 0.019762 -0.218264
C77   C     C_3   0.004661 0.477522 0.039698 -0.227652
C78   C     C_3   0.995208 0.477275 0.959760 -0.226495
C79   C     C_3   0.504660 0.977522 0.039698 -0.227653
C80   C     C_3   0.495208 0.977275 0.959760 -0.226495
C81   C     C_3   0.064110 0.275093 0.025889 -0.213411
C82   C     C_3   0.935896 0.274844 0.974729 -0.214187
C83   C     C_3   0.564109 0.775095 0.025890 -0.213405
C84   C     C_3   0.435894 0.774844 0.974730 -0.214186
C85   C     C_3   0.941959 0.292564 0.056358 -0.261358
C86   C     C_3   0.057990 0.292142 0.944135 -0.261660
C87   C     C_3   0.441958 0.792564 0.056359 -0.261357
C88   C     C_3   0.557988 0.792140 0.944135 -0.261658
C89   C     C_R   0.970269 0.341974 0.645529 0.535409
C90   C     C_R   0.029865 0.341555 0.354493 0.534015
C91   C     C_R   0.470280 0.841970 0.645534 0.535384
C92   C     C_R   0.529859 0.841554 0.354490 0.534002
C93   C     C_3   0.011064 0.350157 0.069265 0.062232
C94   C     C_3   0.988833 0.349689 0.930887 0.062374
C95   C     C_3   0.511063 0.850158 0.069265 0.062231
C96   C     C_3   0.488832 0.849689 0.930887 0.062375
C97   C     C_R   0.760394 0.533963 0.848753 0.534429
C98   C     C_R   0.239633 0.534334 0.151270 0.534261
C99   C     C_R   0.260394 0.033964 0.848753 0.534425
C100  C     C_R   0.739634 0.034335 0.151270 0.534263
C101  C     C_R   0.773967 0.132856 0.858920 0.534719
C102  C     C_R   0.225958 0.133383 0.140953 0.533309
C103  C     C_R   0.273967 0.632856 0.858920 0.534716
C104  C     C_R   0.725958 0.633383 0.140953 0.533306
C105  C     C_R   0.967756 0.352893 0.854362 0.534678
C106  C     C_R   0.032200 0.353207 0.145715 0.534693
C107  C     C_R   0.467755 0.852893 0.854362 0.534676
C108  C     C_R   0.532200 0.853207 0.145715 0.534693
C109  C     C_3   0.691167 0.129473 0.468342 -0.264705
C110  C     C_3   0.312133 0.113953 0.527392 -0.266322
C111  C     C_3   0.191146 0.629439 0.468350 -0.264701
C112  C     C_3   0.812129 0.613855 0.527361 -0.266280
C113  C     C_3   0.694395 0.121772 0.549607 -0.263424
C114  C     C_3   0.308509 0.101899 0.446601 -0.272284
C115  C     C_3   0.194367 0.621672 0.549620 -0.263507
C116  C     C_3   0.808511 0.601762 0.446582 -0.272265
C117  C     C_3   0.757928 0.938921 0.481337 -0.187725
C118  C     C_3   0.234139 0.935219 0.520536 -0.186394
C119  C     C_3   0.257993 0.438961 0.481311 -0.187714
C120  C     C_3   0.734058 0.435174 0.520562 -0.186397
Cr1   Cr    Cr6+3 0.885690 0.492860 0.745310 0.990757
Cr2   Cr    Cr6+3 0.114310 0.492860 0.254690 0.990878
Cr3   Cr    Cr6+3 0.385690 0.992860 0.745310 0.990761
Cr4   Cr    Cr6+3 0.614310 0.992860 0.254690 0.990873
Cr5   Cr    Cr6+3 0.729880 0.332270 0.748190 0.991433
Cr6   Cr    Cr6+3 0.270120 0.332270 0.251810 0.991193
Cr7   Cr    Cr6+3 0.229880 0.832270 0.748190 0.991433
Cr8   Cr    Cr6+3 0.770120 0.832270 0.251810 0.991195
Cr9   Cr    Cr6+3 0.888120 0.178590 0.753010 0.984181
Cr10  Cr    Cr6+3 0.111880 0.178590 0.246990 0.983796
Cr11  Cr    Cr6+3 0.388120 0.678590 0.753010 0.984180
Cr12  Cr    Cr6+3 0.611880 0.678590 0.246990 0.983770
H1    H     H_    0.641066 0.105493 0.448823 0.131460
H2    H     H_    0.360762 0.088209 0.549141 0.134910
H3    H     H_    0.141058 0.605434 0.448813 0.131461
H4    H     H_    0.860758 0.588176 0.549138 0.134895
H5    H     H_    0.871110 0.119472 0.541097 0.136824
H6    H     H_    0.133508 0.157523 0.453977 0.130786
H7    H     H_    0.371093 0.619870 0.541136 0.136787
H8    H     H_    0.633491 0.657308 0.453975 0.130871
H9    H     H_    0.786419 0.869883 0.452925 0.150340
H10   H     H_    0.198734 0.878963 0.549989 0.159836
H11   H     H_    0.286513 0.369963 0.452898 0.150410
H12   H     H_    0.698513 0.379207 0.550011 0.159898
H13   H     H_    0.032588 0.136616 0.436789 0.117806
H14   H     H_    0.967342 0.138152 0.566914 0.121415
H15   H     H_    0.532575 0.636593 0.436768 0.117829
H16   H     H_    0.467372 0.638094 0.566913 0.121355
H17   H     H_    0.948540 0.172154 0.441910 0.105836
H18   H     H_    0.049789 0.170364 0.558214 0.104231
H19   H     H_    0.448536 0.672160 0.441917 0.105820
H20   H     H_    0.549810 0.670356 0.558202 0.104204
H21   H     H_    0.615273 0.858822 0.454117 0.108782
H22   H     H_    0.385891 0.889271 0.545929 0.111771
H23   H     H_    0.115287 0.358902 0.454140 0.108763
H24   H     H_    0.885869 0.389408 0.545913 0.111775
H25   H     H_    0.602454 0.843935 0.579407 0.100837
H26   H     H_    0.399830 0.850950 0.423063 0.099192
H27   H     H_    0.102438 0.343933 0.579415 0.100846
H28   H     H_    0.899832 0.350920 0.423061 0.099185
H29   H     H_    0.946684 0.486856 0.422204 0.127428
H30   H     H_    0.058663 0.482159 0.576144 0.121242
H31   H     H_    0.446697 0.986867 0.422233 0.127421
H32   H     H_    0.558671 0.982156 0.576130 0.121232
H33   H     H_    0.949050 0.499602 0.539011 0.131597
H34   H     H_    0.064377 0.488870 0.457621 0.137760
H35   H     H_    0.449027 0.999562 0.539040 0.131630
H36   H     H_    0.564392 0.988856 0.457607 0.137772
H37   H     H_    0.818777 0.922046 0.057703 0.137546
H38   H     H_    0.181196 0.922583 0.942926 0.136526
H39   H     H_    0.318777 0.422046 0.057703 0.137546
H40   H     H_    0.681196 0.422581 0.942925 0.136526
H41   H     H_    0.697757 0.221454 0.451582 0.135735
H42   H     H_    0.307944 0.207702 0.538960 0.139923
H43   H     H_    0.197707 0.721446 0.451613 0.135713
H44   H     H_    0.807930 0.707614 0.538871 0.139996
H45   H     H_    0.859165 0.056963 0.070694 0.115366
H46   H     H_    0.140907 0.057620 0.929313 0.115329
H47   H     H_    0.359164 0.556963 0.070694 0.115366
H48   H     H_    0.640907 0.557618 0.929313 0.115328
H49   H     H_    0.868877 0.069840 0.953160 0.134995
H50   H     H_    0.131214 0.070001 0.046875 0.134690
H51   H     H_    0.368877 0.569838 0.953160 0.134995
H52   H     H_    0.631214 0.569991 0.046876 0.134690
H53   H     H_    0.820768 0.942846 0.939938 0.116387
H54   H     H_    0.179609 0.943299 0.060668 0.116645
H55   H     H_    0.320767 0.442846 0.939938 0.116388
H56   H     H_    0.679613 0.443294 0.060668 0.116641
H57   H     H_    0.662956 0.947501 0.051985 0.112119
H58   H     H_    0.337088 0.947203 0.948979 0.111832
H59   H     H_    0.162952 0.447500 0.051983 0.112119
H60   H     H_    0.837089 0.447203 0.948979 0.111832
H61   H     H_    0.702888 0.940327 0.929824 0.109205
H62   H     H_    0.297224 0.940789 0.071110 0.108928
H63   H     H_    0.202888 0.440327 0.929822 0.109204
H64   H     H_    0.797226 0.440790 0.071110 0.108926
H65   H     H_    0.712943 0.252116 0.089563 0.109398
H66   H     H_    0.287015 0.251879 0.909253 0.109975
H67   H     H_    0.212942 0.752115 0.089563 0.109399
H68   H     H_    0.787014 0.751879 0.909253 0.109974
H69   H     H_    0.803163 0.236887 0.081437 0.108381
H70   H     H_    0.196828 0.237063 0.917348 0.108258
H71   H     H_    0.303163 0.736886 0.081437 0.108380
H72   H     H_    0.696827 0.737061 0.917348 0.108258
H73   H     H_    0.779906 0.294507 0.960148 0.108522
H74   H     H_    0.219881 0.294978 0.038219 0.108026
H75   H     H_    0.279906 0.794506 0.960148 0.108522
H76   H     H_    0.719880 0.794976 0.038219 0.108025
H77   H     H_    0.695649 0.249828 0.969280 0.116441
H78   H     H_    0.304198 0.250299 0.029511 0.115790
H79   H     H_    0.195649 0.749828 0.969280 0.116441
H80   H     H_    0.804197 0.750300 0.029511 0.115789
H81   H     H_    0.644212 0.097147 0.043142 0.119799
H82   H     H_    0.355718 0.096820 0.956706 0.119941
H83   H     H_    0.144212 0.597148 0.043141 0.119799
H84   H     H_    0.855718 0.596821 0.956706 0.119941
H85   H     H_    0.674980 0.203654 0.572970 0.138733
H86   H     H_    0.332682 0.179709 0.421633 0.138114
H87   H     H_    0.174896 0.703500 0.573011 0.138738
H88   H     H_    0.832730 0.679528 0.421597 0.138084
H89   H     H_    0.651358 0.069915 0.922334 0.109363
H90   H     H_    0.348655 0.070277 0.077668 0.109386
H91   H     H_    0.151358 0.569915 0.922333 0.109363
H92   H     H_    0.848657 0.570280 0.077668 0.109385
H93   H     H_    0.048553 0.531422 0.052644 0.131285
H94   H     H_    0.951368 0.531467 0.946446 0.131919
H95   H     H_    0.548551 0.031424 0.052645 0.131285
H96   H     H_    0.451369 0.031469 0.946445 0.131920
H97   H     H_    0.961122 0.523428 0.065559 0.115368
H98   H     H_    0.038749 0.522883 0.933617 0.115600
H99   H     H_    0.461120 0.023427 0.065558 0.115368
H100  H     H_    0.538750 0.022881 0.933618 0.115600
H101  H     H_    0.615678 0.785624 0.044558 0.111113
H102  H     H_    0.384315 0.785136 0.955943 0.110799
H103  H     H_    0.115679 0.285615 0.044560 0.111113
H104  H     H_    0.884316 0.285135 0.955942 0.110800
H105  H     H_    0.599508 0.848468 0.923141 0.108170
H106  H     H_    0.400363 0.849082 0.076885 0.108126
H107  H     H_    0.099510 0.348471 0.923143 0.108172
H108  H     H_    0.900364 0.349083 0.076884 0.108127
H109  H     H_    0.938538 0.206423 0.084624 0.109828
H110  H     H_    0.061434 0.205815 0.916532 0.109489
H111  H     H_    0.438538 0.706421 0.084624 0.109828
H112  H     H_    0.561431 0.705812 0.916534 0.109490
H113  H     H_    0.949109 0.181652 0.964348 0.120374
H114  H     H_    0.050985 0.182052 0.037040 0.121478
H115  H     H_    0.449108 0.681652 0.964349 0.120375
H116  H     H_    0.550987 0.682052 0.037043 0.121479
H117  H     H_    0.659478 0.053157 0.569411 0.103453
H118  H     H_    0.337757 0.025159 0.428332 0.106910
H119  H     H_    0.159493 0.552980 0.569400 0.103458
H120  H     H_    0.837725 0.524963 0.428339 0.106927
H121  H     H_    0.706027 0.911655 0.489387 0.082811
H122  H     H_    0.281926 0.890633 0.515582 0.083952
H123  H     H_    0.206102 0.411656 0.489355 0.082812
H124  H     H_    0.781756 0.390277 0.515754 0.084020
H125  H     H_    0.746502 0.905483 0.594858 0.093353
H126  H     H_    0.242896 0.896650 0.407753 0.092780
H127  H     H_    0.246609 0.405426 0.594822 0.093355
H128  H     H_    0.742940 0.396588 0.407791 0.092790
H129  H     H_    0.856925 0.079128 0.424303 0.134852
H130  H     H_    0.144593 0.089664 0.571823 0.131077
H131  H     H_    0.356909 0.579296 0.424316 0.134795
H132  H     H_    0.644598 0.589651 0.571824 0.131055
H133  H     H_    0.810260 0.214196 0.416738 0.089381
H134  H     H_    0.196772 0.216858 0.582348 0.090047
H135  H     H_    0.310208 0.714304 0.416740 0.089362
H136  H     H_    0.696796 0.716861 0.582318 0.090102
H137  H     H_    0.824499 0.242373 0.542017 0.096817
H138  H     H_    0.202379 0.247733 0.458693 0.099345
H139  H     H_    0.324243 0.742509 0.542040 0.096819
H140  H     H_    0.702313 0.747712 0.458621 0.099298
O1    O     O_R   0.957210 0.449410 0.665480 -0.533784
O2    O     O_R   0.042790 0.449410 0.334520 -0.534266
O3    O     O_R   0.457210 0.949410 0.665480 -0.533780
O4    O     O_R   0.542790 0.949410 0.334520 -0.534265
O5    O     O_R   0.736260 0.212010 0.826560 -0.508885
O6    O     O_R   0.263740 0.212010 0.173440 -0.509297
O7    O     O_R   0.236260 0.712010 0.826560 -0.508888
O8    O     O_R   0.763740 0.712010 0.173440 -0.509301
O9    O     O_R   0.832520 0.095300 0.836000 -0.534121
O10   O     O_R   0.167480 0.095300 0.164000 -0.534393
O11   O     O_R   0.332520 0.595300 0.836000 -0.534118
O12   O     O_R   0.667480 0.595300 0.164000 -0.534396
O13   O     O_R   0.946380 0.253940 0.826940 -0.512380
O14   O     O_R   0.053620 0.253940 0.173060 -0.512471
O15   O     O_R   0.446380 0.753940 0.826940 -0.512381
O16   O     O_R   0.553620 0.753940 0.173060 -0.512472
O17   O     O_3   0.834560 0.334570 0.748840 -0.271581
O18   O     O_3   0.165440 0.334570 0.251160 -0.270823
O19   O     O_3   0.334560 0.834570 0.748840 -0.271574
O20   O     O_3   0.665440 0.834570 0.251160 -0.270817
O21   O     O_R   0.820730 0.541240 0.668250 -0.514512
O22   O     O_R   0.179270 0.541240 0.331750 -0.514630
O23   O     O_R   0.320730 0.041240 0.668250 -0.514515
O24   O     O_R   0.679270 0.041240 0.331750 -0.514638
O25   O     O_R   0.714240 0.455060 0.663710 -0.536952
O26   O     O_R   0.285760 0.455060 0.336290 -0.534397
O27   O     O_R   0.214240 0.955060 0.663710 -0.536916
O28   O     O_R   0.785760 0.955060 0.336290 -0.534392
O29   O     O_R   0.736780 0.204870 0.675910 -0.516976
O30   O     O_R   0.263220 0.204870 0.324090 -0.517091
O31   O     O_R   0.236780 0.704870 0.675910 -0.516980
O32   O     O_R   0.763220 0.704870 0.324090 -0.517082
O33   O     O_R   0.833070 0.087590 0.673490 -0.548335
O34   O     O_R   0.166930 0.087590 0.326510 -0.545887
O35   O     O_R   0.333070 0.587590 0.673490 -0.548311
O36   O     O_R   0.666930 0.587590 0.326510 -0.545939
O37   O     O_R   0.946890 0.246800 0.676300 -0.515159
O38   O     O_R   0.053110 0.246800 0.323700 -0.515483
O39   O     O_R   0.446890 0.746800 0.676300 -0.515159
O40   O     O_R   0.553110 0.746800 0.323700 -0.515482
O41   O     O_R   0.956650 0.457120 0.827980 -0.531886
O42   O     O_R   0.043350 0.457120 0.172020 -0.531619
O43   O     O_R   0.456650 0.957120 0.827980 -0.531886
O44   O     O_R   0.543350 0.957120 0.172020 -0.531618
O45   O     O_R   0.820220 0.548390 0.818890 -0.510109
O46   O     O_R   0.179780 0.548390 0.181110 -0.510198
O47   O     O_R   0.320220 0.048390 0.818890 -0.510109
O48   O     O_R   0.679780 0.048390 0.181110 -0.510197
O49   O     O_R   0.713680 0.462770 0.826210 -0.531778
O50   O     O_R   0.286320 0.462770 0.173790 -0.532157
O51   O     O_R   0.213680 0.962770 0.826210 -0.531781
O52   O     O_R   0.786320 0.962770 0.173790 -0.532154
C121  C     C_3   0.855677 0.904681 0.576443 -0.267559
C122  C     C_3   0.905830 0.877765 0.515763 -0.467272
H141  H     H_    0.886955 0.816808 0.475459 0.142168
H142  H     H_    0.923882 0.959336 0.489307 0.139281
H143  H     H_    0.950534 0.833529 0.539891 0.129518
H144  H     H_    0.887004 0.960703 0.610173 0.191272
H145  H     H_    0.850255 0.825752 0.611155 0.129574
C123  C     C_3   0.134326 0.919935 0.426481 -0.263120
C124  C     C_3   0.086678 0.879671 0.486460 -0.482028
H146  H     H_    0.100554 0.793740 0.509006 0.139076
H147  H     H_    0.081818 0.946380 0.528990 0.150226
H148  H     H_    0.035875 0.867068 0.462659 0.131174
H149  H     H_    0.104682 0.991995 0.403297 0.190107
H150  H     H_    0.134283 0.850637 0.384693 0.140180
C125  C     C_3   0.355782 0.404860 0.576390 -0.267516
C126  C     C_3   0.405901 0.377901 0.515697 -0.467357
H151  H     H_    0.387047 0.316693 0.475513 0.142125
H152  H     H_    0.423827 0.459443 0.489110 0.139437
H153  H     H_    0.450679 0.333917 0.539846 0.129534
H154  H     H_    0.387114 0.461016 0.610038 0.191257
H155  H     H_    0.350424 0.325970 0.611149 0.129637
C127  C     C_3   0.634344 0.419804 0.426390 -0.263281
C128  C     C_3   0.586626 0.379648 0.486329 -0.482180
H156  H     H_    0.600560 0.293883 0.509070 0.139119
H157  H     H_    0.581607 0.446589 0.528716 0.150098
H158  H     H_    0.535889 0.366737 0.462429 0.131260
H159  H     H_    0.604698 0.491787 0.403129 0.190251
H160  H     H_    0.634363 0.350424 0.384651 0.140153

loop_
_geom_bond_atom_site_label_1
_geom_bond_atom_site_label_2
_ccdc_geom_bond_type
C78   H94   S    
C5    H133  S    
C82   C94   S    
C119  H11   S    
C120  H12   S    
C21   H5    S    
C53   C69   S    
C104  O8    A    
C56   H60   S    
C43   C63   S    
C124  H146  S    
C44   C64   S    
Cr6   O6    S    
C84   H115  S    
C112  H4    S    
C63   C98   S    
C51   H51   S    
Cr2   O2    S    
C19   H127  S    
C109  H41   S    
C28   C40   S    
C72   H92   S    
C30   C38   S    
C79   H95   S    
C18   C123  S    
C42   H38   S    
Cr9   O33   S    
C56   C72   S    
C122  H141  S    
C45   O33   A    
C8    H132  S    
C18   C118  S    
C81   C86   S    
C29   H23   S    
C30   H24   S    
C83   C88   S    
C87   H106  S    
C5    H129  S    
C41   C49   S    
Cr8   O28   S    
Cr1   O45   S    
Cr2   O42   S    
Cr3   O47   S    
Cr4   O48   S    
C126  H151  S    
C26   C38   S    
Cr10  O34   S    
C14   C114  S    
Cr11  O39   S    
C60   C76   S    
C35   H31   S    
Cr8   O52   S    
C55   H59   S    
C29   H34   S    
C33   H29   S    
C44   H40   S    
C88   H112  S    
C54   C70   S    
C48   O36   A    
C68   C72   S    
C43   H47   S    
C122  H143  S    
C69   H61   S    
C13   C21   S    
C99   O47   A    
C79   H99   S    
C32   H22   S    
C102  O6    A    
C64   C97   S    
C15   C115  S    
C97   O49   A    
C20   C120  S    
C124  H148  S    
C1    O25   A    
C54   H82   S    
Cr9   O37   S    
C57   H65   S    
C59   C63   S    
C52   H52   S    
Cr4   O20   S    
C72   H64   S    
C57   C61   S    
C82   C85   S    
Cr6   O50   S    
C77   H97   S    
Cr11  O19   S    
C60   C64   S    
Cr9   O13   S    
C13   C45   S    
C66   C70   S    
C42   H46   S    
C121  H145  S    
C69   H89   S    
C95   C108  S    
C60   H68   S    
C62   C99   S    
C107  O43   A    
C5    C21   S    
C58   H70   S    
C31   C36   S    
C75   H79   S    
C47   O35   A    
C4    O28   A    
C97   O45   A    
Cr5   O17   S    
C90   O38   A    
Cr1   O21   S    
C84   H102  S    
Cr2   O18   S    
C126  H153  S    
C65   C101  S    
Cr10  O14   S    
Cr3   O23   S    
Cr11  O11   S    
C67   C103  S    
C127  H159  S    
Cr5   O5    S    
C37   C90   S    
C24   H140  S    
C41   H45   S    
C78   C94   S    
C55   H83   S    
C19   C125  S    
C115  H119  S    
C66   C74   S    
C113  H117  S    
C25   H17   S    
C57   C73   S    
C26   H14   S    
C53   C61   S    
C60   H72   S    
C83   H101  S    
C55   C63   S    
C6    H134  S    
C56   C64   S    
C7    H131  S    
Cr7   O51   S    
C116  H88   S    
C42   C62   S    
C33   H28   S    
Cr5   O29   S    
C34   H27   S    
C76   H80   S    
C125  H154  S    
C50   H50   S    
C1    C12   S    
C75   H75   S    
C114  H86   S    
C2    C11   S    
Cr3   O3    S    
C110  H42   S    
C123  C124  S    
C6    H130  S    
C43   H39   S    
C25   C26   S    
C105  O13   A    
C107  O15   A    
C5    C9    S    
C108  O16   A    
C93   C106  S    
C71   H63   S    
C8    C12   S    
C90   O2    A    
C51   C67   S    
C7    H135  S    
C36   H25   S    
C42   C50   S    
C49   H49   S    
C112  H44   S    
Cr2   O46   S    
Cr3   O43   S    
C110  H2    S    
C61   C100  S    
C67   C75   S    
C17   H125  S    
C50   H54   S    
C112  C116  S    
C58   C74   S    
Cr10  O38   S    
C73   H73   S    
C53   H81   S    
C54   H58   S    
C81   H114  S    
C30   H33   S    
C34   H30   S    
C123  H149  S    
C68   C76   S    
C1    O21   A    
C98   O46   A    
C85   H108  S    
C14   C22   S    
C3    O23   A    
C128  H158  S    
C27   C39   S    
C7    C23   S    
C8    C24   S    
C40   C91   S    
C101  O9    A    
C56   H84   S    
Cr7   O27   S    
C99   O51   A    
Cr8   O20   S    
C49   H53   S    
C57   H69   S    
C122  H142  S    
C52   H56   S    
Cr7   O7    S    
C4    C9    S    
Cr4   O24   S    
C53   H57   S    
Cr8   O8    S    
C86   H110  S    
C58   C62   S    
C89   O1    A    
C88   C96   S    
C94   C105  S    
C77   H93   S    
C82   H104  S    
C80   H100  S    
C12   C112  S    
C44   H48   S    
C21   H137  S    
C14   C46   S    
C77   C78   S    
C15   C19   S    
C23   H139  S    
C101  O5    A    
C126  H152  S    
C92   O40   A    
C6    C22   S    
C66   C102  S    
Cr11  O35   S    
Cr6   O18   S    
Cr2   O22   S    
C103  O7    A    
Cr3   O19   S    
C46   O34   A    
C82   H113  S    
C17   C117  S    
C19   C119  S    
C2    O22   A    
Cr12  O36   S    
C16   C116  S    
C76   H76   S    
C124  H147  S    
C9    C109  S    
C125  H155  S    
C28   H16   S    
C11   C111  S    
C26   H18   S    
C105  O41   A    
C128  H156  S    
C54   C62   S    
C48   O32   A    
C109  H1    S    
C29   C34   S    
C108  O44   A    
C33   C37   S    
C41   C61   S    
C79   C95   S    
C35   C39   S    
C17   C121  S    
Cr5   O25   S    
C125  C126  S    
Cr6   O30   S    
C70   H62   S    
C85   H109  S    
C86   H107  S    
C121  H144  S    
C80   H96   S    
Cr12  O12   S    
C96   C107  S    
C91   O39   A    
C100  O52   A    
C39   C92   S    
C73   H77   S    
C27   H19   S    
C106  O14   A    
C14   C18   S    
C68   C104  S    
C119  H123  S    
C6    C10   S    
C127  H160  S    
C13   C17   S    
C78   H98   S    
C22   H6    S    
Cr5   O49   S    
C91   O3    A    
C35   H26   S    
C104  O12   A    
C43   C51   S    
C41   H37   S    
C65   C69   S    
C77   C93   S    
C70   H90   S    
C10   C110  S    
C67   C71   S    
C121  C122  S    
C111  H3    S    
Cr1   O1    S    
C18   H126  S    
C51   H55   S    
C3    O27   A    
C59   H71   S    
C31   H36   S    
C32   H35   S    
C29   C37   S    
C36   H32   S    
C9    C117  S    
C102  O10   A    
C117  H9    S    
C84   C87   S    
C15   C47   S    
C8    H136  S    
C11   C119  S    
C16   C48   S    
C7    C11   S    
C38   C89   S    
C49   C65   S    
C74   H78   S    
C111  H43   S    
C23   H7    S    
Cr7   O31   S    
Cr8   O32   S    
Cr1   O41   S    
C114  H118  S    
C65   C73   S    
C84   C96   S    
Cr4   O44   S    
C86   C94   S    
C25   C37   S    
C12   C120  S    
C59   H67   S    
C83   H116  S    
Cr12  O20   S    
C55   C71   S    
C80   C96   S    
C118  H122  S    
C52   C68   S    
C16   C20   S    
C22   H138  S    
C15   C23   S    
Cr9   O17   S    
C16   C24   S    
C115  H87   S    
C85   C93   S    
C2    O26   A    
C113  H85   S    
C31   H21   S    
C71   H91   S    
C117  H121  S    
C120  H124  S    
C32   C35   S    
C36   C40   S    
C123  H150  S    
Cr7   O19   S    
C116  H120  S    
C87   C95   S    
C46   O30   A    
C10   C118  S    
C128  H157  S    
C81   C93   S    
C87   H111  S    
C83   C95   S    
Cr10  O18   S    
C81   H103  S    
C103  O11   A    
Cr12  O40   S    
Cr9   O9    S    
C50   C66   S    
C100  O48   A    
C20   H128  S    
C28   H20   S    
C45   O29   A    
C92   O4    A    
C24   H8    S    
C59   C75   S    
C106  O42   A    
C74   H74   S    
C110  C114  S    
C58   H66   S    
C30   C33   S    
C34   C38   S    
C47   O31   A    
C4    O24   A    
C118  H10   S    
C89   O37   A    
C25   H13   S    
Cr6   O26   S    
C109  C113  S    
Cr1   O17   S    
Cr10  O10   S    
C3    C10   S    
Cr11  O15   S    
Cr4   O4    S    
C44   C52   S    
C127  C128  S    
Cr12  O16   S    
C20   C127  S    
C88   H105  S    
C31   C39   S    
C32   C40   S    
C79   C80   S    
C98   O50   A    
C27   H15   S    
C27   C28   S    
C111  C115  S    
C13   C113  S    
