data_mof_unit_36334.cif
_audit_creation_date              2012-12-10T18:33:42-0500
_audit_creation_method            fapswitch 2.2
_symmetry_space_group_name_H-M    P1
_symmetry_Int_Tables_number       1
_space_group_crystal_system       triclinic
_cell_length_a                    10.478016
_cell_length_b                    15.383776
_cell_length_c                    15.331866
_cell_angle_alpha                 80.073252
_cell_angle_beta                  93.286027
_cell_angle_gamma                 104.567086
_cell_volume                      2355.85850059

loop_
_atom_site_label
_atom_site_type_symbol
_atom_type_description
_atom_site_fract_x
_atom_site_fract_y
_atom_site_fract_z
_atom_type_partial_charge
C1    C     C_R   0.475485 0.442080 0.661713 0.832840
C2    C     C_R   0.517826 0.558423 0.338111 0.839482
C3    C     C_R   0.484742 0.465017 0.815305 -0.235170
C4    C     C_R   0.457950 0.543271 0.183934 -0.254097
C5    C     C_R   0.417696 0.460881 0.892788 0.075291
C6    C     C_R   0.473783 0.571293 0.092668 0.075171
C7    C     C_R   0.307399 0.386541 0.916932 0.133755
C8    C     C_R   0.564253 0.655563 0.061667 0.138213
C9    C     C_R   0.459384 0.529153 0.946536 0.027010
C10   C     C_R   0.410891 0.512848 0.032804 0.031108
C11   C     C_R   0.301515 0.438666 0.056766 -0.275217
C12   C     C_R   0.544316 0.614617 0.915106 -0.275083
C13   C     C_R   0.247689 0.376471 0.999704 0.150586
C14   C     C_R   0.594978 0.678690 0.970773 0.153651
C15   C     C_R   0.665024 0.824844 0.660570 -0.350497
C16   C     C_R   0.373996 0.175062 0.334771 -0.306156
C17   C     C_R   0.665992 0.752039 0.618689 0.300568
C18   C     C_R   0.361292 0.249945 0.369827 0.301734
C19   C     C_R   0.515901 0.797442 0.507274 0.173797
C20   C     C_R   0.473440 0.201480 0.502123 0.187374
C21   C     C_R   0.546869 0.884707 0.533768 -0.007757
C22   C     C_R   0.470103 0.116188 0.474199 -0.023035
C23   C     C_R   0.741886 0.501319 0.500538 0.841155
C24   C     C_R   0.258067 0.498398 0.499761 0.836187
C25   C     C_R   0.600592 0.889385 0.619347 0.121680
C26   C     C_R   0.434601 0.111662 0.384162 0.098289
C27   C     C_R   0.519163 0.964980 0.483295 0.094785
C28   C     C_R   0.506511 0.037465 0.526626 0.094209
C29   C     C_R   0.530027 0.024929 0.619605 -0.259500
C30   C     C_R   0.515583 0.977748 0.390694 -0.233343
C31   C     C_R   0.589647 0.958643 0.662325 -0.214077
C32   C     C_R   0.463398 0.045420 0.342541 -0.195049
C33   C     C_3   0.938668 0.437340 0.567327 -0.192225
C34   C     C_3   0.060839 0.560935 0.433266 -0.192498
C35   C     C_3   0.057311 0.518053 0.577661 -0.160872
C36   C     C_3   0.942282 0.480306 0.423025 -0.161888
C37   C     C_3   0.121316 0.495940 0.499743 0.043201
C38   C     C_3   0.878379 0.502705 0.500914 0.040460
C39   C     C_3   0.005389 0.415136 0.489455 -0.141337
C40   C     C_3   0.994420 0.583242 0.511150 -0.150443
C41   C     C_R   0.430869 0.409737 0.753023 -0.047774
C42   C     C_R   0.526744 0.596338 0.244028 -0.046387
C43   C     C_R   0.257984 0.326770 0.855830 -0.210567
C44   C     C_R   0.624317 0.712526 0.123259 -0.215067
C45   C     C_R   0.315552 0.341231 0.773127 -0.220775
C46   C     C_R   0.605623 0.682937 0.213715 -0.214423
H1    H     H_    0.108498 0.532982 0.640818 0.137996
H2    H     H_    0.891142 0.465472 0.359836 0.137906
H3    H     H_    0.506713 0.063045 0.664512 0.181197
H4    H     H_    0.555368 0.936321 0.354662 0.135376
H5    H     H_    0.884362 0.387408 0.622167 0.122565
H6    H     H_    0.114650 0.609960 0.377705 0.129619
H7    H     H_    0.013836 0.346706 0.480563 0.144296
H8    H     H_    0.987976 0.652030 0.519773 0.136633
H9    H     H_    0.398716 0.477207 0.210098 0.140680
H10   H     H_    0.576956 0.514454 0.799986 0.141716
H11   H     H_    0.657626 0.726023 0.259903 0.153540
H12   H     H_    0.265125 0.302132 0.723880 0.149241
H13   H     H_    0.170823 0.271613 0.868789 0.148943
H14   H     H_    0.690093 0.778558 0.103161 0.149679
H15   H     H_    0.252352 0.430287 0.118732 0.143653
H16   H     H_    0.567269 0.634502 0.845677 0.159209
H17   H     H_    0.619592 0.958424 0.731218 0.148823
H18   H     H_    0.450036 0.047978 0.271568 0.142551
N1    N     N_R   0.574200 0.731700 0.552740 -0.135885
N2    N     N_R   0.425800 0.268300 0.447260 -0.137244
O1    O     O_R   0.462600 0.383110 0.605620 -0.619646
O2    O     O_R   0.537400 0.616890 0.394380 -0.637772
O3    O     O_R   0.510210 0.531900 0.639510 -0.595323
O4    O     O_R   0.489790 0.468100 0.360490 -0.625321
O5    O     O_R   0.662240 0.425610 0.483080 -0.629672
O6    O     O_R   0.337760 0.574390 0.516920 -0.617813
O7    O     O_R   0.709860 0.574400 0.516970 -0.625309
O8    O     O_R   0.290140 0.425600 0.483030 -0.635666
Zn1   Zn    Zn3+2 0.468210 0.400660 0.477370 0.905354
Zn2   Zn    Zn3+2 0.531790 0.599340 0.522630 0.918728
C47   C     C_3   0.528381 0.221567 0.590501 -0.334294
C48   C     C_3   0.414158 0.199375 0.656384 -0.837662
H19   H     H_    0.336646 0.233928 0.628546 0.272447
H20   H     H_    0.358740 0.127142 0.667447 0.221891
H21   H     H_    0.451981 0.219679 0.720854 0.249328
H22   H     H_    0.611405 0.190890 0.613198 0.148839
H23   H     H_    0.585580 0.292006 0.584415 0.250899
C49   C     C_3   0.402722 0.771766 0.442434 -0.354678
C50   C     C_3   0.271201 0.770684 0.481284 -0.857315
H24   H     H_    0.251368 0.719993 0.542988 0.275232
H25   H     H_    0.271554 0.838744 0.496417 0.258041
H26   H     H_    0.190650 0.752991 0.432467 0.234731
H27   H     H_    0.413243 0.815202 0.377281 0.168959
H28   H     H_    0.397710 0.705944 0.423582 0.258811
C51   C     C_3   0.276124 0.307962 0.319753 -0.394658
C52   C     C_3   0.131029 0.256315 0.321453 -0.923893
H29   H     H_    0.097121 0.233675 0.390902 0.264879
H30   H     H_    0.070516 0.301771 0.286450 0.249952
H31   H     H_    0.115642 0.196106 0.287646 0.266880
H32   H     H_    0.282384 0.369770 0.347905 0.262605
H33   H     H_    0.308376 0.327968 0.249971 0.184770
C53   C     C_3   0.792952 0.721299 0.626987 -0.365929
C54   C     C_3   0.796242 0.643107 0.702367 -0.852052
H34   H     H_    0.762001 0.656721 0.764579 0.232450
H35   H     H_    0.736524 0.577833 0.686062 0.279476
H36   H     H_    0.899233 0.636274 0.713166 0.233993
H37   H     H_    0.818269 0.707454 0.562962 0.215969
H38   H     H_    0.875895 0.779427 0.639412 0.171703
H39   H     H_    0.726766 0.837091 0.718527 0.157147
H40   H     H_    0.335890 0.166105 0.268765 0.148255
C55   C     C_3   0.129275 0.299592 0.030988 -0.413346
C56   C     C_3   0.170271 0.211099 0.064684 -0.876025
H41   H     H_    0.216142 0.189317 0.011401 0.258390
H42   H     H_    0.241868 0.220427 0.120609 0.258917
H43   H     H_    0.082207 0.156536 0.088507 0.246953
H44   H     H_    0.079986 0.316159 0.086134 0.207742
H45   H     H_    0.053401 0.290178 0.977594 0.193104
C57   C     C_3   0.686545 0.768316 0.931394 -0.417627
C58   C     C_3   0.616343 0.845447 0.918104 -0.881659
H46   H     H_    0.532295 0.831366 0.870752 0.267235
H47   H     H_    0.578794 0.853468 0.981725 0.259659
H48   H     H_    0.686375 0.910274 0.890694 0.240150
H49   H     H_    0.776637 0.784736 0.973146 0.195660
H50   H     H_    0.722580 0.763626 0.866118 0.198703

loop_
_geom_bond_atom_site_label_1
_geom_bond_atom_site_label_2
_ccdc_geom_bond_type
C25   C31   A    
C30   C32   A    
C26   C32   A    
C34   C37   S    
C55   H44   S    
O6    Zn2   S    
C35   H1    S    
C57   C58   S    
C29   H3    S    
C47   C48   S    
C33   C39   S    
N1    Zn2   S    
C20   C47   S    
C34   C40   S    
C18   C51   S    
C20   N2    A    
C28   C29   A    
C35   C37   S    
C44   H14   S    
C2    O2    A    
C48   H20   S    
C15   C25   A    
C47   H23   S    
C53   H37   S    
C56   H41   S    
O3    Zn2   S    
C42   C46   A    
C55   H45   S    
C33   C35   S    
C51   H32   S    
C58   H47   S    
C55   C56   S    
C19   N1    A    
C7    C43   A    
C9    C10   A    
C57   H49   S    
C43   H13   S    
C21   C27   A    
C38   C40   S    
C22   C28   A    
C27   C30   A    
C49   H28   S    
C23   O7    A    
C44   C46   A    
C50   H25   S    
C16   C26   A    
C45   H12   S    
O8    Zn1   S    
C23   O5    A    
C49   C50   S    
C32   H18   S    
C4    C6    A    
C51   C52   S    
C5    C7    A    
C48   H19   S    
C6    C8    A    
C11   H15   S    
C50   H24   S    
C52   H31   S    
C1    O3    A    
C4    H9    S    
C5    C9    A    
C31   H17   S    
C12   H16   S    
C3    H10   S    
C54   H34   S    
C58   H48   S    
C52   H30   S    
C24   C37   S    
C16   C18   A    
C51   H33   S    
C43   C45   A    
C1    C41   S    
C54   H35   S    
C12   C14   A    
C40   H8    S    
C46   H11   S    
O7    Zn2   S    
O2    Zn2   S    
C49   H27   S    
C19   C49   S    
C27   C28   A    
C24   O6    A    
C17   C53   S    
C50   H26   S    
C15   C17   A    
C21   C25   A    
C18   N2    A    
C3    C41   A    
C8    C14   A    
C19   C21   A    
C17   N1    A    
C36   C39   S    
C8    C44   A    
C20   C22   A    
C3    C5    A    
C6    C10   A    
C16   H40   S    
C33   H5    S    
C23   C38   S    
C34   H6    S    
C33   C38   S    
C56   H43   S    
C15   H39   S    
C36   C38   S    
C35   C40   S    
C37   C39   S    
C14   C57   S    
O5    Zn1   S    
C13   C55   S    
C11   C13   A    
C48   H21   S    
C24   O8    A    
C39   H7    S    
C4    C42   A    
C47   H22   S    
C2    C42   S    
C53   H38   S    
N2    Zn1   S    
C52   H29   S    
C1    O1    A    
C56   H42   S    
C36   H2    S    
C34   C36   S    
C30   H4    S    
C9    C12   A    
C10   C11   A    
C7    C13   A    
C54   H36   S    
O1    Zn1   S    
C29   C31   A    
C53   C54   S    
C22   C26   A    
O4    Zn1   S    
C41   C45   A    
C2    O4    A    
C57   H50   S    
C58   H46   S    
