data_mof_unit_29677.cif
_audit_creation_date              2012-12-10T20:55:10-0500
_audit_creation_method            fapswitch 2.2
_symmetry_space_group_name_H-M    P1
_symmetry_Int_Tables_number       1
_space_group_crystal_system       triclinic
_cell_length_a                    15.709178
_cell_length_b                    15.076775
_cell_length_c                    10.725988
_cell_angle_alpha                 88.534976
_cell_angle_beta                  91.346198
_cell_angle_gamma                 90.72075
_cell_volume                      2538.66942438

loop_
_atom_site_label
_atom_site_type_symbol
_atom_type_description
_atom_site_fract_x
_atom_site_fract_y
_atom_site_fract_z
_atom_type_partial_charge
C1    C     C_R   0.338603 0.499559 0.496026 0.889667
C2    C     C_R   0.576386 0.953748 0.518336 0.479806
C3    C     C_R   0.500262 0.905039 0.499175 -0.388359
C4    C     C_R   0.576364 0.047524 0.518334 0.503590
C5    C     C_R   0.424109 0.046219 0.479954 0.494932
C6    C     C_R   0.500206 0.094944 0.499291 -0.394909
C7    C     C_1   0.500161 0.807132 0.499620 0.321947
C8    C     C_1   0.500096 0.192868 0.499703 0.331180
C9    C     C_R   0.498778 0.501223 0.260120 0.878255
C10   C     C_R   0.500410 0.498604 0.740609 0.890178
C11   C     C_R   0.634822 0.586426 0.133105 -0.235019
C12   C     C_R   0.661571 0.500735 0.498258 0.885491
C13   C     C_R   0.639535 0.583135 0.875308 -0.230335
C14   C     C_R   0.696488 0.637101 0.072125 0.140071
C15   C     C_R   0.701394 0.633081 0.941225 0.137145
C16   C     C_R   0.570188 0.541110 0.937179 0.043976
C17   C     C_R   0.568736 0.542525 0.066956 0.024669
C18   C     C_R   0.498524 0.504407 0.128137 -0.136277
C19   C     C_R   0.503344 0.495421 0.873638 -0.152098
C20   C     C_R   0.427353 0.469434 0.064092 0.119345
C21   C     C_R   0.434889 0.453485 0.937306 0.037697
C22   C     C_R   0.958476 0.587453 0.495868 0.060511
C23   C     C_R   0.951273 0.459604 0.356044 0.055535
C24   C     C_R   0.048059 0.585035 0.495895 0.045412
C25   C     C_R   0.911814 0.520717 0.433329 0.037109
C26   C     C_R   0.087501 0.517202 0.430921 0.035345
C27   C     C_3   0.340334 0.464489 0.125867 -0.399441
C28   C     C_3   0.289013 0.549420 0.097101 -0.415218
C29   C     C_3   0.321124 0.629089 0.170375 -0.745579
C30   C     C_3   0.375586 0.385239 0.875724 -0.380873
C31   C     C_3   0.297178 0.426327 0.810193 -0.368150
C32   C     C_3   0.247233 0.357060 0.735937 -0.843111
C33   C     C_3   0.747596 0.702210 0.149840 -0.471542
C34   C     C_R   0.041086 0.458676 0.353601 0.058361
C35   C     C_3   0.698756 0.789415 0.157685 -0.341626
C36   C     C_3   0.740980 0.851939 0.250479 -0.801315
C37   C     C_3   0.770602 0.682690 0.871132 -0.404313
C38   C     C_3   0.858853 0.641285 0.896617 -0.368402
C39   C     C_3   0.929434 0.711942 0.904059 -0.898288
C40   C     C_3   0.102438 0.650810 0.570588 -0.375427
C41   C     C_3   0.120394 0.614516 0.703545 -0.374722
C42   C     C_3   0.169492 0.681962 0.781734 -0.860186
C43   C     C_3   0.912641 0.660374 0.562631 -0.422706
C44   C     C_3   0.901279 0.742459 0.476956 -0.396126
C45   C     C_1   0.823179 0.511175 0.455706 -0.060567
C46   C     C_3   0.864489 0.819422 0.547133 -0.768557
C47   C     C_3   0.896073 0.397393 0.277108 -0.386797
C48   C     C_3   0.859983 0.447489 0.161639 -0.376918
C49   C     C_3   0.795953 0.390754 0.089002 -0.835246
C50   C     C_3   0.088515 0.395790 0.271400 -0.432839
C51   C     C_3   0.105294 0.306785 0.339491 -0.338080
C52   C     C_3   0.155734 0.245284 0.258824 -0.799412
C53   C     C_1   0.176323 0.505223 0.451105 -0.052891
C54   C     C_1   0.250497 0.499817 0.472906 -0.202009
C55   C     C_1   0.749437 0.504207 0.477072 -0.199501
C56   C     C_R   0.424142 0.952448 0.479889 0.501116
F1    F     F_    0.349456 0.089500 0.461143 -0.620590
F2    F     F_    0.650996 0.092082 0.537181 -0.612779
F3    F     F_    0.349512 0.907866 0.461077 -0.614941
F4    F     F_    0.650988 0.910468 0.537496 -0.646996
H1    H     H_    0.636657 0.587201 0.233663 0.168069
H2    H     H_    0.287396 0.329132 0.663119 0.288271
H3    H     H_    0.225247 0.302332 0.799072 0.262150
H4    H     H_    0.190534 0.388050 0.690052 0.239148
H5    H     H_    0.253790 0.452406 0.879928 0.217188
H6    H     H_    0.316712 0.482004 0.747260 0.219163
H7    H     H_    0.410787 0.344483 0.810447 0.233251
H8    H     H_    0.354639 0.334379 0.945408 0.187907
H9    H     H_    0.736158 0.823152 0.346298 0.293696
H10   H     H_    0.808958 0.863501 0.228009 0.252514
H11   H     H_    0.707739 0.916551 0.246868 0.269707
H12   H     H_    0.645551 0.578886 0.775442 0.151029
H13   H     H_    0.695632 0.822974 0.064282 0.226509
H14   H     H_    0.632474 0.775570 0.187655 0.238029
H15   H     H_    0.758570 0.673381 0.245227 0.198260
H16   H     H_    0.811376 0.715602 0.112340 0.217649
H17   H     H_    0.992406 0.679485 0.910277 0.254667
H18   H     H_    0.927049 0.757274 0.821189 0.269335
H19   H     H_    0.922831 0.752360 0.988136 0.260429
H20   H     H_    0.860472 0.601915 0.985466 0.223226
H21   H     H_    0.872733 0.594564 0.821510 0.212434
H22   H     H_    0.756882 0.682825 0.768984 0.186466
H23   H     H_    0.320655 0.613847 0.271876 0.266264
H24   H     H_    0.770193 0.753433 0.897610 0.222774
H25   H     H_    0.232387 0.696929 0.740334 0.280299
H26   H     H_    0.132834 0.744221 0.787124 0.271848
H27   H     H_    0.179886 0.654412 0.877755 0.238540
H28   H     H_    0.059655 0.597269 0.749672 0.220025
H29   H     H_    0.158371 0.553078 0.700389 0.230064
H30   H     H_    0.163667 0.664848 0.523712 0.221195
H31   H     H_    0.072388 0.716760 0.573371 0.209963
H32   H     H_    0.801710 0.800323 0.585858 0.288368
H33   H     H_    0.908623 0.839122 0.624162 0.249739
H34   H     H_    0.386431 0.648509 0.142334 0.266413
H35   H     H_    0.856007 0.877526 0.482596 0.272950
H36   H     H_    0.963194 0.763944 0.437580 0.229500
H37   H     H_    0.857725 0.725556 0.398030 0.230737
H38   H     H_    0.849356 0.638184 0.595642 0.207611
H39   H     H_    0.947964 0.677906 0.648687 0.218492
H40   H     H_    0.826548 0.329391 0.057792 0.265026
H41   H     H_    0.740924 0.372708 0.148116 0.270109
H42   H     H_    0.772102 0.428896 0.005639 0.251526
H43   H     H_    0.827589 0.508702 0.189776 0.229760
H44   H     H_    0.913097 0.467132 0.099667 0.213747
H45   H     H_    0.278688 0.686308 0.150393 0.240248
H46   H     H_    0.930861 0.338546 0.247199 0.201747
H47   H     H_    0.843366 0.369098 0.333467 0.221470
H48   H     H_    0.119772 0.231654 0.170835 0.249874
H49   H     H_    0.218402 0.275901 0.236272 0.257264
H50   H     H_    0.166872 0.181446 0.310180 0.284641
H51   H     H_    0.142197 0.318098 0.427486 0.241125
H52   H     H_    0.044113 0.273767 0.363947 0.223081
H53   H     H_    0.053905 0.385964 0.181354 0.196515
H54   H     H_    0.150327 0.425946 0.243903 0.204069
H55   H     H_    0.291334 0.567631 0.996392 0.228987
H56   H     H_    0.221317 0.536796 0.120112 0.206023
H57   H     H_    0.302137 0.406793 0.094482 0.169120
H58   H     H_    0.345613 0.453653 0.228306 0.197962
N1    N     N_1   0.500000 0.270550 0.500000 -0.102577
N2    N     N_1   0.500000 0.729450 0.500000 -0.102715
O1    O     O_R   0.378020 0.573650 0.500040 -0.610295
O2    O     O_R   0.621980 0.573650 0.499960 -0.625273
O3    O     O_R   0.378020 0.426320 0.500100 -0.610706
O4    O     O_R   0.621980 0.426320 0.499900 -0.590929
O5    O     O_R   0.500000 0.573680 0.316780 -0.628879
O6    O     O_R   0.500000 0.573680 0.683220 -0.613143
O7    O     O_R   0.500000 0.426350 0.316830 -0.615877
O8    O     O_R   0.500000 0.426350 0.683170 -0.622418
Zn1   Zn    Zn3+2 0.500000 0.598370 0.500000 0.970526
Zn2   Zn    Zn3+2 0.500000 0.401630 0.500000 0.986921

loop_
_geom_bond_atom_site_label_1
_geom_bond_atom_site_label_2
_ccdc_geom_bond_type
C31   H6    S    
C41   H29   S    
C35   H14   S    
C40   C41   S    
C51   H52   S    
C41   C42   S    
C5    C56   A    
C35   C36   S    
C43   H38   S    
C43   C44   S    
C14   C33   S    
C53   C54   T    
C9    O7    A    
C39   H17   S    
C28   C29   S    
C19   C21   A    
C43   H39   S    
C29   H23   S    
C3    C7    S    
C49   H41   S    
C5    C6    A    
C11   C14   A    
C2    F4    S    
C46   H32   S    
C48   H44   S    
N1    Zn2   S    
C44   H37   S    
C15   C37   S    
C28   H56   S    
C33   C35   S    
C26   C34   A    
C11   C17   A    
C46   H35   S    
C47   C48   S    
C44   C46   S    
C16   C17   A    
C22   C25   A    
C37   H24   S    
C42   H26   S    
O2    Zn1   S    
C30   H7    S    
C36   H11   S    
C47   H46   S    
C29   H45   S    
C10   O8    A    
C36   H10   S    
C50   C51   S    
C27   H57   S    
C38   C39   S    
C34   C50   S    
C23   C47   S    
C51   C52   S    
C39   H18   S    
C32   H4    S    
C4    C6    A    
O1    Zn1   S    
C49   H42   S    
C6    C8    S    
O6    Zn1   S    
C48   H43   S    
C9    O5    A    
N2    Zn1   S    
C50   H54   S    
C39   H19   S    
C2    C4    A    
C1    C54   S    
C1    O3    A    
C37   C38   S    
C44   H36   S    
C28   H55   S    
C3    C56   A    
C33   H16   S    
C22   C43   S    
C12   O4    A    
C52   H50   S    
C10   C19   S    
C23   C34   A    
C17   C18   A    
O4    Zn2   S    
C42   H25   S    
C45   C55   T    
C48   C49   S    
C20   C27   S    
C47   H47   S    
C13   C15   A    
O3    Zn2   S    
C29   H34   S    
C22   C24   A    
C37   H22   S    
C33   H15   S    
C26   C53   S    
C25   C45   S    
C36   H9    S    
C27   H58   S    
C31   H5    S    
C41   H28   S    
C35   H13   S    
C51   H51   S    
C7    N2    T    
C31   C32   S    
C32   H3    S    
C24   C26   A    
C11   H1    S    
O8    Zn2   S    
C13   H12   S    
C21   C30   S    
C56   F3    S    
C5    F1    S    
C50   H53   S    
C2    C3    A    
O7    Zn2   S    
C32   H2    S    
C38   H21   S    
C49   H40   S    
C30   C31   S    
C46   H33   S    
C38   H20   S    
C52   H49   S    
C16   C19   A    
C24   C40   S    
C18   C20   A    
C23   C25   A    
C40   H31   S    
C1    O1    A    
C12   C55   S    
O5    Zn1   S    
C9    C18   S    
C12   O2    A    
C20   C21   A    
C52   H48   S    
C13   C16   A    
C4    F2    S    
C27   C28   S    
C14   C15   A    
C42   H27   S    
C40   H30   S    
C10   O6    A    
C30   H8    S    
C8    N1    T    
