data_mof_unit_68446.cif
_audit_creation_date              2012-12-11T14:37:37-0500
_audit_creation_method            fapswitch 2.2
_symmetry_space_group_name_H-M    P1
_symmetry_Int_Tables_number       1
_space_group_crystal_system       triclinic
_cell_length_a                    14.63394
_cell_length_b                    15.79898
_cell_length_c                    7.028185
_cell_angle_alpha                 90.495369
_cell_angle_beta                  79.86906
_cell_angle_gamma                 90.135056
_cell_volume                      1599.53003232

loop_
_atom_site_label
_atom_site_type_symbol
_atom_type_description
_atom_site_fract_x
_atom_site_fract_y
_atom_site_fract_z
_atom_type_partial_charge
O1    O     O_R   0.337080 0.165770 0.524980 -0.526729
O2    O     O_R   0.662920 0.834230 0.475020 -0.531581
O3    O     O_R   0.662920 0.665770 0.475020 -0.542417
O4    O     O_R   0.337080 0.334230 0.524980 -0.540678
O5    O     O_R   0.348340 0.341430 0.191390 -0.548728
O6    O     O_R   0.651660 0.658570 0.808610 -0.543002
O7    O     O_R   0.651660 0.841430 0.808610 -0.519516
O8    O     O_R   0.348340 0.158570 0.191390 -0.538946
O9    O     O_R   0.165780 0.339950 0.082750 -0.527486
O10   O     O_R   0.834220 0.660050 0.917250 -0.531233
O11   O     O_R   0.834220 0.839950 0.917250 -0.526653
O12   O     O_R   0.165780 0.160050 0.082750 -0.529733
C1    C     C_R   0.369706 0.364509 0.355575 0.790540
C2    C     C_R   0.630415 0.635421 0.644337 0.756348
C3    C     C_R   0.630414 0.864518 0.645265 0.794089
C4    C     C_R   0.369906 0.135584 0.354578 0.712227
O13   O     O_3   0.191540 0.250000 0.407620 -0.364835
O14   O     O_3   0.808460 0.750000 0.592380 -0.372422
V1    V     V_3+5 0.262540 0.250000 0.108780 1.603478
V2    V     V_3+5 0.737460 0.750000 0.891220 1.647704
O15   O     O_R   0.154530 0.164290 0.756910 -0.527532
O16   O     O_R   0.845470 0.835710 0.243090 -0.539514
O17   O     O_R   0.845470 0.664290 0.243090 -0.537506
O18   O     O_R   0.154530 0.335710 0.756910 -0.534615
C5    C     C_R   0.132642 0.133354 0.932228 0.771001
C6    C     C_R   0.870499 0.863821 0.066127 0.770266
C7    C     C_R   0.868808 0.634719 0.065946 0.763915
C8    C     C_R   0.130548 0.364929 0.934497 0.760536
V3    V     V_3+5 0.240320 0.250000 0.616280 1.590641
V4    V     V_3+5 0.759680 0.750000 0.383720 1.592669
O19   O     O_3   0.311330 0.250000 0.867310 -0.366672
O20   O     O_3   0.688670 0.750000 0.132690 -0.362620
C9    C     C_3   0.084697 0.528843 0.997723 0.421905
C10   C     C_3   0.913200 0.470753 0.005449 0.422910
C11   C     C_3   0.917557 0.026375 0.015103 0.397743
C12   C     C_3   0.089419 0.967631 0.981222 0.421614
C13   C     C_3   0.020274 0.556171 0.856259 -0.236821
C14   C     C_3   0.977508 0.442917 0.145785 -0.223967
C15   C     C_3   0.986631 0.052609 0.147596 -0.226519
C16   C     C_3   0.019897 0.941233 0.849585 -0.209850
H1    H     H_    0.037484 0.604533 0.743643 0.187071
H2    H     H_    0.957508 0.393782 0.255277 0.179252
H3    H     H_    0.968211 0.101891 0.259370 0.187166
H4    H     H_    0.036941 0.890965 0.740054 0.186565
C17   C     C_3   0.939387 0.563922 0.030327 -0.211090
C18   C     C_3   0.058886 0.435122 0.971468 -0.237845
C19   C     C_3   0.063229 0.061405 0.965719 -0.237530
C20   C     C_3   0.943416 0.932694 0.031410 -0.230033
C21   C     C_3   0.003775 0.537031 0.169522 -0.042544
C22   C     C_3   0.993719 0.461899 0.833024 -0.069680
C23   C     C_3   0.993668 0.035703 0.835395 -0.049472
C24   C     C_3   0.013250 0.958092 0.161297 -0.058984
C25   C     C_2   0.428478 0.679139 0.118453 0.040045
C26   C     C_2   0.299423 0.769564 0.542676 0.143369
C27   C     C_2   0.707760 0.170772 0.779875 0.184889
C28   C     C_2   0.511399 0.220883 0.675471 0.050740
C29   C     C_2   0.413597 0.684148 0.312801 -0.098937
C30   C     C_2   0.379540 0.764490 0.415666 -0.171071
C31   C     C_2   0.650417 0.132269 0.676640 -0.141088
C32   C     C_2   0.548850 0.146715 0.715469 -0.170836
C33   C     C_2   0.230953 0.701798 0.598695 0.867962
O21   O     O_2   0.166393 0.715803 0.730582 -0.540211
O22   O     O_R   0.237876 0.623728 0.502028 -0.629235
H5    H     H_    0.187986 0.582149 0.559278 0.322324
C34   C     C_2   0.402278 0.745431 0.992231 0.883002
O23   O     O_2   0.330771 0.785857 0.040683 -0.480712
O24   O     O_R   0.460693 0.762425 0.818307 -0.680421
H6    H     H_    0.441081 0.815277 0.755973 0.286077
C35   C     C_2   0.562845 0.294873 0.582522 0.714957
O25   O     O_2   0.525211 0.364086 0.598253 -0.551337
O26   O     O_R   0.652836 0.286583 0.477224 -0.650438
H7    H     H_    0.679510 0.342368 0.422592 0.347922
C36   C     C_2   0.682637 0.229159 0.946577 0.897914
O27   O     O_2   0.744672 0.256475 0.025404 -0.469383
O28   O     O_R   0.590408 0.250395 0.019718 -0.686821
H8    H     H_    0.584217 0.291067 0.133535 0.304300
C37   C     C_2   0.434896 0.843474 0.376266 0.791603
O29   O     O_2   0.508926 0.842430 0.264131 -0.536454
O30   O     O_R   0.402502 0.919326 0.468083 -0.641534
H9    H     H_    0.447083 0.968131 0.431813 0.302403
C38   C     C_2   0.439664 0.610849 0.423030 0.813331
O31   O     O_2   0.477978 0.549192 0.337664 -0.556084
O32   O     O_R   0.419468 0.611658 0.624888 -0.653806
H10   H     H_    0.438865 0.557544 0.683259 0.310645
C39   C     C_2   0.488148 0.077997 0.808220 0.798242
O33   O     O_2   0.522342 0.016354 0.872982 -0.551939
O34   O     O_R   0.392032 0.083348 0.823383 -0.632057
H11   H     H_    0.358996 0.033056 0.892522 0.341088
C40   C     C_2   0.688801 0.067739 0.530808 0.874739
O35   O     O_2   0.641195 0.040325 0.417391 -0.548115
O36   O     O_R   0.778313 0.036164 0.526465 -0.629598
H12   H     H_    0.794836 0.989176 0.427580 0.320714
Cl1   Cl    Cl    0.200357 0.564492 0.998531 -0.562224
Cl2   Cl    Cl    0.795424 0.439148 0.018863 -0.563163
Cl3   Cl    Cl    0.800664 0.060059 0.047470 -0.601029
Cl4   Cl    Cl    0.204864 0.928318 0.944885 -0.545465
C41   C     C_2   0.003152 0.586825 0.350915 0.826636
O37   O     O_2   0.940900 0.575455 0.488637 -0.564623
O38   O     O_R   0.065587 0.653605 0.352060 -0.621603
H13   H     H_    0.050005 0.690229 0.472246 0.285431
C42   C     C_2   0.986672 0.412561 0.653887 0.846046
O39   O     O_2   0.051865 0.412093 0.518870 -0.571023
O40   O     O_R   0.907593 0.363597 0.647248 -0.613429
H14   H     H_    0.913863 0.325807 0.528859 0.285112
C43   C     C_2   0.987435 0.085031 0.658697 0.848478
O41   O     O_2   0.051907 0.082581 0.522466 -0.565713
O42   O     O_R   0.912498 0.139287 0.657482 -0.623089
H15   H     H_    0.918988 0.174413 0.536139 0.287323
C44   C     C_2   0.025443 0.909761 0.336350 0.846132
O43   O     O_2   0.959722 0.901633 0.468275 -0.574460
O44   O     O_R   0.110737 0.871642 0.344317 -0.599082
H16   H     H_    0.109475 0.835386 0.462573 0.292670

loop_
_geom_bond_atom_site_label_1
_geom_bond_atom_site_label_2
_ccdc_geom_bond_type
O10   C7    A    
O34   H11   S    
C42   O39   D    
C27   C31   D    
O13   V3    S    
C36   O27   D    
O44   H16   S    
V1    O19   S    
C38   O31   D    
C14   C21   S    
C37   O29   D    
C43   O42   S    
C28   C35   S    
C8    C18   S    
C14   H2    S    
C20   C24   S    
C44   O44   S    
V2    O20   S    
C9    C21   S    
C12   C19   S    
C35   O26   S    
C31   C40   S    
O4    C1    A    
C33   O22   S    
O18   V3    S    
C30   C37   S    
C38   O32   S    
O9    V1    S    
O32   H10   S    
O10   V2    S    
C34   O24   S    
O42   H15   S    
O14   V4    S    
O17   C7    A    
C40   O36   S    
C25   C34   S    
C5    C19   S    
O5    C1    A    
O4    V3    S    
C12   C24   S    
C6    C20   S    
C7    C17   S    
O7    C3    A    
C15   C24   S    
C31   C32   S    
C42   O40   S    
C9    C18   S    
C36   O28   S    
C33   O21   D    
C11   C20   S    
C41   O38   S    
C41   O37   D    
C37   O30   S    
O11   V2    S    
C10   C22   S    
O8    V1    S    
C39   O34   S    
O24   H6    S    
O17   V4    S    
O18   C8    A    
C12   C16   S    
O30   H9    S    
O36   H12   S    
C10   C17   S    
C25   C29   D    
C19   C23   S    
O11   C6    A    
C39   O33   D    
O15   V3    S    
C9    C13   S    
C28   C32   D    
O3    V4    S    
C11   C15   S    
O28   H8    S    
O6    C2    A    
C12   Cl4   S    
O38   H13   S    
C17   C21   S    
C23   C43   S    
O1    V3    S    
O1    C4    A    
O2    C3    A    
O3    C2    A    
C34   O23   D    
C11   C23   S    
C29   C38   S    
C13   C17   S    
C15   C19   S    
C26   C30   D    
C16   C20   S    
O15   C5    A    
O16   V4    S    
C10   C14   S    
C10   Cl2   S    
C9    Cl1   S    
C15   H3    S    
C32   C39   S    
O5    V1    S    
C26   C33   S    
C11   Cl3   S    
C16   C23   S    
O6    V2    S    
C43   O41   D    
C18   C22   S    
O12   C5    A    
O2    V4    S    
O26   H7    S    
V3    O19   S    
C44   O43   D    
V4    O20   S    
C13   C22   S    
C29   C30   S    
C24   C44   S    
O12   V1    S    
O13   V1    S    
O14   V2    S    
C13   H1    S    
C35   O25   D    
C14   C18   S    
C21   C41   S    
O22   H5    S    
C27   C36   S    
C16   H4    S    
C22   C42   S    
O8    C4    A    
O7    V2    S    
O16   C6    A    
O40   H14   S    
C40   O35   D    
O9    C8    A    
