data_mof_unit_37110.cif
_audit_creation_date              2012-12-10T18:35:03-0500
_audit_creation_method            fapswitch 2.2
_symmetry_space_group_name_H-M    P1
_symmetry_Int_Tables_number       1
_space_group_crystal_system       triclinic
_cell_length_a                    15.1094
_cell_length_b                    13.853878
_cell_length_c                    10.782215
_cell_angle_alpha                 90.130643
_cell_angle_beta                  90.143659
_cell_angle_gamma                 90.076586
_cell_volume                      2256.95905136

loop_
_atom_site_label
_atom_site_type_symbol
_atom_type_description
_atom_site_fract_x
_atom_site_fract_y
_atom_site_fract_z
_atom_type_partial_charge
C1    C     C_R   0.329776 0.499753 0.501509 0.820110
C2    C     C_R   0.670161 0.499854 0.499370 0.892072
C3    C     C_R   0.232999 0.499157 0.503075 -0.201864
C4    C     C_R   0.766795 0.499324 0.501913 -0.203120
C5    C     C_R   0.185467 0.421605 0.555894 0.458867
C6    C     C_R   0.815103 0.422636 0.448641 0.474005
C7    C     C_R   0.093441 0.425985 0.560335 -0.348719
C8    C     C_R   0.907206 0.426292 0.449771 -0.356858
C9    C     C_R   0.048152 0.503391 0.506945 -0.015546
C10   C     C_R   0.951504 0.502543 0.508265 -0.025473
C11   C     C_R   0.540680 0.108101 0.595969 -0.288859
C12   C     C_R   0.459770 0.107695 0.403512 -0.292314
C13   C     C_R   0.540143 0.209589 0.594043 0.052883
C14   C     C_R   0.460101 0.209187 0.405721 0.034258
C15   C     C_R   0.500224 0.054713 0.499713 0.134255
C16   C     C_R   0.431747 0.892001 0.442380 -0.278078
C17   C     C_R   0.568511 0.892363 0.557158 -0.281024
C18   C     C_R   0.433309 0.790468 0.442737 0.095410
C19   C     C_R   0.566783 0.790834 0.557070 0.097638
C20   C     C_R   0.500168 0.945379 0.499723 0.125561
C21   C     C_R   0.498667 0.499829 0.262440 0.890798
C22   C     C_R   0.498070 0.500113 0.737362 0.875508
C23   C     C_R   0.353140 0.588996 0.129094 -0.135828
C24   C     C_R   0.351828 0.587007 0.870570 -0.103699
C25   C     C_R   0.283856 0.632170 0.064268 -0.153278
C26   C     C_R   0.282959 0.630772 0.935361 -0.132034
C27   C     C_R   0.424003 0.544768 0.934401 0.024891
C28   C     C_R   0.424449 0.545218 0.065260 0.027153
C29   C     C_R   0.494700 0.499146 0.128601 -0.280356
C30   C     C_R   0.494834 0.500311 0.870956 -0.269606
C31   C     C_R   0.561753 0.450177 0.064153 0.371727
C32   C     C_R   0.564200 0.455150 0.935059 0.376736
C33   C     C_R   0.095043 0.578556 0.449279 0.587035
C34   C     C_R   0.903635 0.576463 0.566875 0.593289
C35   C     C_R   0.187282 0.577235 0.450771 -0.370785
C36   C     C_R   0.811454 0.575741 0.560398 -0.385060
Cu1   Cu    Cu3+1 0.500000 0.596430 0.500000 0.938034
Cu2   Cu    Cu3+1 0.500000 0.403570 0.500000 0.961100
H1    H     H_    0.376400 0.927946 0.398642 0.130314
H2    H     H_    0.623938 0.928583 0.600753 0.130687
H3    H     H_    0.380580 0.751051 0.397212 0.116785
H4    H     H_    0.619498 0.751701 0.602566 0.117704
H5    H     H_    0.349254 0.589295 0.229160 0.125320
H6    H     H_    0.347253 0.585984 0.770509 0.141483
H7    H     H_    0.230252 0.666083 0.114308 0.125191
H8    H     H_    0.228390 0.663159 0.885316 0.134870
H9    H     H_    0.223009 0.636494 0.408517 0.175172
H10   H     H_    0.774878 0.634111 0.603347 0.175519
H11   H     H_    0.056934 0.369243 0.606628 0.166060
H12   H     H_    0.944528 0.370522 0.402716 0.166510
H13   H     H_    0.571700 0.072209 0.673677 0.133782
H14   H     H_    0.428840 0.071480 0.325700 0.132388
H15   H     H_    0.572252 0.249004 0.668262 0.150235
H16   H     H_    0.427975 0.248293 0.331579 0.116500
N1    N     N_R   0.500000 0.258690 0.500000 -0.178365
N2    N     N_R   0.500000 0.741330 0.500000 -0.175083
O1    O     O_R   0.371460 0.581430 0.500010 -0.610102
O2    O     O_R   0.628540 0.581430 0.499990 -0.598133
O3    O     O_R   0.371470 0.418560 0.500010 -0.575134
O4    O     O_R   0.628530 0.418560 0.499990 -0.563181
O5    O     O_R   0.500000 0.581450 0.319650 -0.588040
O6    O     O_R   0.500000 0.581450 0.680350 -0.602879
O7    O     O_R   0.500010 0.418580 0.319650 -0.580995
O8    O     O_R   0.499990 0.418580 0.680350 -0.559806
O9    O     O_3   0.630056 0.406189 0.128676 -0.551262
C37   C     C_3   0.617756 0.305209 0.124467 -0.192998
H17   H     H_    0.630710 0.276191 0.030122 0.174875
H18   H     H_    0.550293 0.283759 0.155447 0.128688
H19   H     H_    0.665891 0.271112 0.188587 0.194974
O10   O     O_3   0.633236 0.412567 0.870876 -0.578859
C38   C     C_3   0.701669 0.481044 0.857322 -0.309358
H20   H     H_    0.728884 0.503471 0.948975 0.191951
H21   H     H_    0.678987 0.545344 0.804357 0.137375
H22   H     H_    0.756281 0.447430 0.803952 0.174540
O11   O     O_3   0.051351 0.655538 0.395718 -0.541647
C39   C     C_3   0.033724 0.632452 0.270654 -0.338072
H23   H     H_    0.986958 0.570623 0.262885 0.169725
H24   H     H_    0.095621 0.616477 0.218889 0.141098
H25   H     H_    0.001995 0.695639 0.225959 0.196203
O12   O     O_3   0.946793 0.651615 0.626006 -0.538134
C40   C     C_3   0.953112 0.629308 0.753212 -0.349685
H26   H     H_    0.991495 0.561773 0.768462 0.160200
H27   H     H_    0.886458 0.623371 0.796376 0.146407
H28   H     H_    0.988986 0.688715 0.800845 0.196459
O13   O     O_3   0.228430 0.346573 0.615366 -0.601065
C41   C     C_3   0.238511 0.267398 0.533127 0.110429
H29   H     H_    0.304144 0.234809 0.552820 0.188715
H30   H     H_    0.239021 0.288131 0.432984 0.111514
C42   C     C_3   0.167461 0.190674 0.556411 -0.384447
H31   H     H_    0.164600 0.173990 0.657109 0.237314
H32   H     H_    0.101846 0.218196 0.526498 0.204985
C43   C     C_3   0.187335 0.098078 0.484697 -0.907706
H33   H     H_    0.189883 0.112943 0.383564 0.250919
H34   H     H_    0.134411 0.044171 0.502274 0.267402
H35   H     H_    0.251662 0.067176 0.515020 0.258944
O14   O     O_3   0.773076 0.349706 0.383167 -0.588197
C44   C     C_3   0.761523 0.267713 0.459848 0.091037
H36   H     H_    0.693885 0.239431 0.441899 0.183505
H37   H     H_    0.765248 0.283589 0.561476 0.120624
C45   C     C_3   0.827949 0.188800 0.425651 -0.385098
H38   H     H_    0.825663 0.175711 0.323936 0.232064
H39   H     H_    0.895865 0.212278 0.451267 0.208655
C46   C     C_3   0.807135 0.094696 0.493063 -0.905753
H40   H     H_    0.809740 0.105888 0.595065 0.253698
H41   H     H_    0.856676 0.039060 0.467352 0.266916
H42   H     H_    0.740275 0.068040 0.466652 0.257433

loop_
_geom_bond_atom_site_label_1
_geom_bond_atom_site_label_2
_ccdc_geom_bond_type
C19   N2    A    
C37   H18   S    
C4    C36   A    
C8    H12   S    
C39   H25   S    
C35   H9    S    
C44   C45   S    
Cu1   O6    S    
O13   C41   S    
C28   C29   A    
C39   H24   S    
C1    O3    A    
C33   C35   A    
C2    O4    A    
C37   H19   S    
C17   C20   A    
C23   H5    S    
C7    C9    A    
C45   H38   S    
C44   H37   S    
Cu1   N2    S    
C11   C15   A    
C33   O11   S    
Cu2   N1    S    
C24   C27   A    
C36   H10   S    
O10   C38   S    
C42   H32   S    
C9    C10   S    
Cu2   O8    S    
Cu1   O2    S    
C19   H4    S    
C18   N2    A    
C5    O13   S    
C23   C25   A    
C14   N1    A    
C27   C30   A    
C9    C33   A    
C43   H34   S    
C12   H14   S    
C44   H36   S    
C13   H15   S    
C15   C20   S    
C39   H23   S    
C7    H11   S    
C10   C34   A    
C18   H3    S    
C5    C7    A    
C41   H29   S    
C32   O10   S    
C25   C26   A    
C21   C29   S    
C43   H35   S    
C40   H26   S    
C1    C3    S    
C17   H2    S    
C2    C4    S    
O11   C39   S    
Cu1   Cu2   S    
C1    O1    A    
C22   O6    A    
Cu1   O5    S    
C31   C32   A    
C12   C15   A    
C3    C35   A    
C16   C20   A    
O14   C44   S    
C45   H39   S    
C46   H41   S    
C16   C18   A    
C23   C28   A    
C42   C43   S    
Cu2   O4    S    
C4    C6    A    
C14   H16   S    
C12   C14   A    
C6    O14   S    
C24   H6    S    
C25   H7    S    
C46   H40   S    
C40   H28   S    
C38   H21   S    
Cu2   O7    S    
C31   O9    S    
C22   C30   S    
C21   O5    A    
C24   C26   A    
O12   C40   S    
C3    C5    A    
C41   C42   S    
C40   H27   S    
C38   H22   S    
C6    C8    A    
C2    O2    A    
C34   O12   S    
C38   H20   S    
C29   C31   A    
C30   C32   A    
C11   C13   A    
C43   H33   S    
C17   C19   A    
C34   C36   A    
C37   H17   S    
C46   H42   S    
C41   H30   S    
C45   C46   S    
C21   O7    A    
C11   H13   S    
C26   H8    S    
C16   H1    S    
C22   O8    A    
Cu2   O3    S    
C8    C10   A    
O9    C37   S    
C27   C28   A    
C42   H31   S    
Cu1   O1    S    
C13   N1    A    
