data_mof_unit_52152.cif
_audit_creation_date              2013-03-05T16:03:53-0500
_audit_creation_method            fapswitch 2.2
_symmetry_space_group_name_H-M    P1
_symmetry_Int_Tables_number       1
_space_group_crystal_system       triclinic
_cell_length_a                    11.080255
_cell_length_b                    10.821896
_cell_length_c                    9.548504
_cell_angle_alpha                 90.378157
_cell_angle_beta                  103.842551
_cell_angle_gamma                 90.603455
_cell_volume                      1111.59128544

loop_
_atom_site_label
_atom_site_type_symbol
_atom_site_description
_atom_site_fract_x
_atom_site_fract_y
_atom_site_fract_z
_atom_type_partial_charge
O1    O     O_R   0.499990 0.319660 0.618740 -0.591286
O2    O     O_R   0.500010 0.680340 0.381260 -0.591285
O3    O     O_R   0.499990 0.319630 0.381170 -0.550378
O4    O     O_R   0.500010 0.680370 0.618830 -0.550382
C1    C     C_R   0.499918 0.262177 0.499667 0.807339
C2    C     C_R   0.500082 0.737823 0.500333 0.807337
O5    O     O_R   0.320690 0.500020 0.575130 -0.613461
O6    O     O_R   0.679310 0.499980 0.424870 -0.613461
O7    O     O_R   0.320680 0.499990 0.337560 -0.502642
O8    O     O_R   0.679320 0.500010 0.662440 -0.502641
C3    C     C_R   0.262302 0.500869 0.440199 0.771137
C4    C     C_R   0.737698 0.499131 0.559801 0.771137
Cu1   Cu    Cu3+1 0.500000 0.500020 0.640660 1.043297
Cu2   Cu    Cu3+1 0.500000 0.499980 0.359340 1.043297
C5    C     C_R   0.416074 0.428990 0.049319 0.443312
C6    C     C_R   0.583925 0.571011 0.950681 0.443316
C7    C     C_R   0.416558 0.429515 0.901052 -0.119725
C8    C     C_R   0.583442 0.570486 0.098948 -0.119722
H1    H     H_    0.880423 0.536745 0.384012 0.206723
H2    H     H_    0.119577 0.463256 0.615989 0.206724
C9    C     C_2   0.126091 0.505391 0.403451 0.152393
C10   C     C_2   0.873909 0.494609 0.596549 0.152394
C11   C     C_2   0.066703 0.489571 0.509763 -0.209974
C12   C     C_2   0.933297 0.510429 0.490237 -0.209975
H3    H     H_    0.350060 0.372745 0.825467 0.171328
H4    H     H_    0.649939 0.627256 0.174532 0.171328
C13   C     C_R   0.526813 0.063420 0.383649 -0.101642
C14   C     C_R   0.473187 0.936580 0.616351 -0.101642
H5    H     H_    0.549039 0.111242 0.293567 0.187381
H6    H     H_    0.450961 0.888758 0.706434 0.187382
C15   C     C_R   0.526744 0.935556 0.383933 -0.152819
C16   C     C_R   0.473256 0.064444 0.616067 -0.152819
H7    H     H_    0.548489 0.886914 0.293684 0.169421
H8    H     H_    0.451511 0.113086 0.706316 0.169420
C17   C     C_R   0.500105 0.871709 0.500404 -0.031757
C18   C     C_R   0.499895 0.128290 0.499596 -0.031756
N1    N     N_R   0.500030 0.500030 0.852080 -0.245469
N2    N     N_R   0.499970 0.499970 0.147920 -0.245469
N3    N     N_R   0.326608 0.352887 0.094075 0.136071
O9    O     O_R   0.351690 0.237131 0.121044 -0.368739
O10   O     O_R   0.210946 0.386347 0.062117 -0.242197
N4    N     N_R   0.673387 0.647118 0.905924 0.136069
O11   O     O_R   0.648306 0.762876 0.878972 -0.368744
O12   O     O_R   0.789047 0.613656 0.937863 -0.242198
N5    N     N_R   0.939736 0.469757 0.742675 0.162299
O13   O     O_R   0.898206 0.385339 0.816160 -0.258283
O14   O     O_R   0.028943 0.543588 0.809020 -0.262326
N6    N     N_R   0.060264 0.530242 0.257325 0.162298
O15   O     O_R   0.101794 0.614659 0.183838 -0.258283
O16   O     O_R   0.971057 0.456410 0.190981 -0.262330

loop_
_geom_bond_atom_site_label_1
_geom_bond_atom_site_label_2
_geom_bond_distance
_ccdc_geom_bond_type
O7    Cu2   1.947652 S    
C15   H7    1.083405 S    
C5    N2    1.377388 A    
C4    C10   1.466875 S    
C13   C18   1.399887 A    
Cu2   N2    2.018664 S    
Cu1   N1    2.018664 S    
C8    H4    1.082295 S    
H2    C11   1.084481 S    
O5    Cu1   1.934950 S    
C6    N1    1.377387 A    
C11   C12   1.465062 S    
C9    N6    1.439881 S    
C7    H3    1.082296 S    
N6    O16   1.301453 A    
H1    C12   1.084482 S    
C8    N2    1.361327 A    
N3    O10   1.300283 A    
C6    C8    1.417069 A    
C7    N1    1.361327 A    
Cu1   Cu2   2.686182 S    
O5    C3    1.296150 A    
O7    C3    1.297058 A    
C5    N3    1.426093 S    
O2    C2    1.292247 A    
O3    Cu2   1.964198 S    
N4    O12   1.300281 A    
O1    C1    1.292247 A    
C16   C18   1.401525 A    
C10   C12   1.346238 D    
C14   H6    1.083003 S    
N6    O15   1.301077 A    
O8    C4    1.297058 A    
N5    O14   1.301453 A    
C9    C11   1.346240 D    
O2    Cu2   1.961648 S    
C15   C17   1.401525 A    
C13   H5    1.083003 S    
N4    O11   1.300057 A    
C13   C15   1.383740 A    
N3    O9    1.300060 A    
C1    C18   1.448901 S    
C6    N4    1.426091 S    
C14   C16   1.383740 A    
C10   N5    1.439881 S    
O1    Cu1   1.961648 S    
C2    C17   1.448901 S    
O4    C2    1.294795 A    
O4    Cu1   1.964197 S    
C5    C7    1.417069 A    
O6    Cu2   1.934949 S    
N5    O13   1.301076 A    
C3    C9    1.466875 S    
O6    C4    1.296149 A    
C14   C17   1.399886 A    
O3    C1    1.294795 A    
O8    Cu1   1.947650 S    
C16   H8    1.083405 S    
