data_mof_unit_19154.cif
_audit_creation_date              2012-10-26T19:13:10-0400
_audit_creation_method            fapswitch 2.2
_symmetry_space_group_name_H-M    P1
_symmetry_Int_Tables_number       1
_space_group_crystal_system       triclinic
_cell_length_a                    13.446373
_cell_length_b                    13.802759
_cell_length_c                    15.108784
_cell_angle_alpha                 90.442527
_cell_angle_beta                  90.417464
_cell_angle_gamma                 72.227483
_cell_volume                      2670.20498185

loop_
_atom_site_label
_atom_site_type_symbol
_atom_type_description
_atom_site_fract_x
_atom_site_fract_y
_atom_site_fract_z
_atom_type_partial_charge
C1    C     C_R   0.501965 0.499783 0.670366 0.556531
C2    C     C_R   0.816680 0.413486 0.483846 -0.025714
C3    C     C_R   0.549736 0.402767 0.903964 0.271409
C4    C     C_R   0.700521 0.445614 0.491407 0.562737
C5    C     C_R   0.541373 0.405389 0.811799 -0.085648
C6    C     C_R   0.509195 0.498478 0.767019 -0.021401
C7    C     C_R   0.486822 0.589858 0.814875 -0.120273
C8    C     C_R   0.492688 0.588295 0.906702 -0.145509
C9    C     C_R   0.522034 0.495516 0.951826 0.016188
C10   C     C_R   0.575044 0.543463 0.099502 -0.086725
C11   C     C_R   0.567079 0.544671 0.191242 -0.143991
C12   C     C_R   0.973492 0.465565 0.511384 0.016979
C13   C     C_R   0.498742 0.500243 0.232845 0.016984
C14   C     C_R   0.434436 0.457543 0.180732 0.204033
C15   C     C_R   0.443032 0.457603 0.088830 -0.046140
C16   C     C_R   0.497523 0.500404 0.329666 0.584665
C17   C     C_R   0.514382 0.498114 0.048345 0.029738
C18   C     C_R   0.451242 0.907463 0.569229 -0.086884
C19   C     C_R   0.452106 0.805153 0.567061 0.070235
C20   C     C_R   0.547326 0.777181 0.433514 0.059998
C21   C     C_R   0.547661 0.879124 0.432999 -0.077933
C22   C     C_R   0.498815 0.945954 0.501279 0.057320
C23   C     C_R   0.869444 0.488355 0.479380 -0.030769
C24   C     C_R   0.567252 0.086989 0.554074 -0.167043
C25   C     C_R   0.567042 0.189002 0.553276 0.081579
C26   C     C_R   0.427914 0.231002 0.450395 0.122917
C27   C     C_R   0.423837 0.129927 0.449558 0.263116
C28   C     C_R   0.299601 0.554468 0.500054 0.588638
C29   C     C_R   0.496453 0.055450 0.501020 -0.009998
C30   C     C_R   0.018802 0.718965 0.481556 0.248463
C31   C     C_R   0.185295 0.587490 0.498525 -0.030047
C32   C     C_R   0.878085 0.310829 0.494717 0.154736
C33   C     C_R   0.977249 0.290191 0.532117 -0.054043
C34   C     C_R   0.025349 0.540617 0.501672 0.023323
C35   C     C_R   0.020422 0.368078 0.550183 0.215513
C36   C     C_R   0.968311 0.642541 0.479937 0.044734
C37   C     C_R   0.866106 0.662544 0.448622 -0.076357
C38   C     C_R   0.821329 0.584737 0.441813 -0.101674
C39   C     C_R   0.133936 0.513985 0.501560 -0.053632
C40   C     C_R   0.127338 0.690331 0.492320 -0.098390
Cu1   Cu    Cu3+1 0.500000 0.403570 0.500010 1.082942
Cu2   Cu    Cu3+1 0.500000 0.596430 0.499990 0.980105
H1    H     H_    0.167095 0.747728 0.491585 0.182303
H2    H     H_    0.585492 0.905742 0.379463 0.149811
H3    H     H_    0.622294 0.032940 0.596195 0.153749
H4    H     H_    0.619808 0.212857 0.596294 0.181517
H5    H     H_    0.371628 0.288640 0.412754 0.226705
H6    H     H_    0.179354 0.434906 0.499159 0.211851
H7    H     H_    0.019210 0.212992 0.551475 0.223291
H8    H     H_    0.749476 0.600702 0.404493 0.130062
H9    H     H_    0.462542 0.662558 0.781488 0.144449
H10   H     H_    0.433000 0.249127 0.190403 0.373916
H11   H     H_    0.822892 0.735929 0.422024 0.177047
H12   H     H_    0.561070 0.334558 0.774829 0.166697
H13   H     H_    0.325244 0.005176 0.271871 0.383712
H14   H     H_    0.797560 0.948142 0.507066 0.389656
H15   H     H_    0.965819 0.151539 0.365914 0.360783
H16   H     H_    0.287167 0.273594 0.635705 0.370907
H17   H     H_    0.670481 0.227957 0.081565 0.385591
H18   H     H_    0.471352 0.659713 0.942898 0.142998
H19   H     H_    0.629382 0.576483 0.068436 0.147656
H20   H     H_    0.616182 0.578436 0.230048 0.125549
H21   H     H_    0.394109 0.425676 0.048074 0.187416
H22   H     H_    0.412483 0.956595 0.622969 0.137807
H23   H     H_    0.413799 0.777137 0.619253 0.129165
H24   H     H_    0.584739 0.727074 0.380125 0.111509
N1    N     N_R   0.500000 0.741310 0.499980 -0.225331
N2    N     N_R   0.500060 0.258650 0.499980 -0.268360
O1    O     O_R   0.499990 0.418570 0.628550 -0.516141
O2    O     O_2   0.257130 0.407769 0.159485 -0.228534
O3    O     O_3   0.405094 0.280084 0.247976 -0.476290
O4    O     O_2   0.270431 0.043848 0.442753 -0.247379
O5    O     O_2   0.247986 0.195190 0.351534 -0.214497
O6    O     O_3   0.382393 0.025428 0.300572 -0.509373
O7    O     O_2   0.015678 0.913955 0.501139 -0.181415
O8    O     O_2   0.924007 0.871310 0.372894 -0.246530
O9    O     O_3   0.838799 0.879725 0.527946 -0.524662
O10   O     O_2   0.803783 0.159233 0.538152 -0.254494
O11   O     O_2   0.754380 0.233563 0.390839 -0.250635
O12   O     O_R   0.499990 0.581440 0.628540 -0.512078
O13   O     O_3   0.943687 0.116920 0.415828 -0.406061
O14   O     O_2   0.125960 0.438232 0.676275 -0.268789
O15   O     O_2   0.094120 0.275780 0.702864 -0.215724
O16   O     O_3   0.235014 0.277948 0.588059 -0.536291
O17   O     O_2   0.505368 0.246746 0.979524 -0.279222
O18   O     O_2   0.667142 0.206840 0.894359 -0.233054
O19   O     O_3   0.663731 0.291551 0.048811 -0.496545
O20   O     O_R   0.650980 0.378820 0.499990 -0.438688
O21   O     O_R   0.650980 0.541690 0.499970 -0.519809
O22   O     O_R   0.500010 0.418560 0.371460 -0.434613
O23   O     O_R   0.500010 0.581430 0.371450 -0.527941
O24   O     O_R   0.349020 0.458310 0.500030 -0.490369
O25   O     O_R   0.349020 0.621180 0.500010 -0.501096
O26   O     O_2   0.294971 0.457317 0.308338 -0.272377
S1    S     S_3+6 0.342876 0.402738 0.225374 0.052926
S2    S     S_3+6 0.325902 0.099987 0.386183 0.060900
S3    S     S_3+6 0.949938 0.849947 0.469136 0.061902
S4    S     S_3+6 0.839747 0.204895 0.459442 0.061480
S5    S     S_3+6 0.119395 0.341767 0.633250 0.024273
S6    S     S_3+6 0.596687 0.282707 0.956223 0.029963

loop_
_geom_bond_atom_site_label_1
_geom_bond_atom_site_label_2
_ccdc_geom_bond_type
C16   O22   A    
C22   C29   S    
C27   C29   A    
Cu2   O25   S    
Cu1   Cu2   S    
C20   N1    A    
C11   H20   S    
C7    C8    A    
Cu2   O12   S    
C12   C23   A    
C26   C27   A    
C24   H3    S    
C20   H24   S    
C36   C37   A    
O19   S6    S    
C5    C6    A    
O3    S1    S    
O13   S4    S    
C10   C17   A    
C33   H7    S    
O7    S3    D    
C31   C40   A    
C2    C32   A    
Cu2   O23   S    
O14   S5    D    
C24   C29   A    
O11   S4    D    
H13   O6    S    
C3    S6    S    
C40   H1    S    
C31   C39   A    
C8    C9    A    
O10   S4    D    
C19   N1    A    
O18   S6    D    
C37   H11   S    
Cu1   O22   S    
O15   S5    D    
C21   C22   A    
C27   S2    S    
C25   N2    A    
C35   S5    S    
Cu1   N2    S    
C34   C39   A    
O6    S2    S    
C5    H12   S    
C24   C25   A    
C18   C19   A    
O8    S3    D    
C1    O1    A    
H14   O9    S    
C1    C6    S    
C28   O25   A    
C2    C4    S    
C37   C38   A    
C3    C9    A    
H16   O16   S    
C21   H2    S    
C30   S3    S    
C30   C40   A    
C28   O24   A    
C12   C35   A    
O9    S3    S    
C26   H5    S    
C38   H8    S    
C9    C17   S    
Cu2   N1    S    
H15   O13   S    
C10   H19   S    
C12   C34   A    
C14   S1    S    
Cu1   O1    S    
C4    O21   A    
C15   C17   A    
Cu1   O20   S    
C18   C22   A    
O16   S5    S    
C28   C31   S    
C3    C5    A    
C6    C7    A    
C4    O20   A    
C23   C38   A    
C30   C36   A    
Cu2   O21   S    
C26   N2    A    
C32   C33   A    
O2    S1    D    
C7    H9    S    
O17   S6    D    
C8    H18   S    
C11   C13   A    
C18   H22   S    
C33   C35   A    
C32   S4    S    
C19   H23   S    
C34   C36   A    
O26   S1    D    
H17   O19   S    
C10   C11   A    
O4    S2    D    
Cu1   O24   S    
C20   C21   A    
C16   O23   A    
C13   C16   S    
C2    C23   A    
H10   O3    S    
C1    O12   A    
C15   H21   S    
C14   C15   A    
O5    S2    D    
C13   C14   A    
C25   H4    S    
C39   H6    S    
