data_mof_unit_57593.cif
_audit_creation_date              2013-03-05T15:50:14-0500
_audit_creation_method            fapswitch 2.2
_symmetry_space_group_name_H-M    P1
_symmetry_Int_Tables_number       1
_space_group_crystal_system       triclinic
_cell_length_a                    14.782485
_cell_length_b                    15.78642
_cell_length_c                    9.619486
_cell_angle_alpha                 91.004926
_cell_angle_beta                  88.972839
_cell_angle_gamma                 90.461558
_cell_volume                      2244.05423771

loop_
_atom_site_label
_atom_site_type_symbol
_atom_site_description
_atom_site_fract_x
_atom_site_fract_y
_atom_site_fract_z
_atom_type_partial_charge
O1    O     O_R   0.409820 0.909830 0.618810 -0.597369
O2    O     O_R   0.409820 0.090170 0.618810 -0.583957
O3    O     O_R   0.909820 0.409830 0.618810 -0.597304
O4    O     O_R   0.909820 0.590170 0.618810 -0.583979
O5    O     O_R   0.409840 0.909830 0.381240 -0.574379
O6    O     O_R   0.409840 0.090170 0.381240 -0.579047
O7    O     O_R   0.909840 0.409830 0.381240 -0.574478
O8    O     O_R   0.909840 0.590170 0.381240 -0.579093
C1    C     C_R   0.380514 0.882374 0.499830 0.778617
C2    C     C_R   0.377113 0.114462 0.502076 0.777661
C3    C     C_R   0.880594 0.382288 0.499817 0.778669
C4    C     C_R   0.877104 0.614463 0.502099 0.777911
Cu1   Cu    Cu3+1 0.499990 0.000000 0.640660 0.946889
Cu2   Cu    Cu3+1 0.999990 0.500000 0.640660 0.947179
Cu3   Cu    Cu3+1 0.500010 0.000000 0.359340 0.974476
Cu4   Cu    Cu3+1 0.000010 0.500000 0.359340 0.973851
O9    O     O_R   0.590170 0.090170 0.618760 -0.588892
O10   O     O_R   0.590170 0.909830 0.618760 -0.601098
O11   O     O_R   0.090170 0.590170 0.618760 -0.588612
O12   O     O_R   0.090170 0.409830 0.618760 -0.600646
O13   O     O_R   0.590190 0.090180 0.381190 -0.605533
O14   O     O_R   0.590190 0.909820 0.381190 -0.555149
O15   O     O_R   0.090190 0.590180 0.381190 -0.605425
O16   O     O_R   0.090190 0.409820 0.381190 -0.556819
C5    C     C_R   0.619913 0.117391 0.499930 0.873806
C6    C     C_R   0.615488 0.878298 0.498277 0.857209
C7    C     C_R   0.119939 0.617379 0.499924 0.874594
C8    C     C_R   0.115549 0.378347 0.498295 0.857697
C9    C     C_R   0.217392 0.108043 0.694576 -0.175495
C10   C     C_R   0.189172 0.921724 0.501696 -0.192411
C11   C     C_R   0.718013 0.608711 0.696142 -0.175675
C12   C     C_R   0.689264 0.421718 0.505178 -0.192225
H1    H     H_    0.264362 0.056617 0.702292 0.145013
H2    H     H_    0.236520 0.974012 0.493928 0.115790
H3    H     H_    0.764969 0.557308 0.704009 0.145379
H4    H     H_    0.736594 0.474007 0.497263 0.115705
C13   C     C_R   0.140431 0.104501 0.779983 -0.133429
C14   C     C_R   0.097062 0.940079 0.508070 -0.101099
C15   C     C_R   0.641361 0.605467 0.782232 -0.134046
C16   C     C_R   0.597192 0.440102 0.513221 -0.100848
C17   C     C_R   0.574830 0.666511 0.772576 -0.100471
C18   C     C_R   0.533749 0.374657 0.520220 -0.081671
C19   C     C_R   0.073993 0.165659 0.770469 -0.101445
C20   C     C_R   0.033615 0.874631 0.514950 -0.082155
H5    H     H_    0.514168 0.662439 0.836943 0.142627
H6    H     H_    0.462272 0.389023 0.526569 0.193986
H7    H     H_    0.013130 0.161392 0.834343 0.142542
H8    H     H_    0.962107 0.888974 0.520020 0.194275
C21   C     C_R   0.585156 0.731907 0.678194 -0.134293
C22   C     C_R   0.562100 0.290561 0.517520 -0.160623
C23   C     C_R   0.084696 0.231450 0.676890 -0.135076
C24   C     C_R   0.062013 0.790555 0.513841 -0.160097
H9    H     H_    0.529157 0.774889 0.670338 0.151696
H10   H     H_    0.510540 0.241798 0.521888 0.132349
H11   H     H_    0.028821 0.274587 0.669134 0.151559
H12   H     H_    0.010457 0.741790 0.518123 0.132002
C25   C     C_R   0.663863 0.738567 0.592653 0.053066
C26   C     C_R   0.655197 0.270415 0.508350 0.050587
C27   C     C_R   0.163658 0.238348 0.591990 0.052925
C28   C     C_R   0.155159 0.770424 0.506436 0.050693
C29   C     C_R   0.230379 0.174416 0.599040 0.108279
C30   C     C_R   0.219266 0.837068 0.502785 0.096434
C31   C     C_R   0.730654 0.674712 0.599803 0.108637
C32   C     C_R   0.719330 0.337034 0.504641 0.096709
C33   C     C_R   0.305776 0.177236 0.505884 -0.174688
C34   C     C_R   0.311878 0.817176 0.498619 -0.135258
C35   C     C_R   0.805736 0.677226 0.505979 -0.174537
C36   C     C_R   0.811924 0.317100 0.498571 -0.135485
C37   C     C_R   0.312307 0.239390 0.406041 -0.262977
C38   C     C_R   0.340981 0.733705 0.490095 -0.263274
C39   C     C_R   0.811852 0.738997 0.405446 -0.264093
C40   C     C_R   0.840909 0.233627 0.488002 -0.263747
C41   C     C_R   0.747277 0.800870 0.396966 0.382285
C42   C     C_R   0.779016 0.166838 0.487002 0.301470
C43   C     C_R   0.247859 0.301392 0.397783 0.383068
C44   C     C_R   0.279187 0.666834 0.488995 0.300434
C45   C     C_R   0.675404 0.804650 0.495063 -0.227549
C46   C     C_R   0.685702 0.185539 0.500319 -0.212103
C47   C     C_R   0.175578 0.304788 0.495151 -0.228140
C48   C     C_R   0.185750 0.685529 0.500278 -0.212348
H13   H     H_    0.358739 0.988799 0.132427 0.139738
H14   H     H_    0.858742 0.488766 0.132428 0.139811
C49   C     C_R   0.665316 0.014754 0.139126 -0.037405
C50   C     C_R   0.165304 0.514714 0.139131 -0.038199
H15   H     H_    0.673197 0.006770 0.247646 0.229621
H16   H     H_    0.173161 0.506765 0.247652 0.229921
C51   C     C_R   0.745725 0.027286 0.064970 -0.112125
C52   C     C_R   0.245720 0.527255 0.064981 -0.112286
H17   H     H_    0.808822 0.035667 0.119059 0.212486
H18   H     H_    0.308820 0.535635 0.119056 0.211304
C53   C     C_R   0.746088 0.024068 0.921696 -0.206496
C54   C     C_R   0.246078 0.524051 0.921708 -0.206191
H19   H     H_    0.809363 0.029645 0.863921 0.176758
H20   H     H_    0.309349 0.529628 0.863922 0.176955
C55   C     C_R   0.665685 0.010798 0.852131 -0.107654
C56   C     C_R   0.165668 0.510793 0.852163 -0.107749
H21   H     H_    0.673462 0.003528 0.742978 0.236246
H22   H     H_    0.173404 0.503513 0.743042 0.236758
C57   C     C_R   0.581353 0.006103 0.923252 0.195936
C58   C     C_R   0.081346 0.506100 0.923266 0.195835
C59   C     C_R   0.581240 0.007006 0.072507 0.186234
C60   C     C_R   0.081236 0.506989 0.072512 0.185062
N1    N     N_R   0.501200 1.000000 0.147910 -0.204474
N2    N     N_R   0.001200 0.500000 0.147910 -0.204678
C61   C     C_R   0.422409 0.993825 0.075851 -0.029663
C62   C     C_R   0.922410 0.493807 0.075852 -0.029717
H23   H     H_    0.358818 0.988871 0.874831 0.126590
H24   H     H_    0.858827 0.488778 0.874846 0.126301
C63   C     C_R   0.422442 0.993991 0.928093 -0.042478
C64   C     C_R   0.922445 0.493957 0.928096 -0.042438
N3    N     N_R   0.501270 0.000000 0.852040 -0.203769
N4    N     N_R   0.001270 0.500000 0.852040 -0.203721
H25   H     H_    0.368412 0.239758 0.331697 0.194945
H26   H     H_    0.412915 0.720824 0.484331 0.170563
H27   H     H_    0.867627 0.739041 0.330513 0.195680
H28   H     H_    0.912790 0.220657 0.480740 0.170549
H29   H     H_    0.131341 0.052839 0.851573 0.145147
H30   H     H_    0.074878 0.005262 0.507340 0.180639
H31   H     H_    0.632553 0.554084 0.854429 0.145074
H32   H     H_    0.575032 0.505306 0.513641 0.181187
N5    N     N_R   0.754463 0.856723 0.282566 0.114909
O17   O     O_R   0.707094 0.838576 0.173090 -0.365547
O18   O     O_R   0.828167 0.901531 0.267647 -0.351661
N6    N     N_R   0.812587 0.081524 0.470031 0.107777
O19   O     O_R   0.891269 0.068339 0.410968 -0.370019
O20   O     O_R   0.769286 0.017303 0.522553 -0.427467
N7    N     N_R   0.255871 0.358084 0.284686 0.113840
O21   O     O_R   0.211562 0.339369 0.172479 -0.366459
O22   O     O_R   0.328531 0.404713 0.274336 -0.349097
N8    N     N_R   0.313065 0.581501 0.473881 0.109500
O23   O     O_R   0.392920 0.568301 0.418821 -0.368784
O24   O     O_R   0.268547 0.517201 0.523718 -0.426319

loop_
_geom_bond_atom_site_label_1
_geom_bond_atom_site_label_2
_geom_bond_distance
_ccdc_geom_bond_type
C49   C51   1.389838 A    
C51   C53   1.378189 A    
C50   C60   1.411855 A    
C42   N6    1.444621 S    
O10   C6    1.303197 A    
N2    C62   1.367953 A    
O14   C6    1.301469 A    
C15   C17   1.387876 A    
C38   H26   1.084503 S    
Cu2   N4    2.033795 S    
C37   H25   1.085417 S    
O5    C1    1.293735 A    
C22   H10   1.079733 S    
Cu1   O10   1.964109 S    
C32   C36   1.406912 A    
C50   H16   1.062155 S    
C63   N3    1.368278 A    
C15   H31   1.082614 S    
C9    H1    1.076892 S    
C54   C56   1.387029 A    
C21   C25   1.417243 A    
C10   C14   1.394447 A    
C28   C30   1.410733 A    
C18   H6    1.082882 S    
C17   C21   1.392398 A    
O2    Cu1   1.974399 S    
C8    C47   1.466699 S    
C1    C34   1.439469 S    
O13   C5    1.296138 A    
C24   C28   1.415885 A    
O6    Cu3   1.964007 S    
C44   N8    1.444994 S    
Cu4   N2    2.033610 S    
Cu3   O14   1.974616 S    
C52   C54   1.378167 A    
H14   C62   1.081795 S    
H24   C64   1.080772 S    
C56   H22   1.058210 S    
C44   C48   1.416594 A    
O15   C7    1.296168 A    
O4    C4    1.295753 A    
O11   C7    1.296559 A    
C35   C39   1.386655 A    
O8    C4    1.303871 A    
C20   C24   1.395096 A    
O8    Cu4   1.964007 S    
C16   C18   1.391418 A    
C59   N1    1.381388 A    
H23   C63   1.080847 S    
C58   C60   1.435461 A    
C25   C31   1.420079 A    
C9    C29   1.415468 A    
C26   C32   1.410718 A    
C4    C35   1.452665 S    
C31   C35   1.418681 A    
C27   C29   1.420138 A    
C6    C45   1.466807 S    
O5    Cu3   1.953772 S    
C30   C34   1.406774 A    
C5    C46   1.444419 S    
C22   C26   1.415844 A    
C11   C31   1.415582 A    
O1    C1    1.297242 A    
C12   C32   1.412089 A    
C40   C42   1.390433 A    
C7    C48   1.444652 S    
C27   C47   1.422788 A    
C39   C41   1.375685 A    
C10   H2    1.080657 S    
O12   C8    1.303009 A    
C23   H11   1.079161 S    
C13   C19   1.388039 A    
N8    O24   1.299344 A    
N7    O22   1.300545 A    
C14   C20   1.391420 A    
Cu2   O12   1.964109 S    
C53   H19   1.083176 S    
O7    C3    1.293729 A    
C36   C40   1.390386 A    
C57   N3    1.380181 A    
C54   H20   1.083173 S    
C39   H27   1.085384 S    
N1    C61   1.367965 A    
C60   N2    1.381282 A    
N5    O17   1.301558 A    
O3    Cu2   1.953492 S    
C18   C22   1.395043 A    
O7    Cu4   1.953772 S    
C16   H32   1.082637 S    
C52   H18   1.082197 S    
C58   N4    1.380162 A    
Cu4   O15   1.953705 S    
C41   N5    1.424108 S    
Cu1   Cu3   2.706148 S    
C38   C44   1.390455 A    
Cu2   Cu4   2.706148 S    
C23   C27   1.417123 A    
N7    O21   1.300932 A    
O2    C2    1.295892 A    
C12   H4    1.080582 S    
C3    C36   1.439716 S    
O16   C8    1.301590 A    
N6    O20   1.299509 A    
C62   C64   1.421374 A    
C2    C33   1.452450 S    
C33   C37   1.386616 A    
H13   C61   1.081797 S    
C61   C63   1.421388 A    
C28   C48   1.417786 A    
C17   H5    1.082676 S    
C49   C59   1.411963 A    
C49   H15   1.062271 S    
Cu2   O11   1.953871 S    
C50   C52   1.389905 A    
O6    C2    1.303618 A    
C55   H21   1.058547 S    
C40   H28   1.084544 S    
Cu1   O9    1.953871 S    
O9    C5    1.296455 A    
C25   C45   1.422818 A    
C10   C30   1.412175 A    
N8    O23   1.301951 A    
Cu1   N3    2.033795 S    
C20   H8    1.082900 S    
C19   C23   1.392515 A    
C34   C38   1.390058 A    
C19   H7    1.082681 S    
C21   H9    1.079111 S    
C56   C58   1.413077 A    
C11   H3    1.076635 S    
C13   H29   1.082618 S    
C11   C15   1.392587 A    
C37   C43   1.375658 A    
C55   C57   1.413286 A    
C12   C16   1.394445 A    
O4    Cu2   1.974399 S    
C64   N4    1.368285 A    
N5    O18   1.301362 A    
O3    C3    1.297370 A    
C26   C46   1.417547 A    
C53   C55   1.387064 A    
C14   H30   1.082689 S    
C29   C33   1.418455 A    
Cu3   O13   1.953705 S    
O1    Cu1   1.953492 S    
Cu4   O16   1.974616 S    
C42   C46   1.416065 A    
C9    C13   1.392647 A    
C51   H17   1.082221 S    
C41   C45   1.409241 A    
Cu3   N1    2.033610 S    
C43   C47   1.408944 A    
C57   C59   1.435556 A    
C24   H12   1.079684 S    
N6    O19   1.301943 A    
C43   N7    1.423527 S    
