data_mof_unit_14453.cif
_audit_creation_date              2012-12-10T17:24:14-0500
_audit_creation_method            fapswitch 2.2
_symmetry_space_group_name_H-M    P1
_symmetry_Int_Tables_number       1
_space_group_crystal_system       triclinic
_cell_length_a                    19.355713
_cell_length_b                    10.779107
_cell_length_c                    9.60359
_cell_angle_alpha                 90.020395
_cell_angle_beta                  90.029614
_cell_angle_gamma                 92.562261
_cell_volume                      2001.66348912

loop_
_atom_site_label
_atom_site_type_symbol
_atom_type_description
_atom_site_fract_x
_atom_site_fract_y
_atom_site_fract_z
_atom_type_partial_charge
C1    C     C_R   0.497552 0.262579 0.500018 0.792462
C2    C     C_R   0.291620 0.501887 0.500112 -0.045378
C3    C     C_R   0.930138 0.509596 0.500246 0.411131
C4    C     C_R   0.070292 0.508460 0.500280 0.419049
C5    C     C_R   0.817217 0.508739 0.626346 -0.153693
C6    C     C_R   0.745182 0.506294 0.626287 -0.189447
C7    C     C_R   0.708499 0.503735 0.500086 -0.032040
C8    C     C_R   0.745142 0.504531 0.373945 -0.193240
C9    C     C_R   0.817171 0.506928 0.374005 -0.153774
C10   C     C_R   0.853946 0.508724 0.500207 0.056331
C11   C     C_R   0.387780 0.120292 0.647218 -0.293813
C12   C     C_R   0.367559 0.500063 0.500029 0.767872
C13   C     C_R   0.336632 0.051209 0.718865 -0.212581
C14   C     C_R   0.336661 0.922148 0.718845 0.675438
C15   C     C_R   0.387924 0.861436 0.647250 -0.261633
C16   C     C_R   0.441089 0.929574 0.575838 0.015041
C17   C     C_R   0.440995 0.060816 0.575792 0.101238
C18   C     C_R   0.492824 0.128379 0.499891 -0.073960
C19   C     C_R   0.541363 0.067377 0.420871 -0.193510
C20   C     C_R   0.541481 0.939405 0.420951 -0.200365
C21   C     C_R   0.493040 0.870485 0.500018 -0.053114
C22   C     C_R   0.592093 0.664820 0.144069 -0.150212
C23   C     C_R   0.497895 0.737093 0.500030 0.769429
C24   C     C_R   0.637173 0.745236 0.071993 -0.212756
C25   C     C_R   0.637168 0.745279 0.928516 -0.201413
C26   C     C_R   0.592062 0.664943 0.856218 -0.145351
C27   C     C_R   0.545231 0.581069 0.925287 0.210458
C28   C     C_R   0.545239 0.581003 0.074833 0.214768
C29   C     C_R   0.456890 0.423002 0.073792 -0.054003
C30   C     C_R   0.456910 0.423021 0.925933 -0.050739
C31   C     C_R   0.632459 0.501004 0.500002 0.765691
C32   C     C_R   0.255215 0.506952 0.626246 -0.155582
C33   C     C_R   0.183300 0.509346 0.626325 -0.121464
C34   C     C_R   0.146413 0.506710 0.500258 0.045217
C35   C     C_R   0.182924 0.501789 0.374132 -0.145216
C36   C     C_R   0.254834 0.499402 0.374067 -0.169379
Cu1   Cu    Cu3+1 0.500000 0.499990 0.640660 0.933964
Cu2   Cu    Cu3+1 0.500000 0.500010 0.359340 0.940765
H1    H     H_    0.282216 0.509279 0.725086 0.163161
H2    H     H_    0.384121 0.220047 0.646290 0.166028
H3    H     H_    0.296255 0.098120 0.772972 0.166607
H4    H     H_    0.384434 0.761132 0.646362 0.176260
H5    H     H_    0.580644 0.893887 0.361480 0.135508
H6    H     H_    0.421534 0.359852 0.128852 0.139238
H7    H     H_    0.596415 0.672739 0.253792 0.191881
H8    H     H_    0.672367 0.808105 0.128233 0.151309
H9    H     H_    0.672383 0.808155 0.872464 0.155434
H10   H     H_    0.596351 0.672929 0.746476 0.196879
H11   H     H_    0.156715 0.513242 0.725296 0.161005
H12   H     H_    0.421569 0.359879 0.870706 0.133634
H13   H     H_    0.156043 0.499594 0.275198 0.159724
H14   H     H_    0.281523 0.495534 0.275169 0.158070
H15   H     H_    0.844011 0.510292 0.725372 0.155917
H16   H     H_    0.718320 0.506305 0.725203 0.157682
H17   H     H_    0.718252 0.503135 0.274980 0.157903
H18   H     H_    0.843926 0.507102 0.275014 0.155983
H19   H     H_    0.580429 0.119359 0.361326 0.152258
N1    N     N_R   0.034485 0.506954 0.378707 -0.232953
N2    N     N_R   0.965794 0.507510 0.378688 -0.235526
N3    N     N_R   0.965948 0.511351 0.621827 -0.234609
N4    N     N_R   0.034646 0.510819 0.621845 -0.231189
N5    N     N_R   0.500660 0.501210 0.147910 -0.198859
N6    N     N_R   0.500680 0.501290 0.852040 -0.198118
O1    O     O_R   0.499990 0.319640 0.618810 -0.574836
O2    O     O_R   0.500000 0.319660 0.381240 -0.573529
O3    O     O_R   0.400140 0.499970 0.618820 -0.591759
O4    O     O_R   0.400150 0.500000 0.381250 -0.574786
O5    O     O_R   0.500000 0.680340 0.618760 -0.598911
O6    O     O_R   0.500010 0.680360 0.381190 -0.586013
O7    O     O_R   0.599850 0.500000 0.618750 -0.596462
O8    O     O_R   0.599860 0.500030 0.381180 -0.600248
F1    F     F_    0.286074 0.855265 0.786542 -0.662872

loop_
_geom_bond_atom_site_label_1
_geom_bond_atom_site_label_2
_ccdc_geom_bond_type
C23   O5    A    
C26   C27   A    
C1    O2    A    
C24   C25   A    
Cu1   O5    S    
C16   C21   A    
Cu1   O7    S    
C9    C10   A    
C25   H9    S    
C19   C20   A    
C36   H14   S    
Cu2   O2    S    
C26   H10   S    
C14   F1    S    
Cu1   O1    S    
C2    C12   S    
C32   C33   A    
C20   H5    S    
C13   H3    S    
C17   C18   A    
C30   H12   S    
Cu2   O6    S    
C24   H8    S    
C5    C10   A    
C9    H18   S    
C22   C28   A    
C13   C14   A    
C19   H19   S    
C11   C13   A    
C1    C18   S    
C29   C30   A    
C27   N6    A    
C6    H16   S    
C5    C6    A    
C8    H17   S    
C31   O8    A    
Cu1   N6    S    
Cu1   Cu2   S    
C33   C34   A    
C6    C7    A    
C4    C34   S    
C21   C23   S    
C29   H6    S    
C35   H13   S    
C11   H2    S    
C12   O4    A    
C22   C24   A    
N1    N2    A    
C7    C31   S    
Cu1   O3    S    
C33   H11   S    
C15   C16   A    
Cu2   O4    S    
C1    O1    A    
C7    C8    A    
C22   H7    S    
C16   C17   A    
C20   C21   A    
C29   N5    A    
C2    C32   A    
C34   C35   A    
C32   H1    S    
C2    C36   A    
C27   C28   A    
C3    C10   S    
C23   O6    A    
Cu2   O8    S    
C18   C19   A    
C5    H15   S    
C31   O7    A    
C4    N1    A    
C25   C26   A    
C30   N6    A    
C3    N3    A    
C12   O3    A    
C4    N4    A    
N3    N4    A    
C11   C17   A    
C14   C15   A    
C15   H4    S    
C3    N2    A    
C8    C9    A    
Cu2   N5    S    
C35   C36   A    
C28   N5    A    
