data_mof_unit_46049.cif
_audit_creation_date              2012-12-10T18:52:59-0500
_audit_creation_method            fapswitch 2.2
_symmetry_space_group_name_H-M    P1
_symmetry_Int_Tables_number       1
_space_group_crystal_system       triclinic
_cell_length_a                    9.851196
_cell_length_b                    10.626277
_cell_length_c                    16.719366
_cell_angle_alpha                 90.3112
_cell_angle_beta                  85.177888
_cell_angle_gamma                 89.811764
_cell_volume                      1743.97603736

loop_
_atom_site_label
_atom_site_type_symbol
_atom_type_description
_atom_site_fract_x
_atom_site_fract_y
_atom_site_fract_z
_atom_type_partial_charge
C1    C     C_R   0.499610 0.739749 0.501326 0.902355
C2    C     C_R   0.500011 0.260261 0.499263 0.895636
C3    C     C_R   0.570153 0.937178 0.558415 0.097281
C4    C     C_R   0.425345 0.062886 0.444309 0.095485
C5    C     C_R   0.570922 0.066739 0.556030 -0.296722
C6    C     C_R   0.425354 0.933401 0.446409 -0.272384
C7    C     C_R   0.499066 0.127989 0.499328 -0.036663
C8    C     C_R   0.498509 0.872079 0.502509 -0.020281
C9    C     C_R   0.934848 0.414004 0.454592 0.534460
C10   C     C_R   0.065638 0.581034 0.549000 0.550019
C11   C     C_R   0.079602 0.418412 0.452425 -0.306741
C12   C     C_R   0.920925 0.583480 0.546437 -0.312859
C13   C     C_R   0.481270 0.500485 0.653426 0.886842
C14   C     C_R   0.518766 0.492989 0.347018 0.878520
C15   C     C_R   0.471437 0.489898 0.740338 -0.090739
C16   C     C_R   0.529392 0.450280 0.264243 -0.082324
C17   C     C_R   0.589336 0.504559 0.780807 -0.329746
C18   C     C_R   0.426814 0.372141 0.238746 -0.311072
C19   C     C_R   0.588768 0.474547 0.862401 0.540568
C20   C     C_R   0.435687 0.325064 0.160618 0.505774
C21   C     C_R   0.463994 0.437815 0.903112 0.088768
C22   C     C_R   0.550218 0.354886 0.108628 0.066300
C23   C     C_R   0.344505 0.432161 0.863805 -0.250401
C24   C     C_R   0.655859 0.427561 0.135321 -0.225144
C25   C     C_R   0.348435 0.455820 0.782300 -0.216683
C26   C     C_R   0.646025 0.474625 0.213274 -0.197407
C27   C     C_2   0.453615 0.413016 0.988714 -0.172057
C28   C     C_2   0.544453 0.341673 0.022641 -0.109153
H1    H     H_    0.680782 0.538266 0.747846 0.158058
H2    H     H_    0.339830 0.347073 0.279397 0.171365
H3    H     H_    0.727289 0.532469 0.233045 0.165001
H4    H     H_    0.256286 0.444714 0.751967 0.160566
H5    H     H_    0.627449 0.295353 0.987080 0.156260
H6    H     H_    0.373796 0.462319 0.025359 0.128121
H7    H     H_    0.248823 0.406259 0.896140 0.142813
H8    H     H_    0.741725 0.454322 0.094234 0.177517
H9    H     H_    0.625726 0.119428 0.598735 0.145548
H10   H     H_    0.370819 0.880774 0.403550 0.150753
H11   H     H_    0.141632 0.356479 0.412816 0.166702
H12   H     H_    0.859589 0.651534 0.581743 0.177849
N1    N     N_R   0.142790 0.500030 0.500020 -0.125850
N2    N     N_R   0.857210 0.499970 0.499980 -0.126089
O1    O     O_R   0.385380 0.683250 0.500010 -0.574655
O2    O     O_R   0.614620 0.316750 0.499990 -0.603176
O3    O     O_R   0.614710 0.683220 0.500000 -0.610247
O4    O     O_R   0.385290 0.316780 0.500000 -0.609511
O5    O     O_R   0.371780 0.500040 0.615800 -0.599167
O6    O     O_R   0.628220 0.499960 0.384200 -0.577941
O7    O     O_R   0.601110 0.500010 0.615800 -0.625260
O8    O     O_R   0.398890 0.499990 0.384200 -0.624115
Zn1   Zn    Zn3+2 0.346870 0.500020 0.500000 0.982666
Zn2   Zn    Zn3+2 0.653130 0.499980 0.500000 0.979796
O9    O     O_3   0.335408 0.246841 0.135065 -0.645106
C29   C     C_3   0.211234 0.313528 0.131424 0.060364
H13   H     H_    0.184110 0.309771 0.068253 0.160437
H14   H     H_    0.215624 0.415373 0.148184 0.116522
C30   C     C_3   0.098127 0.250031 0.184751 -0.335743
H15   H     H_    0.091211 0.149281 0.167399 0.231584
H16   H     H_    0.121500 0.255279 0.248552 0.215269
C31   C     C_3   0.961527 0.314126 0.175830 -0.930867
H17   H     H_    0.965367 0.414382 0.194629 0.266200
H18   H     H_    0.879570 0.266923 0.213818 0.278910
H19   H     H_    0.936191 0.308633 0.112418 0.251271
O10   O     O_3   0.702110 0.490007 0.906449 -0.664260
C32   C     C_3   0.828574 0.458447 0.863925 0.060120
H20   H     H_    0.908567 0.473072 0.906064 0.167072
H21   H     H_    0.855427 0.524124 0.813889 0.131178
C33   C     C_3   0.836844 0.319862 0.836376 -0.394339
H22   H     H_    0.819571 0.257614 0.889378 0.218658
H23   H     H_    0.757798 0.299153 0.794652 0.219452
C34   C     C_3   0.975863 0.289506 0.793247 -0.955169
H24   H     H_    0.995610 0.350619 0.739836 0.254533
H25   H     H_    0.978293 0.189711 0.773075 0.267828
H26   H     H_    0.057288 0.303672 0.834379 0.260225
N3    N     N_3   0.639508 0.871882 0.617854 -0.459988
H27   H     H_    0.741524 0.899278 0.611735 0.172713
H28   H     H_    0.598134 0.901656 0.674465 0.186124
N4    N     N_3   0.354725 0.128060 0.385290 -0.469317
H29   H     H_    0.252281 0.101679 0.392184 0.176908
H30   H     H_    0.394814 0.098032 0.328458 0.191075
O11   O     O_3   0.871527 0.328852 0.407015 -0.611739
C35   C     C_3   0.899391 0.204648 0.431513 0.077269
H31   H     H_    0.859650 0.190655 0.495235 0.147796
H32   H     H_    0.010396 0.183636 0.425249 0.112102
C36   C     C_3   0.830590 0.110534 0.378664 -0.313044
H33   H     H_    0.719265 0.128620 0.382619 0.235245
H34   H     H_    0.871181 0.122246 0.315298 0.216572
C37   C     C_3   0.857111 0.975147 0.403409 -0.943698
H35   H     H_    0.967364 0.952525 0.392982 0.258666
H36   H     H_    0.799211 0.909526 0.367266 0.268600
H37   H     H_    0.824401 0.961229 0.467803 0.271405
O12   O     O_3   0.132812 0.666414 0.594653 -0.607985
C38   C     C_3   0.075840 0.672659 0.675265 0.061286
H38   H     H_    0.158497 0.653247 0.714785 0.166926
H39   H     H_    0.995165 0.601463 0.691207 0.098899
C39   C     C_3   0.022303 0.805843 0.693602 -0.347728
H40   H     H_    0.109400 0.872386 0.691104 0.230365
H41   H     H_    0.954138 0.834623 0.647432 0.213754
C40   C     C_3   0.944198 0.814186 0.776210 -0.963291
H42   H     H_    0.851845 0.754208 0.778100 0.265059
H43   H     H_    0.911798 0.913053 0.788685 0.266162
H44   H     H_    0.009776 0.783348 0.823395 0.267091

loop_
_geom_bond_atom_site_label_1
_geom_bond_atom_site_label_2
_ccdc_geom_bond_type
C38   H38   S    
C5    H9    S    
C1    C8    S    
C17   H1    S    
C2    C7    S    
O1    Zn1   S    
O11   C35   S    
O9    C29   S    
C2    O4    A    
C9    N2    A    
C24   H8    S    
C31   H19   S    
C19   C21   A    
C24   C26   A    
N4    H30   S    
C30   H16   S    
C39   C40   S    
C31   H18   S    
C12   N2    A    
C1    O1    A    
O5    Zn1   S    
C2    O2    A    
C33   H22   S    
C32   H21   S    
C39   H41   S    
C6    H10   S    
C18   H2    S    
C3    N3    S    
C18   C20   A    
O2    Zn2   S    
C25   H4    S    
C21   C27   S    
C10   O12   S    
C26   H3    S    
C38   H39   S    
C22   C28   S    
C10   N1    A    
C4    C7    A    
C5    C7    A    
C36   H34   S    
C27   H6    S    
C16   C26   A    
C29   H14   S    
C4    C6    A    
C3    C8    A    
C34   H25   S    
N4    H29   S    
C30   C31   S    
C14   O6    A    
O3    Zn2   S    
C36   H33   S    
O4    Zn1   S    
C31   H17   S    
C12   H12   S    
N3    H27   S    
C4    N4    S    
N3    H28   S    
C40   H42   S    
C37   H37   S    
C19   O10   S    
C32   C33   S    
C39   H40   S    
O8    Zn1   S    
C11   H11   S    
C9    C11   A    
C10   C12   A    
C13   O7    A    
C16   C18   A    
C40   H43   S    
C37   H36   S    
C28   H5    S    
C32   H20   S    
C38   C39   S    
C23   H7    S    
C13   C15   S    
C14   C16   S    
C13   O5    A    
C36   C37   S    
C15   C17   A    
C29   H13   S    
O7    Zn2   S    
C20   C22   A    
C20   O9    S    
C3    C5    A    
C34   H26   S    
C6    C8    A    
C35   C36   S    
C35   H32   S    
O10   C32   S    
C21   C23   A    
C34   H24   S    
C1    O3    A    
C30   H15   S    
C14   O8    A    
C33   C34   S    
O12   C38   S    
C17   C19   A    
C11   N1    A    
C22   C24   A    
C23   C25   A    
C15   C25   A    
O6    Zn2   S    
C40   H44   S    
C37   H35   S    
C33   H23   S    
C35   H31   S    
C9    O11   S    
C27   C28   D    
N1    Zn1   S    
N2    Zn2   S    
C29   C30   S    
