data_mof_unit_62090.cif
_audit_creation_date              2012-12-10T17:13:16-0500
_audit_creation_method            fapswitch 2.2
_symmetry_space_group_name_H-M    P1
_symmetry_Int_Tables_number       1
_space_group_crystal_system       triclinic
_cell_length_a                    31.124581
_cell_length_b                    30.19637
_cell_length_c                    24.308812
_cell_angle_alpha                 90.078263
_cell_angle_beta                  127.266834
_cell_angle_gamma                 89.840589
_cell_volume                      18181.8207891

loop_
_atom_site_label
_atom_site_type_symbol
_atom_type_description
_atom_site_fract_x
_atom_site_fract_y
_atom_site_fract_z
_atom_type_partial_charge
Br1   Br    Br    0.577152 0.042745 0.387216 -0.324341
Br2   Br    Br    0.523921 0.242175 0.861841 -0.360403
Br3   Br    Br    0.027079 0.834169 0.133146 -0.310334
Br4   Br    Br    0.023919 0.742183 0.861839 -0.360376
Br5   Br    Br    0.642151 0.124086 0.377943 -0.339436
Br6   Br    Br    0.377219 0.140759 0.637934 -0.356258
Br7   Br    Br    0.142154 0.624084 0.377946 -0.339433
Br8   Br    Br    0.877226 0.640765 0.637939 -0.356241
Br9   Br    Br    0.719782 0.221271 0.747578 -0.430504
Br10  Br    Br    0.235020 0.176376 0.221449 -0.443173
Br11  Br    Br    0.219774 0.721276 0.747572 -0.430502
Br12  Br    Br    0.446037 0.059172 0.636909 -0.309391
Br13  Br    Br    0.735005 0.676357 0.221443 -0.443160
Br14  Br    Br    0.077155 0.542743 0.387220 -0.324343
Br15  Br    Br    0.946047 0.559180 0.636918 -0.309381
Br16  Br    Br    0.958123 0.364534 0.417997 -0.430723
Br17  Br    Br    0.056506 0.369562 0.602299 -0.389672
Br18  Br    Br    0.458122 0.864535 0.417995 -0.430721
Br19  Br    Br    0.556506 0.869562 0.602298 -0.389672
Br20  Br    Br    0.527079 0.334167 0.133144 -0.310328
C1    C     C_R   0.690820 0.189477 0.500814 1.026145
C2    C     C_R   0.535396 0.247256 0.068518 0.352632
C3    C     C_R   0.671625 0.861246 0.683265 0.296904
C4    C     C_R   0.886780 0.368183 0.392852 0.118388
C5    C     C_R   0.124803 0.373353 0.617406 0.186591
C6    C     C_R   0.386779 0.868184 0.392852 0.118390
C7    C     C_R   0.624802 0.873353 0.617406 0.186588
C8    C     C_R   0.879129 0.373827 0.444382 -0.155744
C9    C     C_R   0.126400 0.376673 0.560388 -0.154937
C10   C     C_R   0.379129 0.873827 0.444382 -0.155746
C11   C     C_R   0.626399 0.876673 0.560388 -0.154937
C12   C     C_R   0.837422 0.350116 0.437374 -0.060165
C13   C     C_R   0.965205 0.746613 0.929484 0.358952
C14   C     C_R   0.168112 0.354688 0.565034 -0.164335
C15   C     C_R   0.337422 0.850116 0.437374 -0.060164
C16   C     C_R   0.668112 0.854688 0.565034 -0.164334
C17   C     C_R   0.840060 0.344446 0.497273 -0.162835
C18   C     C_R   0.160384 0.344750 0.502942 -0.095170
C19   C     C_R   0.340060 0.844446 0.497273 -0.162836
C20   C     C_R   0.660384 0.844750 0.502942 -0.095172
C21   C     C_R   0.876762 0.368530 0.558646 0.294861
C22   C     C_R   0.118583 0.363189 0.439596 0.295711
C23   C     C_R   0.376763 0.868529 0.558647 0.294861
C24   C     C_R   0.035395 0.747258 0.068518 0.352631
C25   C     C_R   0.618583 0.863190 0.439596 0.295712
C26   C     C_R   0.909911 0.399757 0.559176 0.456058
C27   C     C_R   0.081715 0.391549 0.436958 0.377559
C28   C     C_R   0.409913 0.899756 0.559177 0.456064
C29   C     C_R   0.581715 0.891549 0.436958 0.377558
C30   C     C_R   0.911649 0.401994 0.502636 -0.146255
C31   C     C_R   0.087611 0.400264 0.498338 -0.103574
C32   C     C_R   0.411650 0.901994 0.502637 -0.146256
C33   C     C_R   0.587611 0.900263 0.498338 -0.103575
C34   C     C_R   0.058051 0.437583 0.499333 0.980170
C35   C     C_R   0.688134 0.180681 0.619051 0.394001
C36   C     C_R   0.941673 0.438113 0.500856 0.986920
C37   C     C_R   0.558051 0.937583 0.499333 0.980168
C38   C     C_R   0.441673 0.938113 0.500856 0.986921
C39   C     C_R   0.818174 0.251976 0.634634 0.974509
C40   C     C_R   0.182687 0.251009 0.365240 1.080557
C41   C     C_R   0.318174 0.751976 0.634634 0.974507
C42   C     C_R   0.682687 0.751009 0.365240 1.080559
C43   C     C_R   0.558878 0.061089 0.499050 0.991008
C44   C     C_R   0.441187 0.061350 0.501066 0.938585
C45   C     C_R   0.058878 0.561089 0.499050 0.991011
C46   C     C_R   0.292906 0.164099 0.370545 0.406969
C47   C     C_R   0.941187 0.561350 0.501066 0.938585
C48   C     C_R   0.643741 0.211376 0.252461 0.415257
C49   C     C_R   0.334732 0.243832 0.748293 0.381092
C50   C     C_R   0.143740 0.711377 0.252461 0.415258
C51   C     C_R   0.834731 0.743831 0.748293 0.381100
C52   C     C_R   0.608782 0.211106 0.179608 0.347281
C53   C     C_R   0.370752 0.245437 0.820903 0.356580
C54   C     C_R   0.108780 0.711107 0.179608 0.347281
C55   C     C_R   0.870751 0.745438 0.820903 0.356579
C56   C     C_R   0.573857 0.247576 0.143727 -0.253333
C57   C     C_R   0.188131 0.680683 0.619049 0.394002
C58   C     C_R   0.427025 0.246716 0.854228 -0.208831
C59   C     C_R   0.073857 0.747577 0.143727 -0.253333
C60   C     C_R   0.927024 0.746720 0.854229 -0.208845
C61   C     C_R   0.575743 0.284665 0.180024 0.273356
C62   C     C_R   0.447041 0.247540 0.815497 0.174504
C63   C     C_R   0.075743 0.784666 0.180025 0.273357
C64   C     C_R   0.947040 0.747547 0.815498 0.174521
C65   C     C_R   0.613185 0.286474 0.251652 0.331998
C66   C     C_R   0.410676 0.249167 0.742883 0.349475
C67   C     C_R   0.113185 0.786475 0.251653 0.331994
C68   C     C_R   0.792900 0.664093 0.370543 0.406971
C69   C     C_R   0.910675 0.749173 0.742884 0.349459
C70   C     C_R   0.673753 0.187265 0.663592 0.086186
C71   C     C_R   0.296331 0.162063 0.314971 0.030244
C72   C     C_R   0.173748 0.687268 0.663587 0.086183
C73   C     C_R   0.308723 0.189589 0.498565 1.020554
C74   C     C_R   0.796322 0.662053 0.314966 0.030240
C75   C     C_R   0.625314 0.169181 0.646321 0.310237
C76   C     C_R   0.345184 0.148597 0.328075 0.404902
C77   C     C_R   0.125309 0.669184 0.646316 0.310237
C78   C     C_R   0.845175 0.648590 0.328069 0.404899
C79   C     C_R   0.595035 0.140099 0.589411 0.425448
C80   C     C_R   0.386843 0.131588 0.392868 0.439709
C81   C     C_R   0.095032 0.640100 0.589407 0.425449
C82   C     C_R   0.886837 0.631585 0.392863 0.439715
C83   C     C_R   0.612092 0.130683 0.547801 -0.128954
C84   C     C_R   0.190820 0.689477 0.500814 1.026141
C85   C     C_R   0.379545 0.126234 0.445064 -0.229839
C86   C     C_R   0.112091 0.630683 0.547799 -0.128956
C87   C     C_R   0.879542 0.626232 0.445062 -0.229840
C88   C     C_R   0.653555 0.156282 0.556892 -0.112503
C89   C     C_R   0.337159 0.149348 0.437345 -0.081183
C90   C     C_R   0.153554 0.656283 0.556890 -0.112502
C91   C     C_R   0.837156 0.649346 0.437344 -0.081183
C92   C     C_R   0.660531 0.155243 0.504450 -0.153658
C93   C     C_R   0.339480 0.155285 0.496694 -0.128063
C94   C     C_R   0.160531 0.655243 0.504451 -0.153659
C95   C     C_R   0.808723 0.689589 0.498565 1.020549
C96   C     C_R   0.839480 0.655285 0.496695 -0.128060
C97   C     C_R   0.634305 0.123856 0.451101 0.192093
C98   C     C_R   0.375188 0.131292 0.557490 0.189295
C99   C     C_R   0.134306 0.623855 0.451102 0.192096
C100  C     C_R   0.875192 0.631295 0.557492 0.189295
C101  C     C_R   0.682605 0.249236 0.365078 1.018128
C102  C     C_R   0.317217 0.249050 0.634446 1.075582
C103  C     C_R   0.182605 0.749236 0.365078 1.018128
C104  C     C_R   0.817217 0.749050 0.634446 1.075580
C105  C     C_R   0.601669 0.092351 0.450385 0.217075
C106  C     C_R   0.646156 0.249143 0.288701 -0.367605
C107  C     C_R   0.408445 0.099797 0.559136 0.249889
C108  C     C_R   0.101671 0.592350 0.450386 0.217071
C109  C     C_R   0.908449 0.599800 0.559139 0.249893
C110  C     C_R   0.589467 0.096255 0.497392 -0.154024
C111  C     C_R   0.411324 0.097464 0.503187 -0.195785
C112  C     C_R   0.089467 0.596254 0.497392 -0.154025
C113  C     C_R   0.911324 0.597465 0.503187 -0.195791
C114  C     C_R   0.914165 0.251470 0.742652 0.378997
C115  C     C_R   0.089867 0.245099 0.253841 0.282160
C116  C     C_R   0.414165 0.751469 0.742652 0.379000
C117  C     C_R   0.354882 0.247069 0.709967 -0.261708
C118  C     C_R   0.589867 0.745103 0.253842 0.282164
C119  C     C_R   0.951678 0.255874 0.814204 0.407599
C120  C     C_R   0.053911 0.250372 0.181239 0.293095
C121  C     C_R   0.451677 0.755872 0.814204 0.407598
C122  C     C_R   0.553911 0.750375 0.181240 0.293089
C123  C     C_R   0.933899 0.265563 0.854446 -0.235344
C124  C     C_R   0.074712 0.258919 0.144834 -0.109230
C125  C     C_R   0.433899 0.765560 0.854446 -0.235341
C126  C     C_R   0.574714 0.758916 0.144834 -0.109226
C127  C     C_R   0.878834 0.273384 0.822237 0.345624
C128  C     C_R   0.146156 0.749143 0.288702 -0.367607
C129  C     C_R   0.129963 0.265723 0.179158 0.319507
C130  C     C_R   0.378835 0.773382 0.822237 0.345622
C131  C     C_R   0.629965 0.765714 0.179157 0.319516
C132  C     C_R   0.841393 0.272023 0.749417 0.301716
C133  C     C_R   0.165315 0.265313 0.252165 0.268271
C134  C     C_R   0.341394 0.772023 0.749418 0.301713
C135  C     C_R   0.665317 0.765307 0.252166 0.268251
C136  C     C_R   0.858402 0.257785 0.710023 -0.360203
C137  C     C_R   0.145376 0.253434 0.289152 -0.229028
C138  C     C_R   0.358402 0.757785 0.710023 -0.360203
C139  C     C_R   0.854881 0.747070 0.709967 -0.261716
C140  C     C_R   0.645376 0.753434 0.289152 -0.229018
C141  C     C_R   0.038297 0.260778 0.069648 0.474688
C142  C     C_R   0.971746 0.264688 0.930326 0.367479
C143  C     C_R   0.538298 0.760775 0.069648 0.474677
C144  C     C_R   0.471746 0.764685 0.930326 0.367474
C145  C     C_R   0.795661 0.331973 0.371473 0.272047
C146  C     C_R   0.216198 0.343622 0.631108 0.398720
C147  C     C_R   0.295660 0.831974 0.371473 0.272048
C148  C     C_R   0.716198 0.843621 0.631108 0.398717
C149  C     C_R   0.808854 0.310422 0.498699 0.956319
C150  C     C_R   0.465207 0.246610 0.929484 0.358951
C151  C     C_R   0.191178 0.310452 0.501174 1.067262
C152  C     C_R   0.308854 0.810422 0.498699 0.956321
C153  C     C_R   0.691178 0.810452 0.501174 1.067267
C154  C     C_R   0.797330 0.337440 0.314883 0.357709
C155  C     C_R   0.218256 0.347943 0.690548 0.364143
C156  C     C_R   0.297328 0.837441 0.314883 0.357706
C157  C     C_R   0.718255 0.847943 0.690548 0.364142
C158  C     C_R   0.844135 0.353130 0.326548 0.416001
C159  C     C_R   0.171626 0.361247 0.683266 0.296901
C160  C     C_R   0.344134 0.853131 0.326547 0.416000
H1    H     H_    0.668878 0.150538 0.258437 0.408993
H2    H     H_    0.988688 0.256119 0.174512 0.368968
H3    H     H_    0.527443 0.769241 0.885678 0.348652
H4    H     H_    0.488689 0.756134 0.174512 0.368966
H5    H     H_    0.824660 0.270473 0.838209 0.385026
H6    H     H_    0.186342 0.265738 0.166794 0.386643
H7    H     H_    0.324660 0.770470 0.838209 0.385025
H8    H     H_    0.686346 0.765726 0.166796 0.386634
H9    H     H_    0.786402 0.307233 0.743492 0.368943
H10   H     H_    0.223065 0.298781 0.262941 0.359564
H11   H     H_    0.286403 0.807232 0.743493 0.368947
H12   H     H_    0.270740 0.237949 0.745720 0.411801
H13   H     H_    0.723072 0.798767 0.262939 0.359557
H14   H     H_    0.860978 0.337019 0.615807 0.319601
H15   H     H_    0.100159 0.379394 0.350094 0.365221
H16   H     H_    0.360976 0.837020 0.615806 0.319604
H17   H     H_    0.600159 0.879394 0.350094 0.365221
H18   H     H_    0.741022 0.286899 0.327385 0.335853
H19   H     H_    0.293773 0.331265 0.685574 0.380449
H20   H     H_    0.241019 0.786902 0.327383 0.335852
H21   H     H_    0.793772 0.831264 0.685575 0.380444
H22   H     H_    0.720643 0.328677 0.242783 0.345686
H23   H     H_    0.168877 0.650538 0.258436 0.408994
H24   H     H_    0.262166 0.343153 0.791494 0.408221
H25   H     H_    0.220642 0.828681 0.242783 0.345685
H26   H     H_    0.762166 0.843155 0.791494 0.408219
H27   H     H_    0.876577 0.372343 0.282870 0.367997
H28   H     H_    0.143610 0.380437 0.732572 0.383844
H29   H     H_    0.376576 0.872344 0.282869 0.367997
H30   H     H_    0.643609 0.880436 0.732571 0.383843
H31   H     H_    0.595814 0.183376 0.097934 0.368026
H32   H     H_    0.376010 0.259591 0.903377 0.362847
H33   H     H_    0.095811 0.683376 0.097933 0.368027
H34   H     H_    0.770739 0.737947 0.745719 0.411801
H35   H     H_    0.876006 0.759592 0.903375 0.362847
H36   H     H_    0.932154 0.426320 0.646825 0.404575
H37   H     H_    0.026549 0.388856 0.337538 0.363642
H38   H     H_    0.432159 0.926317 0.646829 0.404577
H39   H     H_    0.526549 0.888856 0.337538 0.363643
H40   H     H_    0.655250 0.332259 0.319019 0.375462
H41   H     H_    0.465821 0.260761 0.729892 0.386793
H42   H     H_    0.155250 0.832260 0.319020 0.375463
H43   H     H_    0.965813 0.760795 0.729892 0.386775
H44   H     H_    0.763506 0.197111 0.687674 0.381184
H45   H     H_    0.912362 0.260635 0.662454 0.335058
H46   H     H_    0.215937 0.179585 0.311094 0.375089
H47   H     H_    0.263502 0.697113 0.687673 0.381184
H48   H     H_    0.715931 0.679580 0.311096 0.375092
H49   H     H_    0.623287 0.205604 0.711306 0.396913
H50   H     H_    0.327646 0.171268 0.241399 0.381230
H51   H     H_    0.123280 0.705607 0.711299 0.396915
H52   H     H_    0.827631 0.671258 0.241389 0.381227
H53   H     H_    0.539407 0.132066 0.603338 0.397278
H54   H     H_    0.464369 0.127598 0.454158 0.351057
H55   H     H_    0.039401 0.632068 0.603331 0.397278
H56   H     H_    0.039608 0.213761 0.262115 0.363421
H57   H     H_    0.964363 0.627598 0.454151 0.351058
H58   H     H_    0.412362 0.760635 0.662455 0.335061
H59   H     H_    0.539603 0.713775 0.262117 0.363424
H60   H     H_    0.027443 0.269244 0.885677 0.348651
N1    N     N_R   0.536424 0.279935 0.031214 -0.093810
N2    N     N_R   0.043209 0.230985 0.032028 -0.096985
N3    N     N_R   0.467180 0.794593 0.968265 -0.063228
N4    N     N_R   0.543208 0.730981 0.032027 -0.096969
N5    N     N_R   0.999871 0.292641 0.036870 -0.106329
N6    N     N_R   0.010186 0.232724 0.963406 -0.131976
N7    N     N_R   0.499872 0.792638 0.036871 -0.106331
N8    N     N_R   0.510186 0.732721 0.963405 -0.131975
N9    N     N_R   0.501677 0.279726 0.962720 -0.094935
N10   N     N_R   0.036424 0.779936 0.031216 -0.093809
N11   N     N_R   0.001677 0.779729 0.962721 -0.094939
N12   N     N_R   0.464233 0.213794 0.966727 -0.113623
N13   N     N_R   0.498865 0.214117 0.035336 -0.112550
N14   N     N_R   0.964230 0.713797 0.966726 -0.113619
N15   N     N_R   0.998863 0.714119 0.035335 -0.112551
N16   N     N_R   0.967179 0.294595 0.968264 -0.063227
O1    O     O_R   0.678340 0.230070 0.500020 -0.598910
O2    O     O_R   0.482930 0.045810 0.557520 -0.565646
O3    O     O_3   0.745934 0.676570 0.360705 -0.758074
O4    O     O_3   0.607218 0.177817 0.685074 -0.712519
O5    O     O_3   0.354117 0.150971 0.278950 -0.646052
O6    O     O_3   0.107212 0.677820 0.685067 -0.712514
O7    O     O_3   0.854105 0.650963 0.278940 -0.646051
O8    O     O_3   0.546663 0.123012 0.570554 -0.786547
O9    O     O_3   0.435292 0.123472 0.404364 -0.662892
O10   O     O_3   0.046660 0.623013 0.570549 -0.786548
O11   O     O_3   0.935286 0.623472 0.404357 -0.662891
O12   O     O_R   0.017070 0.545810 0.442480 -0.564394
O13   O     O_R   0.982930 0.545810 0.557520 -0.565644
O14   O     O_R   0.574570 0.045820 0.557490 -0.598758
O15   O     O_R   0.425430 0.045820 0.442510 -0.595305
O16   O     O_R   0.074570 0.545820 0.557490 -0.598759
O17   O     O_R   0.925430 0.545820 0.442510 -0.595305
O18   O     O_R   0.730080 0.178340 0.500000 -0.587487
O19   O     O_R   0.269920 0.178340 0.500000 -0.598595
O20   O     O_R   0.230080 0.678340 0.500000 -0.587488
O21   O     O_R   0.321660 0.230070 0.499980 -0.607795
O22   O     O_R   0.769920 0.678340 0.500000 -0.598590
O23   O     O_R   0.673200 0.275870 0.398140 -0.604072
O24   O     O_R   0.326800 0.275870 0.601860 -0.580258
O25   O     O_R   0.173200 0.775870 0.398140 -0.604073
O26   O     O_R   0.826800 0.775870 0.601860 -0.580265
O27   O     O_R   0.724950 0.224150 0.398130 -0.544305
O28   O     O_R   0.275050 0.224150 0.601870 -0.576634
O29   O     O_R   0.224950 0.724150 0.398130 -0.544303
O30   O     O_R   0.775050 0.724150 0.601870 -0.576630
O31   O     O_R   0.769940 0.321680 0.500000 -0.617463
O32   O     O_R   0.178340 0.730070 0.500020 -0.598908
O33   O     O_R   0.230060 0.321680 0.500000 -0.598832
O34   O     O_R   0.269940 0.821680 0.500000 -0.617466
O35   O     O_R   0.730060 0.821680 0.500000 -0.598833
O36   O     O_R   0.821690 0.269960 0.499980 -0.614121
O37   O     O_R   0.178310 0.269960 0.500020 -0.614038
O38   O     O_R   0.321690 0.769960 0.499980 -0.614119
O39   O     O_R   0.678310 0.769960 0.500020 -0.614036
O40   O     O_R   0.775070 0.275880 0.601870 -0.539520
O41   O     O_R   0.224930 0.275880 0.398130 -0.576947
O42   O     O_R   0.275070 0.775880 0.601870 -0.539520
O43   O     O_R   0.821660 0.730070 0.499980 -0.607800
O44   O     O_R   0.724930 0.775880 0.398130 -0.576954
O45   O     O_R   0.826820 0.224150 0.601850 -0.613538
O46   O     O_R   0.173180 0.224150 0.398150 -0.569973
O47   O     O_R   0.326820 0.724150 0.601850 -0.613539
O48   O     O_R   0.673180 0.724150 0.398150 -0.569974
O49   O     O_R   0.017100 0.454190 0.442490 -0.531011
O50   O     O_R   0.982900 0.454190 0.557510 -0.532138
O51   O     O_R   0.517100 0.954190 0.442490 -0.531012
O52   O     O_R   0.482900 0.954190 0.557510 -0.532137
O53   O     O_3   0.676536 0.175417 0.289689 -0.674070
O54   O     O_R   0.074600 0.454200 0.557500 -0.639282
O55   O     O_3   0.279377 0.241620 0.712954 -0.695267
O56   O     O_3   0.176535 0.675418 0.289688 -0.674070
O57   O     O_3   0.779376 0.741617 0.712953 -0.695263
O58   O     O_3   0.934146 0.243472 0.706040 -0.633916
O59   O     O_3   0.071845 0.232790 0.291407 -0.704139
O60   O     O_3   0.434146 0.743471 0.706040 -0.633914
O61   O     O_3   0.571844 0.732800 0.291409 -0.704140
O62   O     O_3   0.005644 0.251731 0.842497 -0.635788
O63   O     O_3   0.998595 0.246965 0.144380 -0.709151
O64   O     O_3   0.505643 0.751728 0.842497 -0.635788
O65   O     O_R   0.925400 0.454200 0.442500 -0.635430
O66   O     O_3   0.498595 0.746973 0.144382 -0.709150
O67   O     O_3   0.862489 0.280319 0.863299 -0.695070
O68   O     O_3   0.147619 0.273388 0.139713 -0.712617
O69   O     O_3   0.362489 0.780318 0.863299 -0.695071
O70   O     O_3   0.647621 0.773371 0.139712 -0.712610
O71   O     O_3   0.788122 0.284166 0.715846 -0.683104
O72   O     O_3   0.219397 0.275354 0.288321 -0.704531
O73   O     O_3   0.288123 0.784167 0.715847 -0.683104
O74   O     O_3   0.719400 0.775344 0.288322 -0.704549
O75   O     O_3   0.881338 0.363057 0.618688 -0.752231
O76   O     O_R   0.574600 0.954200 0.557500 -0.639282
O77   O     O_3   0.116082 0.353752 0.381977 -0.763074
O78   O     O_3   0.381340 0.863055 0.618690 -0.752236
O79   O     O_3   0.616082 0.853752 0.381977 -0.763070
O80   O     O_3   0.752932 0.310451 0.362258 -0.804634
O81   O     O_3   0.261598 0.331846 0.636545 -0.762586
O82   O     O_3   0.252931 0.810452 0.362258 -0.804633
O83   O     O_3   0.761597 0.831845 0.636545 -0.762591
O84   O     O_3   0.754688 0.326186 0.247998 -0.665986
O85   O     O_3   0.265668 0.337118 0.754352 -0.732916
O86   O     O_3   0.254686 0.826188 0.247997 -0.665988
O87   O     O_R   0.425400 0.954200 0.442500 -0.635430
O88   O     O_3   0.765667 0.837117 0.754352 -0.732923
O89   O     O_3   0.846994 0.352636 0.272017 -0.640269
O90   O     O_3   0.172622 0.360939 0.740882 -0.708221
O91   O     O_3   0.346993 0.852637 0.272016 -0.640270
O92   O     O_3   0.672621 0.860938 0.740882 -0.708220
O93   O     O_3   0.610215 0.174999 0.145585 -0.715785
O94   O     O_3   0.349576 0.246427 0.857172 -0.710324
O95   O     O_3   0.110213 0.674999 0.145584 -0.715785
O96   O     O_3   0.849574 0.746426 0.857172 -0.710322
O97   O     O_3   0.941441 0.428374 0.614523 -0.687547
O98   O     O_R   0.517070 0.045810 0.442480 -0.564392
O99   O     O_3   0.039482 0.410406 0.375333 -0.695735
O100  O     O_3   0.441444 0.928372 0.614526 -0.687544
O101  O     O_3   0.539483 0.910406 0.375333 -0.695738
O102  O     O_3   0.616527 0.325414 0.283732 -0.657229
O103  O     O_3   0.427939 0.250739 0.702159 -0.693289
O104  O     O_3   0.116527 0.825414 0.283733 -0.657230
O105  O     O_3   0.927940 0.750748 0.702164 -0.693263
O106  O     O_3   0.737123 0.195101 0.636854 -0.733460
O107  O     O_3   0.245939 0.176578 0.360704 -0.758079
O108  O     O_3   0.237121 0.695103 0.636853 -0.733458
Zn1   Zn    Zn3+2 0.715460 0.284550 0.500010 1.107104
Zn2   Zn    Zn3+2 0.038380 0.500000 0.576800 1.123314
Zn3   Zn    Zn3+2 0.461620 1.000000 0.423200 1.143263
Zn4   Zn    Zn3+2 0.538380 1.000000 0.576800 1.123311
Zn5   Zn    Zn3+2 0.284540 0.284550 0.499990 1.114540
Zn6   Zn    Zn3+2 0.215460 0.784550 0.500010 1.107103
Zn7   Zn    Zn3+2 0.784540 0.784550 0.499990 1.114528
Zn8   Zn    Zn3+2 0.784560 0.215470 0.499990 1.116956
Zn9   Zn    Zn3+2 0.215440 0.215470 0.500010 1.131488
Zn10  Zn    Zn3+2 0.284560 0.715470 0.499990 1.116959
Zn11  Zn    Zn3+2 0.715440 0.715470 0.500010 1.131492
Zn12  Zn    Zn3+2 0.961620 0.500000 0.423200 1.143265

loop_
_geom_bond_atom_site_label_1
_geom_bond_atom_site_label_2
_ccdc_geom_bond_type
C79   C83   A    
H52   O7    S    
C122  C126  A    
C143  N7    A    
C1    O18   A    
H48   O3    S    
O16   Zn2   S    
C18   C151  S    
C25   O79   S    
C86   C112  A    
O2    Zn4   S    
C43   O14   A    
C134  C138  A    
C75   C79   A    
O30   Zn11  S    
C16   C148  A    
Br14  C108  S    
C95   O43   A    
C37   O51   A    
C129  C133  A    
O26   Zn7   S    
C160  O91   S    
O1    Zn1   S    
C71   C76   A    
O12   Zn12  S    
C132  C136  A    
C132  O71   S    
C50   C54   A    
C131  C135  A    
C114  O58   S    
C73   O21   A    
C121  C125  A    
C99   C108  A    
H55   O10   S    
H50   O5    S    
C5    C9    A    
C67   C128  A    
C7    C11   A    
H31   O93   S    
Br7   C99   S    
C8    C12   A    
N1    N9    A    
C85   C111  A    
C103  O25   A    
C149  O36   A    
O18   Zn8   S    
C3    O92   S    
C78   C82   A    
C67   O104  S    
C150  N9    A    
O13   Zn2   S    
C58   C62   A    
C130  O69   S    
Br4   C64   S    
C44   C111  S    
H40   O102  S    
C48   C52   A    
C38   O87   A    
C148  O83   S    
C32   C38   S    
C51   O57   S    
C109  C113  A    
C151  O33   A    
C115  O59   S    
H51   O6    S    
Br10  C71   S    
C54   C59   A    
C4    C158  A    
C145  O80   S    
C48   O53   S    
C50   C128  A    
C1    C92   S    
O98   Zn3   S    
Br11  C72   S    
C24   C59   S    
C101  O23   A    
C102  C117  S    
C102  O24   A    
Br9   C70   S    
C19   C23   A    
C13   C60   S    
C104  O26   A    
C40   O46   A    
C41   O47   A    
Br13  C74   S    
H57   O11   S    
Br17  C5    S    
C41   C138  S    
H3    O64   S    
C1    O1    A    
C152  O34   A    
C53   O94   S    
H7    O69   S    
C29   C33   A    
C66   O103  S    
C129  O68   S    
C83   C110  A    
C107  C111  A    
H17   O79   S    
C35   O106  S    
C118  C140  A    
C28   C32   A    
O19   Zn9   S    
C11   C16   A    
C36   O50   A    
O32   Zn6   S    
C144  N3    A    
C2    N1    A    
N12   N13   A    
C81   O10   S    
C142  N6    A    
C115  C137  A    
C21   O75   S    
C2    C56   S    
O20   Zn10  S    
C141  N5    A    
H33   O95   S    
H4    O66   S    
C52   O93   S    
C26   O97   S    
C35   C70   A    
O28   Zn9   S    
C17   C149  S    
H27   O89   S    
O49   Zn12  S    
C95   C96   S    
C58   C150  S    
C43   C110  S    
C68   O3    S    
O43   Zn7   S    
C68   C91   A    
C119  C123  A    
H24   O85   S    
H21   O83   S    
C39   O40   A    
O44   Zn7   S    
H19   O81   S    
C84   O20   A    
C125  C130  A    
H15   O77   S    
C116  C138  A    
O27   Zn8   S    
H41   O103  S    
O24   Zn5   S    
H47   O108  S    
C65   C106  A    
C72   C77   A    
C69   C139  A    
C159  O90   S    
C75   O4    S    
C68   C74   A    
O47   Zn10  S    
C3    C157  A    
C100  C109  A    
C40   C137  S    
C29   O101  S    
C114  C119  A    
H54   O9    S    
C145  C154  A    
C30   C36   S    
C96   C100  A    
O46   Zn9   S    
C127  O67   S    
O76   Zn4   S    
C150  N12   A    
C82   C87   A    
C12   C17   A    
O35   Zn7   S    
C131  O70   S    
C84   O32   A    
C95   O22   A    
H39   O101  S    
C6    C10   A    
C82   O11   S    
C42   C140  S    
C98   C107  A    
H18   O80   S    
C36   O65   A    
C45   C112  S    
C9    C31   A    
C81   C86   A    
C10   C32   A    
O51   Zn3   S    
H11   O73   S    
C87   C91   A    
H13   O74   S    
C4    C8    A    
O41   Zn5   S    
C70   C75   A    
C39   C136  S    
O34   Zn6   S    
C35   C88   A    
C42   O48   A    
C45   O12   A    
C40   O41   A    
C76   C80   A    
O65   Zn12  S    
C17   C21   A    
C156  O86   S    
H60   O62   S    
C126  C131  A    
H49   O4    S    
C156  C160  A    
O37   Zn9   S    
C103  C128  S    
H26   O88   S    
C101  O27   A    
C102  O28   A    
C61   C65   A    
C147  O82   S    
H22   O84   S    
C39   O45   A    
C104  O30   A    
C63   C67   A    
H1    O53   S    
C124  C141  S    
Br18  C6    S    
C34   O49   A    
C60   C64   A    
C152  O38   A    
O14   Zn4   S    
C153  O39   A    
H58   O60   S    
C146  C155  A    
N2    N6    A    
C121  O64   S    
C13   N14   A    
C73   O19   A    
C92   C97   A    
C74   C78   A    
C148  C157  A    
H29   O91   S    
O50   Zn2   S    
O54   Zn2   S    
C45   O16   A    
C2    N13   A    
C85   C89   A    
C66   C117  A    
C54   O95   S    
C114  C136  A    
C49   C53   A    
C91   C96   A    
C154  C158  A    
C12   C145  A    
C115  C120  A    
C49   O55   S    
H23   O56   S    
C155  O85   S    
C50   O56   S    
H45   O58   S    
C134  O73   S    
H30   O92   S    
H34   O57   S    
O21   Zn5   S    
C118  C122  A    
C33   C37   S    
C27   C31   A    
H43   O105  S    
N10   N11   A    
C62   C66   A    
C9    C14   A    
C88   C92   A    
C15   C19   A    
C34   O54   A    
N14   N15   A    
O15   Zn3   S    
C135  O74   S    
H56   O59   S    
Br15  C109  S    
C25   C29   A    
C73   C93   S    
C157  O88   S    
C141  N2    A    
O40   Zn1   S    
C77   O6    S    
C37   O76   A    
C142  N16   A    
C79   O8    S    
C43   O98   A    
N3    N7    A    
H16   O78   S    
Br2   C62   S    
C78   O7    S    
C69   O105  S    
C120  O63   S    
C149  O31   A    
H46   O107  S    
C120  C124  A    
C5    C159  A    
C24   N15   A    
C18   C22   A    
C6    C160  A    
O29   Zn10  S    
C158  O89   S    
H8    O70   S    
H35   O96   S    
H10   O72   S    
C87   C113  A    
H32   O94   S    
O25   Zn6   S    
C59   C63   A    
O39   Zn11  S    
H6    O68   S    
H25   O86   S    
C46   C89   A    
C133  C137  A    
C28   O100  S    
C47   O13   A    
N4    N8    A    
C55   C60   A    
H44   O106  S    
C14   C146  A    
C51   C55   A    
C57   C72   A    
C76   O5    S    
C42   O44   A    
C52   C56   A    
Br12  C107  S    
C116  O60   S    
C123  C127  A    
C80   C85   A    
C116  C121  A    
C10   C15   A    
H14   O75   S    
C47   C113  S    
Br1   C105  S    
H59   O61   S    
H28   O90   S    
C20   C153  S    
O87   Zn3   S    
C80   O9    S    
O52   Zn4   S    
C104  C139  S    
C13   N11   A    
C38   O52   A    
C103  O29   A    
O17   Zn12  S    
C8    C30   A    
C105  C110  A    
O42   Zn6   S    
C57   O108  S    
H20   O82   S    
C15   C147  A    
C21   C26   A    
C83   C88   A    
C3    C7    A    
Br19  C7    S    
C23   C28   A    
C123  C142  S    
C89   C93   A    
C119  O62   S    
C153  O35   A    
Br16  C4    S    
Br20  C61   S    
H37   O99   S    
C108  C112  A    
C44   O2    A    
O48   Zn11  S    
C151  O37   A    
C49   C117  A    
O22   Zn11  S    
O23   Zn1   S    
N5    N16   A    
H2    O63   S    
C16   C20   A    
C22   O77   S    
C155  C159  A    
C65   O102  S    
Br5   C97   S    
C47   O17   A    
C124  C129  A    
C44   O15   A    
H36   O97   S    
C46   O107  S    
C53   C58   A    
H9    O71   S    
O31   Zn1   S    
H42   O104  S    
C143  N4    A    
C11   C33   A    
C23   O78   S    
H5    O67   S    
H53   O8    S    
C84   C94   S    
H38   O100  S    
C64   C69   A    
O36   Zn8   S    
C48   C106  A    
C27   O99   S    
Br8   C100  S    
C86   C90   A    
C24   N10   A    
C90   C94   A    
C41   O42   A    
C135  C140  A    
C14   C18   A    
H12   O55   S    
C94   C99   A    
C56   C61   A    
C46   C71   A    
C125  C144  S    
C51   C139  A    
C126  C143  S    
C26   C30   A    
O33   Zn5   S    
C31   C34   S    
C127  C132  A    
C122  O66   S    
C101  C106  S    
C133  O72   S    
Br3   C63   S    
O45   Zn8   S    
C97   C105  A    
C154  O84   S    
C55   O96   S    
C22   C27   A    
C146  O81   S    
C57   C90   A    
C144  N8    A    
C118  O61   S    
C93   C98   A    
O38   Zn10  S    
C20   C25   A    
C19   C152  S    
C130  C134  A    
Br6   C98   S    
C77   C81   A    
C147  C156  A    
