data_mof_unit_34484.cif
_audit_creation_date              2012-12-10T17:43:31-0500
_audit_creation_method            fapswitch 2.2
_symmetry_space_group_name_H-M    P1
_symmetry_Int_Tables_number       1
_space_group_crystal_system       triclinic
_cell_length_a                    14.930524
_cell_length_b                    10.609372
_cell_length_c                    9.967252
_cell_angle_alpha                 88.321931
_cell_angle_beta                  90.800821
_cell_angle_gamma                 91.454536
_cell_volume                      1577.52346731

loop_
_atom_site_label
_atom_site_type_symbol
_atom_type_description
_atom_site_fract_x
_atom_site_fract_y
_atom_site_fract_z
_atom_type_partial_charge
C1    C     C_R   0.502557 0.260775 0.501572 0.872426
C2    C     C_R   0.184345 0.418210 0.581476 -0.251999
C3    C     C_R   0.231847 0.501706 0.497133 -0.057549
C4    C     C_R   0.327219 0.499708 0.499133 0.886926
C5    C     C_R   0.188792 0.589148 0.413403 -0.250648
C6    C     C_R   0.648041 0.131072 0.639849 -0.152733
C7    C     C_R   0.717383 0.066008 0.703531 -0.233643
C8    C     C_R   0.719734 0.934693 0.699209 0.073440
C9    C     C_R   0.651254 0.869227 0.630713 -0.138959
C10   C     C_R   0.580092 0.934275 0.566706 0.039378
C11   C     C_R   0.578648 0.065916 0.570962 0.058632
C12   C     C_R   0.909359 0.610422 0.425913 0.058272
C13   C     C_R   0.507952 0.128205 0.503634 -0.064983
C14   C     C_R   0.442460 0.064137 0.429717 -0.150533
C15   C     C_R   0.443869 0.935716 0.425492 -0.195042
C16   C     C_R   0.503042 0.739206 0.498422 0.872326
C17   C     C_R   0.510634 0.871726 0.495525 -0.067023
C18   C     C_R   0.363218 0.370682 0.141555 -0.133972
C19   C     C_R   0.285514 0.334090 0.073369 -0.221651
C20   C     C_R   0.284764 0.335413 0.934237 -0.238899
C21   C     C_R   0.366090 0.355942 0.867538 0.005484
C22   C     C_R   0.433601 0.432347 0.929668 0.117184
C23   C     C_R   0.950398 0.338390 0.664559 -0.195764
C24   C     C_R   0.432983 0.435428 0.073432 0.166619
C25   C     C_R   0.563869 0.562753 0.070271 -0.085396
C26   C     C_R   0.563510 0.563586 0.927640 -0.095376
C27   C     C_R   0.672800 0.507598 0.500618 0.877788
C28   C     C_R   0.815514 0.615868 0.431763 -0.054104
C29   C     C_R   0.768778 0.518016 0.502853 -0.116155
C30   C     C_R   0.813611 0.428600 0.581533 -0.228415
C31   C     C_R   0.905872 0.428169 0.584355 0.134957
C32   C     C_R   0.954077 0.516727 0.503583 0.045566
C33   C     C_2   0.768909 0.729908 0.378376 0.852010
C34   C     C_R   0.043265 0.335598 0.664724 -0.204624
C35   C     C_2   0.794767 0.867415 0.765040 0.425767
C36   C     C_2   0.392343 0.240257 0.801955 0.961981
C37   C     C_R   0.091800 0.421148 0.582907 0.114713
C38   C     C_R   0.047316 0.511426 0.500989 0.070277
C39   C     C_R   0.096274 0.596037 0.416414 0.120930
C40   C     C_R   0.052210 0.686035 0.336808 -0.217890
C41   C     C_R   0.959618 0.693649 0.341714 -0.153880
H1    H     H_    0.649642 0.232444 0.644767 0.161109
H2    H     H_    0.615434 0.616003 0.873777 0.171560
H3    H     H_    0.913388 0.270423 0.726920 0.140765
H4    H     H_    0.077038 0.266012 0.727585 0.150927
H5    H     H_    0.219509 0.350221 0.644186 0.179045
H6    H     H_    0.227599 0.653680 0.349225 0.149684
H7    H     H_    0.089370 0.750653 0.270812 0.152554
H8    H     H_    0.927885 0.762888 0.276313 0.176544
H9    H     H_    0.389300 0.113841 0.377035 0.144797
H10   H     H_    0.765560 0.920095 0.369102 0.346315
H11   H     H_    0.847149 0.920138 0.817213 0.053729
H12   H     H_    0.769717 0.118603 0.755480 0.124910
H13   H     H_    0.477214 0.095295 0.802319 0.346513
H14   H     H_    0.655323 0.767947 0.625282 0.168657
H15   H     H_    0.391250 0.885706 0.371047 0.148114
H16   H     H_    0.616263 0.614202 0.122206 0.205858
H17   H     H_    0.367863 0.343603 0.245193 0.198392
H18   H     H_    0.229180 0.293225 0.128013 0.166455
H19   H     H_    0.228730 0.288198 0.884859 0.162553
H20   H     H_    0.776322 0.358401 0.640433 0.138741
N1    N     N_R   0.499150 0.498800 0.142780 -0.123825
N2    N     N_R   0.499120 0.498720 0.857170 -0.123362
O1    O     O_R   0.500000 0.316780 0.614690 -0.608858
O2    O     O_R   0.802779 0.849733 0.409874 -0.802086
O3    O     O_2   0.799225 0.752749 0.761803 -0.577424
O4    O     O_2   0.343418 0.192420 0.716964 -0.677701
O5    O     O_R   0.470087 0.179595 0.845634 -0.793065
O6    O     O_R   0.499990 0.316750 0.385360 -0.638884
O7    O     O_R   0.367850 0.499980 0.614680 -0.617038
O8    O     O_R   0.367840 0.499960 0.385350 -0.650405
O9    O     O_R   0.500010 0.683250 0.614640 -0.628366
O10   O     O_R   0.500000 0.683220 0.385310 -0.586137
O11   O     O_R   0.632160 0.500040 0.614650 -0.630378
O12   O     O_R   0.632150 0.500020 0.385320 -0.579120
O13   O     O_2   0.701808 0.720120 0.307845 -0.642081
Zn1   Zn    Zn3+2 0.500010 0.500020 0.653130 0.972759
Zn2   Zn    Zn3+2 0.499990 0.499980 0.346870 0.973309

loop_
_geom_bond_atom_site_label_1
_geom_bond_atom_site_label_2
_ccdc_geom_bond_type
C27   C29   S    
C34   C37   A    
O1    Zn1   S    
C19   C20   A    
C16   O9    A    
C4    O7    A    
C36   O4    D    
C33   O2    S    
C7    C8    A    
C21   C36   S    
C2    H5    S    
C5    H6    S    
C37   C38   A    
C12   C28   A    
C18   C24   A    
C28   C29   A    
C30   C31   A    
H13   O5    S    
C10   C17   A    
C15   C17   A    
C18   C19   A    
H10   O2    S    
O9    Zn1   S    
C22   N2    A    
C18   H17   S    
C8    C9    A    
O11   Zn1   S    
O10   Zn2   S    
C9    H14   S    
C32   C38   A    
C20   H19   S    
C29   C30   A    
C9    C10   A    
C13   C14   A    
C12   C32   A    
O7    Zn1   S    
O6    Zn2   S    
C25   H16   S    
C27   O12   A    
C41   H8    S    
C26   H2    S    
C38   C39   A    
C16   O10   A    
C39   C40   A    
C16   C17   S    
C35   O3    D    
C19   H18   S    
C25   C26   A    
C1    O6    A    
C23   H3    S    
C8    C35   S    
C23   C31   A    
C26   N2    A    
C12   C41   A    
C33   O13   D    
C31   C32   A    
C23   C34   A    
C34   H4    S    
C40   C41   A    
C28   C33   S    
C5    C39   A    
C22   C24   A    
C1    C13   S    
C7    H12   S    
C3    C4    S    
C27   O11   A    
C1    O1    A    
C6    C11   A    
N2    Zn1   S    
C40   H7    S    
C24   N1    A    
N1    Zn2   S    
C3    C5    A    
C36   O5    S    
C6    C7    A    
C15   H15   S    
C2    C3    A    
C11   C13   A    
C2    C37   A    
C14   H9    S    
C25   N1    A    
O8    Zn2   S    
O12   Zn2   S    
C10   C11   A    
C20   C21   A    
C6    H1    S    
C30   H20   S    
C35   H11   S    
C14   C15   A    
C21   C22   A    
C4    O8    A    
