data_mof_unit_65217.cif
_audit_creation_date              2012-10-26T17:49:34-0400
_audit_creation_method            fapswitch 2.2
_symmetry_space_group_name_H-M    P1
_symmetry_Int_Tables_number       1
_space_group_crystal_system       triclinic
_cell_length_a                    21.755122
_cell_length_b                    21.746417
_cell_length_c                    22.398395
_cell_angle_alpha                 119.568404
_cell_angle_beta                  119.67337
_cell_angle_gamma                 90.145293
_cell_volume                      7568.74167967

loop_
_atom_site_label
_atom_site_type_symbol
_atom_type_description
_atom_site_fract_x
_atom_site_fract_y
_atom_site_fract_z
_atom_type_partial_charge
C1    C     C_R   0.498445 0.117043 0.496721 0.539000
C2    C     C_3   0.207598 0.711303 0.917308 0.044798
C3    C     C_3   0.829870 0.231161 0.050051 -0.168954
C4    C     C_3   0.230166 0.795308 0.951730 -0.167481
C5    C     C_3   0.782436 0.182531 0.952622 0.009452
C6    C     C_3   0.278062 0.844930 0.049173 0.009805
C7    C     C_1   0.839091 0.335561 0.174916 -0.078289
C8    C     C_1   0.161566 0.664512 0.825081 -0.078261
C9    C     C_1   0.664530 0.160654 0.824997 -0.076756
C10   C     C_1   0.336143 0.839362 0.174998 -0.077077
C11   C     C_1   0.626165 0.123839 0.749596 -0.037935
C12   C     C_R   0.501198 0.882606 0.502453 0.539051
C13   C     C_1   0.373996 0.876160 0.250396 -0.038149
C14   C     C_R   0.511556 0.122494 0.374862 -0.101965
C15   C     C_R   0.636413 0.880789 0.629152 -0.102297
C16   C     C_R   0.580341 0.079797 0.659863 0.545947
C17   C     C_R   0.419673 0.920201 0.340134 0.545434
C18   C     C_R   0.526993 0.128579 0.324215 -0.120072
C19   C     C_R   0.703223 0.876593 0.682680 -0.121308
C20   C     C_R   0.539333 0.196549 0.333726 -0.121226
C21   C     C_R   0.706547 0.809054 0.673930 -0.119492
C22   C     C_R   0.533561 0.258101 0.391781 -0.100611
C23   C     C_1   0.876206 0.373929 0.250339 -0.033361
C24   C     C_R   0.642384 0.746201 0.613694 -0.099389
C25   C     C_R   0.514949 0.252501 0.441569 0.027442
C26   C     C_R   0.573264 0.749697 0.561039 0.027305
C27   C     C_R   0.508014 0.184882 0.436272 0.026886
C28   C     C_R   0.571299 0.816907 0.565746 0.027392
C29   C     C_R   0.496616 0.181369 0.491728 0.003810
C30   C     C_R   0.504035 0.818495 0.507489 0.005713
C31   C     C_R   0.487595 0.242078 0.547249 -0.152224
C32   C     C_R   0.439143 0.756302 0.449542 -0.152669
C33   C     C_R   0.491204 0.307028 0.549974 -0.155426
C34   C     C_1   0.124159 0.626084 0.749656 -0.034271
C35   C     C_R   0.440258 0.691541 0.447242 -0.152292
C36   C     C_R   0.504314 0.312801 0.497552 0.000459
C37   C     C_R   0.506381 0.687572 0.502580 0.001023
C38   C     C_R   0.749626 0.446336 0.436245 -0.153712
C39   C     C_R   0.242323 0.560767 0.547406 -0.152582
C40   C     C_R   0.767864 0.629072 0.648244 -0.106795
C41   C     C_R   0.256906 0.356376 0.390657 -0.101921
C42   C     C_R   0.817803 0.502574 0.504705 0.012811
C43   C     C_R   0.181207 0.495159 0.491641 0.003576
C44   C     C_R   0.881270 0.499542 0.499228 0.537670
C45   C     C_3   0.711230 0.205656 0.917274 0.075707
C46   C     C_R   0.116931 0.498318 0.496758 0.538663
C47   C     C_R   0.920412 0.419689 0.340104 0.543269
C48   C     C_R   0.079753 0.580308 0.659894 0.543112
C49   C     C_R   0.620077 0.503805 0.501336 0.537874
C50   C     C_R   0.380563 0.497243 0.499342 0.546494
C51   C     C_R   0.502300 0.380696 0.499459 0.541252
C52   C     C_R   0.502703 0.619462 0.500635 0.545329
C53   C     C_R   0.759541 0.566343 0.576612 0.030578
C54   C     C_R   0.251818 0.425702 0.440970 0.024949
C55   C     C_R   0.894423 0.617737 0.646882 -0.097853
C56   C     C_3   0.290475 0.794387 0.082737 0.075229
C57   C     C_R   0.121671 0.361006 0.374505 -0.101518
C58   C     C_R   0.900587 0.677527 0.716451 -0.122011
C59   C     C_R   0.127323 0.293939 0.323528 -0.123750
C60   C     C_R   0.837362 0.683476 0.716812 -0.131321
C61   C     C_R   0.195080 0.291370 0.332585 -0.121544
C62   C     C_R   0.686268 0.449038 0.436423 -0.154187
C63   C     C_R   0.307261 0.559898 0.550110 -0.152665
C64   C     C_R   0.689639 0.507904 0.505339 -0.002420
C65   C     C_R   0.312556 0.493361 0.497277 0.000548
C66   C     C_R   0.824271 0.562346 0.575929 0.028837
C67   C     C_3   0.713841 0.245571 0.046714 -0.218566
C68   C     C_R   0.184326 0.427214 0.435919 0.027424
C69   C     C_3   0.664726 0.198822 0.949800 -0.209792
C70   C     C_3   0.327419 0.738102 0.048868 -0.210416
C71   C     C_3   0.738729 0.289499 0.952568 -0.237213
C72   C     C_3   0.212089 0.747895 0.046981 -0.236343
C73   C     C_3   0.786726 0.338291 0.049594 -0.224414
C74   C     C_3   0.163626 0.698916 0.949901 -0.225603
C75   C     C_3   0.280082 0.691293 0.952018 -0.217537
C76   C     C_3   0.793582 0.288873 0.082695 0.045592
Cu1   Cu    Cu3+1 0.438180 0.999990 0.500010 0.932332
Cu2   Cu    Cu3+1 0.561820 0.000010 0.499990 0.927282
Cu3   Cu    Cu3+1 0.000200 0.561800 0.499990 0.933500
Cu4   Cu    Cu3+1 0.999800 0.438200 0.500010 0.930204
Cu5   Cu    Cu3+1 0.541330 0.541310 0.582630 0.913949
Cu6   Cu    Cu3+1 0.458670 0.458690 0.417370 0.916106
H1    H     H_    0.842133 0.730501 0.770761 0.103939
H2    H     H_    0.313857 0.702068 0.931666 0.115809
H3    H     H_    0.887500 0.260851 0.075460 0.098695
H4    H     H_    0.178995 0.811036 0.927261 0.097186
H5    H     H_    0.478793 0.239577 0.589697 0.130167
H6    H     H_    0.387550 0.757544 0.404953 0.127793
H7    H     H_    0.501491 0.068286 0.364411 0.134330
H8    H     H_    0.636335 0.934613 0.638746 0.133698
H9    H     H_    0.530017 0.080488 0.277875 0.114159
H10   H     H_    0.752743 0.925739 0.730534 0.116776
H11   H     H_    0.552946 0.201510 0.295554 0.110277
H12   H     H_    0.199657 0.238856 0.294051 0.115109
H13   H     H_    0.758905 0.805408 0.714220 0.110549
H14   H     H_    0.544917 0.309947 0.397739 0.137384
H15   H     H_    0.647680 0.694767 0.607767 0.123399
H16   H     H_    0.722409 0.638832 0.654144 0.136274
H17   H     H_    0.308573 0.351190 0.396217 0.139913
H18   H     H_    0.482856 0.352880 0.592720 0.131175
H19   H     H_    0.388900 0.644424 0.402490 0.133024
H20   H     H_    0.634264 0.403921 0.382357 0.131102
H21   H     H_    0.353496 0.611786 0.593178 0.132023
H22   H     H_    0.745296 0.400482 0.381822 0.116407
H23   H     H_    0.817455 0.194140 0.933854 0.142733
H24   H     H_    0.240182 0.612830 0.590125 0.129479
H25   H     H_    0.945303 0.615227 0.649661 0.130200
H26   H     H_    0.067581 0.360356 0.364321 0.136315
H27   H     H_    0.954594 0.719514 0.770144 0.107889
H28   H     H_    0.079042 0.243616 0.277229 0.111914
H29   H     H_    0.687045 0.285489 0.070953 0.117708
H30   H     H_    0.265687 0.630688 0.926501 0.120641
H31   H     H_    0.616748 0.219417 0.928313 0.116494
H32   H     H_    0.332007 0.699733 0.069075 0.116186
H33   H     H_    0.772516 0.297466 0.930957 0.111039
H34   H     H_    0.245879 0.879987 0.068819 0.142157
H35   H     H_    0.183124 0.785812 0.069539 0.110214
H36   H     H_    0.690027 0.308541 0.928733 0.121210
H37   H     H_    0.217931 0.711281 0.069538 0.121364
H38   H     H_    0.760547 0.380122 0.072006 0.124473
H39   H     H_    0.146925 0.638922 0.926182 0.125283
H40   H     H_    0.843340 0.369826 0.074357 0.118506
H41   H     H_    0.111359 0.713200 0.926035 0.113807
H42   H     H_    0.730967 0.088225 0.934222 0.236371
H43   H     H_    0.736250 0.070479 0.854586 0.234574
H44   H     H_    0.381397 0.866307 0.067601 0.234465
H45   H     H_    0.835549 0.195349 0.073561 0.140675
H46   H     H_    0.378177 0.931827 0.147938 0.235110
H47   H     H_    0.261542 0.805204 0.928604 0.142985
H48   H     H_    0.640046 0.139495 0.923553 0.113321
H49   H     H_    0.385455 0.767388 0.075308 0.113418
H50   H     H_    0.717152 0.207785 0.067417 0.115348
N1    N     N_3   0.764902 0.102670 0.919612 -0.655898
N2    N     N_3   0.348134 0.896179 0.082838 -0.653983
O1    O     O_R   0.447780 0.090160 0.499990 -0.508909
O2    O     O_R   0.447800 0.909820 0.500020 -0.508654
O3    O     O_R   0.508070 0.060270 0.620570 -0.502192
O4    O     O_R   0.491930 0.939730 0.379430 -0.510556
O5    O     O_R   0.612490 0.060290 0.620560 -0.509695
O6    O     O_R   0.387510 0.939710 0.379440 -0.502760
O7    O     O_R   0.910000 0.552200 0.500000 -0.509648
O8    O     O_R   0.090000 0.447800 0.500000 -0.512566
O9    O     O_R   0.909970 0.447830 0.500020 -0.506116
O10   O     O_R   0.090030 0.552170 0.499980 -0.507436
O11   O     O_R   0.939920 0.491910 0.379430 -0.500082
O12   O     O_R   0.552220 0.909840 0.500010 -0.510914
O13   O     O_R   0.060080 0.508090 0.620570 -0.498336
O14   O     O_R   0.939890 0.387530 0.379440 -0.515089
O15   O     O_R   0.060110 0.612470 0.620560 -0.510972
O16   O     O_R   0.625100 0.534890 0.569750 -0.526732
O17   O     O_R   0.374900 0.465110 0.430250 -0.511845
O18   O     O_R   0.555310 0.465120 0.430190 -0.516483
O19   O     O_R   0.444690 0.534880 0.569810 -0.506216
O20   O     O_R   0.534910 0.444720 0.569790 -0.503874
O21   O     O_R   0.465090 0.555280 0.430210 -0.504298
O22   O     O_R   0.465120 0.374940 0.430230 -0.523614
O23   O     O_R   0.534880 0.625060 0.569770 -0.518889
O24   O     O_R   0.552200 0.090180 0.499980 -0.511444

loop_
_geom_bond_atom_site_label_1
_geom_bond_atom_site_label_2
_ccdc_geom_bond_type
C39   H24   S    
C20   H11   S    
C63   C65   A    
C51   O20   A    
C9    C45   S    
C40   C60   A    
C62   H20   S    
C27   C29   A    
C58   H27   S    
C14   C18   A    
C16   O3    A    
Cu1   O6    S    
C41   C61   A    
Cu2   O5    S    
C59   H28   S    
C47   O11   A    
Cu5   Cu6   S    
C46   O8    A    
C54   C65   A    
C5    H23   S    
Cu1   Cu2   S    
C70   H32   S    
C52   O21   A    
C15   C19   A    
C69   H31   S    
C75   H30   S    
H42   N1    S    
C18   H9    S    
C1    O24   A    
C35   C37   A    
C24   C26   A    
C38   C42   A    
C40   H16   S    
C53   C64   A    
C3    H45   S    
C75   H2    S    
C57   C59   A    
C4    H4    S    
C50   O19   A    
C58   C60   A    
Cu5   O16   S    
C32   H6    S    
C48   O13   A    
C33   C36   A    
Cu5   O19   S    
C12   O12   A    
C38   H22   S    
C19   H10   S    
Cu5   O23   S    
C50   O17   A    
Cu2   O24   S    
Cu4   O13   S    
C67   H50   S    
C44   O7    A    
C56   C72   S    
C22   C25   A    
C72   H35   S    
C62   C64   A    
C41   H17   S    
C17   O4    A    
Cu1   O2    S    
C14   C27   A    
C10   C56   S    
Cu6   O17   S    
C2    C74   S    
Cu3   O15   S    
Cu6   O22   S    
C74   H41   S    
C73   H38   S    
C48   O15   A    
C42   C44   S    
Cu2   O4    S    
C50   C65   S    
C51   O22   A    
C59   C61   A    
C23   C47   S    
C31   C33   A    
C45   C69   S    
C24   H15   S    
C49   O18   A    
C32   C35   A    
C31   H5    S    
C63   H21   S    
C6    C56   S    
C71   C73   S    
C37   C52   S    
C61   H12   S    
C69   H48   S    
C46   O10   A    
C21   H13   S    
C3    C5    S    
C5    C45   S    
Cu5   O20   S    
C55   H25   S    
C67   C69   S    
C2    C4    S    
C14   H7    S    
C53   C66   A    
H46   N2    S    
C11   C16   S    
Cu3   O10   S    
Cu4   O9    S    
C57   H26   S    
C1    C29   S    
C5    N1    S    
C71   H33   S    
C8    C34   T    
C3    C76   S    
C9    C11   T    
C6    H34   S    
C7    C76   S    
C36   C51   S    
Cu6   O21   S    
C49   O16   A    
C67   H29   S    
C20   C22   A    
C40   C53   A    
Cu4   O8    S    
C73   C76   S    
C3    H3    S    
C21   C24   A    
C4    C6    S    
C34   C48   S    
C57   C68   A    
C56   C70   S    
C55   C66   A    
C72   C74   S    
H43   N1    S    
C52   O23   A    
C47   O14   A    
C49   C64   S    
C71   H36   S    
C12   C30   S    
Cu3   O11   S    
C22   H14   S    
C2    C8    S    
Cu1   O3    S    
C35   H19   S    
C10   C13   T    
C39   C43   A    
C26   C37   A    
C4    H47   S    
C25   C27   A    
C39   C63   A    
C43   C68   A    
C26   C28   A    
C13   C17   S    
C33   H18   S    
C28   C30   A    
C6    N2    S    
C15   H8    S    
C30   C32   A    
C15   C28   A    
Cu3   O7    S    
C44   O9    A    
C7    C23   T    
C72   H37   S    
C70   H49   S    
C60   H1    S    
C17   O6    A    
C18   C20   A    
C43   C46   S    
C41   C54   A    
Cu2   O12   S    
C25   C36   A    
Cu3   Cu4   S    
C16   O5    A    
Cu4   O14   S    
C74   H39   S    
C54   C68   A    
H44   N2    S    
C29   C31   A    
C73   H40   S    
C12   O2    A    
C55   C58   A    
C70   C75   S    
C42   C66   A    
C45   C71   S    
C67   C76   S    
Cu1   O1    S    
C38   C62   A    
C1    O1    A    
Cu6   O18   S    
C2    C75   S    
C19   C21   A    
