data_mof_unit_62330.cif
_audit_creation_date              2012-12-10T21:32:45-0500
_audit_creation_method            fapswitch 2.2
_symmetry_space_group_name_H-M    P1
_symmetry_Int_Tables_number       1
_space_group_crystal_system       triclinic
_cell_length_a                    11.544993
_cell_length_b                    16.197736
_cell_length_c                    16.657495
_cell_angle_alpha                 86.761667
_cell_angle_beta                  91.118185
_cell_angle_gamma                 91.346575
_cell_volume                      3108.64823811

loop_
_atom_site_label
_atom_site_type_symbol
_atom_type_description
_atom_site_fract_x
_atom_site_fract_y
_atom_site_fract_z
_atom_type_partial_charge
C1    C     C_R   0.502873 0.488334 0.653252 0.898629
C2    C     C_R   0.497137 0.511666 0.346748 0.898633
C3    C     C_R   0.483061 0.407883 0.783539 -0.170572
C4    C     C_R   0.517075 0.592109 0.216464 -0.170598
C5    C     C_R   0.446080 0.763976 0.456870 0.327395
C6    C     C_R   0.553921 0.236023 0.543130 0.327396
C7    C     C_R   0.453539 0.851280 0.453997 0.264760
C8    C     C_R   0.546462 0.148720 0.546003 0.264761
C9    C     C_R   0.528073 0.891022 0.508915 0.204600
C10   C     C_R   0.471926 0.108978 0.491085 0.204602
C11   C     C_R   0.596009 0.841034 0.562055 -0.285810
C12   C     C_R   0.403990 0.158966 0.437945 -0.285811
C13   C     C_R   0.587891 0.754322 0.561616 -0.070616
C14   C     C_R   0.412109 0.245678 0.438384 -0.070617
C15   C     C_R   0.718079 0.499293 0.500078 0.912971
C16   C     C_R   0.281921 0.500707 0.499922 0.912985
C17   C     C_1   0.838475 0.498203 0.500028 -0.137181
C18   C     C_1   0.161525 0.501797 0.499972 -0.137184
C19   C     C_1   0.940659 0.499068 0.500009 0.040256
C20   C     C_1   0.059340 0.500932 0.499991 0.040257
C21   C     C_R   0.518544 0.480223 0.739950 -0.089363
C22   C     C_R   0.481544 0.519775 0.260043 -0.089370
C23   C     C_R   0.572295 0.545405 0.779443 -0.232812
C24   C     C_R   0.427853 0.454584 0.220530 -0.232797
C25   C     C_R   0.584179 0.540816 0.862434 0.285589
C26   C     C_R   0.416077 0.459158 0.137533 0.285590
C27   C     C_R   0.539524 0.470962 0.906435 0.261597
C28   C     C_R   0.460774 0.529008 0.093548 0.261598
C29   C     C_R   0.493620 0.403427 0.866900 -0.164014
C30   C     C_R   0.506623 0.596551 0.133098 -0.164052
H1    H     H_    0.395431 0.399840 0.254020 0.188356
H2    H     H_    0.604681 0.600153 0.745943 0.188347
H3    H     H_    0.460582 0.349290 0.900974 0.201649
H4    H     H_    0.539685 0.650688 0.099033 0.201630
H5    H     H_    0.443589 0.356387 0.753541 0.193565
H6    H     H_    0.556503 0.643612 0.246477 0.193566
H7    H     H_    0.655912 0.869381 0.603701 0.219081
H8    H     H_    0.344088 0.130619 0.396300 0.219079
H9    H     H_    0.641659 0.716880 0.602451 0.170514
H10   H     H_    0.358341 0.283120 0.397550 0.170516
N1    N     N_2   0.529854 0.470739 0.990083 -0.122740
N2    N     N_2   0.470476 0.529240 0.009902 -0.122753
N3    N     N_R   0.513820 0.716920 0.509720 -0.139010
N4    N     N_R   0.486180 0.283080 0.490280 -0.139009
N5    N     N_2   0.543739 0.979290 0.509713 -0.064125
N6    N     N_2   0.456261 0.020710 0.490287 -0.064125
O1    O     O_R   0.495050 0.422540 0.612660 -0.585232
O2    O     O_R   0.504950 0.577460 0.387340 -0.585231
O3    O     O_R   0.503930 0.561840 0.618900 -0.623933
O4    O     O_R   0.496070 0.438160 0.381100 -0.623937
O5    O     O_R   0.661110 0.430350 0.496870 -0.570584
O6    O     O_R   0.338890 0.569650 0.503130 -0.570582
O7    O     O_R   0.669990 0.569650 0.503110 -0.619677
O8    O     O_R   0.330010 0.430350 0.496890 -0.619671
Zn1   Zn    Zn3+2 0.494070 0.406980 0.495830 1.006789
Zn2   Zn    Zn3+2 0.505930 0.593020 0.504170 1.006787
Br1   Br    Br    0.340081 0.368840 0.086451 -0.440354
Br2   Br    Br    0.660235 0.631126 0.913492 -0.440314
Br3   Br    Br    0.660955 0.287520 0.615861 -0.364373
Br4   Br    Br    0.339046 0.712480 0.384139 -0.364358
Cl1   Cl    Cl    0.623559 0.091941 0.622930 -0.495349
Cl2   Cl    Cl    0.376442 0.908059 0.377070 -0.495347

loop_
_geom_bond_atom_site_label_1
_geom_bond_atom_site_label_2
_ccdc_geom_bond_type
C2    C22   S    
C4    H6    S    
C7    Cl2   S    
C1    C21   S    
C11   H7    S    
C15   O5    A    
C25   C27   A    
O3    Zn2   S    
C4    C22   A    
N1    N2    D    
C27   N1    S    
C14   N4    A    
C26   C28   A    
O4    Zn1   S    
C3    H5    S    
C8    Cl1   S    
C23   H2    S    
C16   O8    A    
C28   C30   A    
C5    N3    A    
C24   H1    S    
C5    C7    A    
C6    N4    A    
N5    N6    D    
C9    N5    S    
C11   C13   A    
N4    Zn1   S    
C3    C29   A    
C16   O6    A    
C10   C12   A    
C15   C17   S    
C15   O7    A    
C16   C18   S    
C17   C19   T    
C12   C14   A    
O5    Zn1   S    
C9    C11   A    
C21   C23   A    
C12   H8    S    
C26   Br1   S    
C22   C24   A    
C13   H9    S    
C3    C21   A    
C25   Br2   S    
C30   H4    S    
C14   H10   S    
C29   H3    S    
N3    Zn2   S    
C13   N3    A    
C23   C25   A    
C27   C29   A    
C18   C20   T    
C7    C9    A    
O7    Zn2   S    
C28   N2    S    
O2    Zn2   S    
O1    Zn1   S    
O8    Zn1   S    
C1    O1    A    
C6    C8    A    
C2    O4    A    
C5    Br4   S    
C2    O2    A    
C10   N6    S    
O6    Zn2   S    
C1    O3    A    
C6    Br3   S    
C8    C10   A    
C4    C30   A    
C19   C20   S    
C24   C26   A    
