data_mof_unit_9768.cif
_audit_creation_date              2012-12-11T17:34:23-0500
_audit_creation_method            fapswitch 2.2
_symmetry_space_group_name_H-M    P1
_symmetry_Int_Tables_number       1
_space_group_crystal_system       triclinic
_cell_length_a                    23.81128
_cell_length_b                    7.219112
_cell_length_c                    20.627653
_cell_angle_alpha                 89.857951
_cell_angle_beta                  105.416663
_cell_angle_gamma                 89.877707
_cell_volume                      3418.207193

loop_
_atom_site_label
_atom_site_type_symbol
_atom_type_description
_atom_site_fract_x
_atom_site_fract_y
_atom_site_fract_z
_atom_type_partial_charge
O1    O     O_R   0.449110 0.494310 0.552140 -0.537843
O2    O     O_R   0.550890 0.994310 0.447860 -0.537719
O3    O     O_R   0.440010 0.824420 0.415850 -0.533838
O4    O     O_R   0.559990 0.324420 0.584150 -0.533747
C1    C     C_R   0.425240 0.656015 0.390992 0.683083
C2    C     C_R   0.574650 0.155194 0.609036 0.682866
O5    O     O_R   0.442260 0.824040 0.549660 -0.540283
O6    O     O_R   0.557740 0.324040 0.450340 -0.540284
O7    O     O_R   0.553160 0.993960 0.582620 -0.531246
O8    O     O_R   0.446840 0.493960 0.417380 -0.531340
C3    C     C_R   0.428753 0.655225 0.567782 0.678208
C4    C     C_R   0.571440 0.155189 0.432486 0.677886
O9    O     O_3   0.536380 0.660670 0.510660 -0.372580
O10   O     O_3   0.463620 0.160670 0.489340 -0.372810
V1    V     V_3+5 0.493250 0.935680 0.498020 1.408336
V2    V     V_3+5 0.506750 0.435680 0.501980 1.407834
C5    C     C_R   0.839210 0.917442 0.188633 -0.142571
C6    C     C_R   0.196422 0.433248 0.856467 -0.138752
H1    H     H_    0.836339 0.800032 0.220398 0.118946
H2    H     H_    0.230045 0.328123 0.863353 0.120745
C7    C     C_R   0.877818 0.910155 0.147848 -0.206142
C8    C     C_R   0.156034 0.425204 0.895087 -0.215355
H3    H     H_    0.904161 0.786760 0.149727 0.130843
H4    H     H_    0.159799 0.313968 0.931340 0.134784
C9    C     C_R   0.883616 0.061128 0.106560 -0.062317
C10   C     C_R   0.111983 0.560402 0.888059 -0.062557
C11   C     C_R   0.847642 0.220327 0.105786 0.133768
C12   C     C_R   0.108567 0.703704 0.839369 0.158153
C13   C     C_R   0.809195 0.224787 0.147248 -0.134101
C14   C     C_R   0.149578 0.709501 0.801184 -0.132395
H5    H     H_    0.782279 0.346112 0.147338 0.112670
H6    H     H_    0.147210 0.818692 0.764345 0.114659
C15   C     C_R   0.805166 0.075453 0.188986 0.089755
C16   C     C_R   0.193552 0.576083 0.809642 0.084781
C17   C     C_1   0.766060 0.086693 0.232168 -0.051465
C18   C     C_1   0.235091 0.587074 0.769423 -0.050096
C19   C     C_1   0.733109 0.099478 0.267819 -0.062185
C20   C     C_1   0.268974 0.599767 0.734888 -0.061962
C21   C     C_R   0.670540 0.955080 0.331884 -0.141325
C22   C     C_R   0.331603 0.455315 0.670869 -0.141401
H7    H     H_    0.682821 0.819390 0.317828 0.106065
H8    H     H_    0.319593 0.319629 0.685265 0.106284
C23   C     C_R   0.631430 0.968639 0.371798 -0.168056
C24   C     C_R   0.370013 0.468804 0.630084 -0.167893
H9    H     H_    0.614654 0.841667 0.387431 0.125847
H10   H     H_    0.386662 0.341793 0.614305 0.125517
C25   C     C_R   0.614114 0.142910 0.390886 -0.052116
C26   C     C_R   0.386740 0.643038 0.610238 -0.051728
C27   C     C_R   0.637531 0.303151 0.368955 -0.170003
C28   C     C_R   0.363570 0.803324 0.632471 -0.170131
H11   H     H_    0.625387 0.439571 0.382350 0.121453
H12   H     H_    0.375310 0.939722 0.618561 0.121214
C29   C     C_R   0.676732 0.289060 0.328890 -0.136984
C30   C     C_R   0.325056 0.789303 0.673391 -0.136981
H13   H     H_    0.693907 0.414238 0.312385 0.106003
H14   H     H_    0.307870 0.914512 0.689864 0.106431
C31   C     C_R   0.693325 0.114910 0.310047 0.131022
C32   C     C_R   0.308972 0.615181 0.692892 0.130715
C33   C     C_R   0.640489 0.148065 0.796404 -0.158415
C34   C     C_R   0.357176 0.697465 0.204665 -0.159565
H15   H     H_    0.554387 0.177365 0.730928 0.105544
H16   H     H_    0.443172 0.726330 0.270143 0.106693
H17   H     H_    0.723953 0.121611 0.910370 0.128085
H18   H     H_    0.272737 0.697408 0.091235 0.126053
H19   H     H_    0.624974 0.158118 0.841140 0.114210
H20   H     H_    0.371631 0.730983 0.160454 0.114019
C35   C     C_R   0.618405 0.145647 0.674915 -0.033390
C36   C     C_R   0.381276 0.650710 0.325162 -0.035227
C37   C     C_R   0.903136 0.050599 0.767467 -0.168143
C38   C     C_R   0.098451 0.511208 0.231875 -0.160220
C39   C     C_R   0.865287 0.060112 0.703366 -0.117311
C40   C     C_R   0.136898 0.506228 0.295710 -0.118881
C41   C     C_R   0.805486 0.079164 0.694586 -0.156500
C42   C     C_R   0.196032 0.540917 0.304750 -0.157129
C43   C     C_R   0.781667 0.089745 0.750407 0.076832
C44   C     C_R   0.218564 0.582427 0.249499 0.077055
C45   C     C_R   0.820990 0.079130 0.816418 0.071076
C46   C     C_R   0.178517 0.589390 0.183837 0.069669
C47   C     C_R   0.720291 0.111658 0.742887 0.073195
C48   C     C_R   0.279398 0.616944 0.257235 0.072915
C49   C     C_R   0.700089 0.124211 0.801674 0.137566
C50   C     C_R   0.298264 0.659678 0.199093 0.138225
C51   C     C_R   0.739331 0.112801 0.865498 -0.198769
C52   C     C_R   0.258339 0.665391 0.135616 -0.200584
C53   C     C_R   0.798679 0.089859 0.872833 -0.193762
C54   C     C_R   0.199558 0.630388 0.127986 -0.193481
C55   C     C_R   0.678013 0.121905 0.679342 -0.212484
C56   C     C_R   0.322384 0.611590 0.320385 -0.213318
C57   C     C_R   0.600143 0.159147 0.733672 -0.165404
C58   C     C_R   0.398099 0.694387 0.267090 -0.164602
C59   C     C_R   0.881991 0.058700 0.824435 -0.076462
C60   C     C_R   0.118214 0.553016 0.175519 -0.079514
H21   H     H_    0.689762 0.111836 0.632503 0.093469
H22   H     H_    0.311587 0.580239 0.366730 0.094944
H23   H     H_    0.949417 0.038090 0.772644 0.110566
H24   H     H_    0.052797 0.481833 0.226328 0.104520
H25   H     H_    0.779154 0.086374 0.643371 0.108922
H26   H     H_    0.222945 0.533986 0.355705 0.108973
H27   H     H_    0.882528 0.053447 0.659860 0.120244
H28   H     H_    0.120728 0.474138 0.338775 0.119981
H29   H     H_    0.827104 0.081019 0.923330 0.105174
H30   H     H_    0.170586 0.636173 0.077705 0.113149
O11   O     O_R   0.053190 0.709680 0.082610 -0.531257
O12   O     O_R   0.946810 0.209680 0.917390 -0.531067
O13   O     O_R   0.057740 0.380240 0.950340 -0.540053
O14   O     O_R   0.942260 0.880240 0.049660 -0.540433
C61   C     C_R   0.070506 0.549154 0.931341 0.685859
C62   C     C_R   0.927608 0.049648 0.066323 0.682563
O15   O     O_R   0.060000 0.379940 0.084150 -0.532301
O16   O     O_R   0.940000 0.879940 0.915850 -0.532902
O17   O     O_R   0.949110 0.210100 0.052140 -0.532273
O18   O     O_R   0.050890 0.710100 0.947860 -0.531493
C63   C     C_R   0.074820 0.547974 0.109003 0.676123
C64   C     C_R   0.925253 0.048878 0.890974 0.677364
O19   O     O_3   0.963630 0.543720 0.989330 -0.372473
O20   O     O_3   0.036370 0.043720 0.010670 -0.370706
V3    V     V_3+5 0.006750 0.268680 0.001980 1.407718
V4    V     V_3+5 0.993250 0.768680 0.998020 1.404839
C65   C     C_3   0.848012 0.385682 0.060963 -0.735592
H31   H     H_    0.811908 0.483566 0.060807 0.190065
H32   H     H_    0.889347 0.463361 0.079184 0.220812
H33   H     H_    0.842543 0.340147 0.008299 0.202979
C66   C     C_3   0.060880 0.847840 0.825058 -0.768237
H34   H     H_    0.060388 0.930500 0.779411 0.188888
H35   H     H_    0.017801 0.779423 0.816297 0.200965
H36   H     H_    0.067452 0.945945 0.867745 0.223033

loop_
_geom_bond_atom_site_label_1
_geom_bond_atom_site_label_2
_ccdc_geom_bond_type
O18   V4    S    
C11   C13   A    
C61   O18   A    
C55   H21   S    
C29   H13   S    
C38   H24   S    
O1    C3    A    
O2    C4    A    
O16   V4    S    
C2    O7    A    
C47   C55   A    
C12   C66   S    
O15   V3    S    
C66   H34   S    
C25   C27   A    
C41   H25   S    
O13   C61   A    
C28   C30   A    
C42   C44   A    
C17   C19   T    
C44   C46   A    
C1    C36   S    
C40   H28   S    
C66   H35   S    
C21   C31   A    
C13   C15   A    
C35   C57   A    
O20   V3    S    
C33   C57   A    
C37   C39   A    
H18   C52   S    
C53   H29   S    
C5    H1    S    
C20   C32   S    
C34   C50   A    
C24   H10   S    
C27   H11   S    
C36   C58   A    
C23   C25   A    
C60   C63   S    
O16   C64   A    
C16   C18   S    
O15   C63   A    
C46   C54   A    
C26   C28   A    
C34   H20   S    
O6    V2    S    
O14   V4    S    
C41   C43   A    
O13   V3    S    
C3    C26   S    
C5    C15   A    
C4    C25   S    
C49   C51   A    
H15   C57   S    
C56   H22   S    
C65   H32   S    
C30   H14   S    
C22   C32   A    
C14   C16   A    
C44   C48   A    
C34   C58   A    
C40   C42   A    
C39   C41   A    
C29   C31   A    
C66   H36   S    
C21   C23   A    
O5    V1    S    
O3    C1    A    
C39   H27   S    
C5    C7    A    
H17   C51   S    
O4    V2    S    
O5    C3    A    
C43   C45   A    
C28   H12   S    
O6    C4    A    
O19   V4    S    
O1    V2    S    
O2    V1    S    
C6    C16   A    
O12   C64   A    
C48   C50   A    
C2    C35   S    
C51   C53   A    
C50   C52   A    
C7    H3    S    
C36   C56   A    
C8    H4    S    
O4    C2    A    
C18   C20   T    
C54   H30   S    
O3    V1    S    
C47   C49   A    
O12   V3    S    
C30   C32   A    
C65   H33   S    
C7    C9    A    
C45   C59   A    
C42   H26   S    
O11   C63   A    
C6    C8    A    
C10   C12   A    
C38   C60   A    
C33   C49   A    
C52   C54   A    
C37   H23   S    
C10   C61   S    
C65   H31   S    
C62   O17   A    
C11   C65   S    
C9    C11   A    
C35   C55   A    
C59   C64   S    
O17   V3    S    
C46   C60   A    
C12   C14   A    
O7    V1    S    
C1    O8    A    
C13   H5    S    
O8    V2    S    
C33   H19   S    
C14   H6    S    
O14   C62   A    
C27   C29   A    
H16   C58   S    
C22   H8    S    
C15   C17   S    
C6    H2    S    
C45   C53   A    
O11   V4    S    
C22   C24   A    
C21   H7    S    
C48   C56   A    
C8    C10   A    
O9    V2    S    
O10   V1    S    
C38   C40   A    
C37   C59   A    
C43   C47   A    
C23   H9    S    
C19   C31   S    
C24   C26   A    
C9    C62   S    
