data_mof_unit_32364.cif
_audit_creation_date              2013-03-05T15:47:14-0500
_audit_creation_method            fapswitch 2.2
_symmetry_space_group_name_H-M    P1
_symmetry_Int_Tables_number       1
_space_group_crystal_system       triclinic
_cell_length_a                    27.815844
_cell_length_b                    11.062311
_cell_length_c                    9.90845
_cell_angle_alpha                 109.364451
_cell_angle_beta                  98.098279
_cell_angle_gamma                 93.559469
_cell_volume                      2828.35539625

loop_
_atom_site_label
_atom_site_type_symbol
_atom_site_description
_atom_site_fract_x
_atom_site_fract_y
_atom_site_fract_z
_atom_type_partial_charge
O1    O     O_R   0.504520 0.332330 0.577400 -0.532359
O2    O     O_R   0.495480 0.667670 0.422600 -0.532783
O3    O     O_R   0.490210 0.295500 0.332650 -0.559686
O4    O     O_R   0.509790 0.704500 0.667350 -0.530989
C1    C     C_R   0.497693 0.256254 0.443306 0.902200
C2    C     C_R   0.504098 0.745330 0.556570 0.849200
O5    O     O_R   0.437420 0.518430 0.622370 -0.550772
O6    O     O_R   0.562580 0.481570 0.377630 -0.583909
O7    O     O_R   0.423110 0.481600 0.377610 -0.546133
O8    O     O_R   0.576890 0.518400 0.622390 -0.522766
C3    C     C_R   0.407741 0.499181 0.500202 0.847086
C4    C     C_R   0.592443 0.500874 0.499545 0.860582
Cu1   Cu    Cu3+1 0.508480 0.521810 0.644910 1.194290
Cu2   Cu    Cu3+1 0.491520 0.478190 0.355090 1.157355
C5    C     C_R   0.172482 0.390736 0.466016 0.632564
C6    C     C_R   0.830563 0.615171 0.581261 0.634857
O9    O     O_2   0.188463 0.284643 0.378937 -0.430812
O10   O     O_2   0.811266 0.727839 0.605351 -0.428467
N1    N     N_R   0.202864 0.504252 0.522470 -0.444024
N2    N     N_R   0.800338 0.501322 0.523244 -0.444808
C7    C     C_R   0.185810 0.616748 0.595939 0.627783
C8    C     C_R   0.819298 0.385809 0.483421 0.623827
C9    C     C_R   0.277876 0.586640 0.453161 0.363833
C10   C     C_R   0.715826 0.434133 0.379892 0.357865
C11   C     C_R   0.328720 0.587593 0.453369 -0.238059
C12   C     C_R   0.664795 0.427343 0.377725 -0.217862
C13   C     C_R   0.329236 0.406220 0.542232 0.317448
C14   C     C_R   0.678804 0.580184 0.626969 0.306993
C15   C     C_R   0.280346 0.415801 0.556722 -0.172229
C16   C     C_R   0.728817 0.572678 0.633246 -0.161573
C17   C     C_R   0.254074 0.503071 0.510792 0.156413
C18   C     C_R   0.747960 0.503330 0.510974 0.160234
C19   C     C_R   0.104824 0.501688 0.554668 -0.083766
C20   C     C_R   0.901505 0.498588 0.554277 -0.084066
C21   C     C_R   0.124559 0.384837 0.495901 -0.146951
C22   C     C_R   0.881571 0.615128 0.612965 -0.147303
C23   C     C_R   0.096374 0.266368 0.471430 0.318207
C24   C     C_R   0.912884 0.726947 0.702772 0.321954
C25   C     C_R   0.135350 0.620260 0.600630 -0.041596
C26   C     C_R   0.869922 0.382499 0.482963 -0.040985
C27   C     C_R   0.354657 0.498162 0.499572 -0.203241
C28   C     C_R   0.645883 0.503715 0.500156 -0.198417
H1    H     H_    0.261519 0.349701 0.596990 0.224670
H2    H     H_    0.753487 0.625981 0.733417 0.222096
C29   C     C_R   0.972742 0.381709 0.503500 0.071598
C30   C     C_R   0.034388 0.617376 0.621072 0.072911
C31   C     C_R   0.984196 0.615291 0.636391 -0.044000
C32   C     C_R   0.024358 0.380600 0.519126 -0.045490
C33   C     C_R   0.952917 0.498500 0.565219 0.085461
C34   C     C_R   0.054475 0.499859 0.565516 0.085661
C35   C     C_R   0.940349 0.271090 0.418743 -0.201495
C36   C     C_R   0.064268 0.733738 0.650366 -0.201680
C37   C     C_R   0.889967 0.268840 0.411855 -0.048089
C38   C     C_R   0.114168 0.736894 0.646640 -0.047843
O11   O     O_2   0.789301 0.275162 0.446642 -0.472554
O12   O     O_2   0.217699 0.723768 0.665135 -0.475950
C39   C     C_R   0.047285 0.265418 0.491037 -0.152917
C40   C     C_R   0.963838 0.724560 0.720414 -0.157001
H3    H     H_    0.953725 0.186083 0.350985 0.162661
H4    H     H_    0.048778 0.824014 0.670713 0.160768
C41   C     C_2   0.496127 0.120299 0.418020 -0.282605
C42   C     C_2   0.509237 0.884114 0.582041 -0.302571
C43   C     C_2   0.522963 0.072413 0.508615 0.260316
C44   C     C_2   0.513818 0.933164 0.475530 0.245860
H5    H     H_    0.511479 0.948604 0.693137 0.213169
H6    H     H_    0.469461 0.057745 0.326483 0.197004
N3    N     N_2   0.478780 0.445430 0.137360 -0.122358
N4    N     N_2   0.521220 0.554570 0.862640 -0.119842
C45   C     C_2   0.509644 0.496577 0.075897 0.382241
C46   C     C_2   0.501146 0.474283 0.916663 0.389416
N5    N     N_R   0.350919 0.296049 0.558220 0.178610
O13   O     O_R   0.335036 0.238268 0.641189 -0.230877
O14   O     O_R   0.379558 0.238759 0.469837 -0.322788
N6    N     N_R   0.662354 0.669734 0.748755 0.170233
O15   O     O_R   0.633306 0.752236 0.728386 -0.273840
O16   O     O_R   0.682794 0.684194 0.880492 -0.232811
N7    N     N_R   0.479812 0.348046 0.824083 0.118160
O17   O     O_R   0.497126 0.247944 0.845107 -0.315687
O18   O     O_R   0.436164 0.333676 0.750773 -0.250521
N8    N     N_R   0.558399 0.550241 0.150588 0.110635
O19   O     O_R   0.595269 0.512632 0.086145 -0.309563
O20   O     O_R   0.565620 0.656216 0.261881 -0.260182
N9    N     N_R   0.528178 0.683727 0.949797 0.252340
O21   O     O_R   0.571007 0.748254 0.972985 -0.169708
O22   O     O_R   0.490258 0.746706 0.968393 -0.258072
N10   N     N_R   0.430104 0.414471 0.068844 0.249428
O23   O     O_R   0.404444 0.316530 0.078984 -0.229723
O24   O     O_R   0.407543 0.497069 0.023318 -0.291689
N11   N     N_R   0.118489 0.148173 0.440621 0.161200
O25   O     O_R   0.098413 0.046415 0.331451 -0.292766
O26   O     O_R   0.155932 0.138727 0.529883 -0.281440
N12   N     N_R   0.893312 0.839401 0.787369 0.163235
O27   O     O_R   0.866333 0.831261 0.881943 -0.286483
O28   O     O_R   0.906662 0.952045 0.781153 -0.296359
C47   C     C_1   0.632378 0.338468 0.251639 0.498301
N13   N     N_1   0.606503 0.266788 0.151262 -0.116176
C48   C     C_1   0.353923 0.678011 0.402328 0.424884
N14   N     N_1   0.373976 0.750525 0.361708 -0.133761
N15   N     N_R   0.735160 0.374315 0.249277 0.150451
O29   O     O_R   0.720465 0.254817 0.168637 -0.252789
O30   O     O_R   0.769258 0.437993 0.213880 -0.296463
N16   N     N_R   0.250152 0.666514 0.390602 0.148755
O31   O     O_R   0.264990 0.788489 0.425004 -0.251609
O32   O     O_R   0.209024 0.618166 0.302173 -0.308607
C49   C     C_1   0.860208 0.149973 0.321120 0.426649
N17   N     N_1   0.836556 0.054721 0.248288 -0.105055
C50   C     C_1   0.141452 0.862296 0.682803 0.430407
N18   N     N_1   0.163177 0.962832 0.712162 -0.106262
C51   C     C_1   0.024204 0.151093 0.507775 0.345629
N19   N     N_1   0.005992 0.059919 0.521594 -0.223108
C52   C     C_1   0.993582 0.825168 0.843123 0.344652
N20   N     N_1   0.017160 0.905351 0.941405 -0.187085
N21   N     N_R   0.508413 0.854902 0.324835 0.156707
O33   O     O_R   0.539519 0.882183 0.249631 -0.234380
O34   O     O_R   0.465672 0.794571 0.256243 -0.287372
N22   N     N_R   0.564489 0.147266 0.615561 0.174153
O35   O     O_R   0.581262 0.111277 0.723816 -0.252436
O36   O     O_R   0.591609 0.233912 0.588719 -0.335384

loop_
_geom_bond_atom_site_label_1
_geom_bond_atom_site_label_2
_geom_bond_distance
_ccdc_geom_bond_type
C24   N12   1.437950 S    
C13   C15   1.394267 A    
C10   N15   1.440269 S    
C52   N20   1.157698 T    
N1    C17   1.445813 S    
C48   N14   1.156901 T    
C32   C39   1.422479 A    
C31   C33   1.416631 A    
N7    O17   1.300966 A    
O5    C3    1.310659 A    
C19   C25   1.416161 A    
N6    O16   1.301465 A    
C38   C50   1.446310 S    
O1    C1    1.295070 A    
N1    C7    1.368753 A    
C10   C12   1.413556 A    
N10   O24   1.302680 A    
C25   C38   1.414106 A    
C29   C35   1.408177 A    
C30   C36   1.408340 A    
N22   O35   1.300753 A    
O4    Cu1   1.955935 S    
C41   C43   1.348800 D    
C4    C28   1.483969 S    
C36   H4    1.080729 S    
N16   O31   1.301316 A    
C24   C40   1.406417 A    
C41   H6    1.087267 S    
C39   C51   1.451698 S    
C47   N13   1.157775 T    
N3    N10   1.393073 S    
C42   C44   1.354066 D    
Cu2   N3    2.039933 S    
N11   O26   1.301213 A    
N9    O22   1.301051 A    
C6    N2    1.369564 A    
C32   C34   1.416225 A    
C14   N6    1.437357 S    
Cu1   Cu2   2.715326 S    
C15   H1    1.083031 S    
C46   N7    1.427574 S    
C16   H2    1.083271 S    
O2    C2    1.298506 A    
C5    C21   1.407879 A    
C36   C38   1.392292 A    
N7    O18   1.295356 A    
N6    O15   1.301671 A    
C40   C52   1.451325 S    
N8    O20   1.296838 A    
C11   C27   1.415896 A    
N5    O14   1.301690 A    
N10   O23   1.299917 A    
C19   C34   1.419033 A    
N3    C45   1.320440 D    
C9    C17   1.414077 A    
C5    N1    1.368665 A    
O7    Cu2   1.948108 S    
C10   C18   1.414382 A    
C13   C27   1.411798 A    
N9    O21   1.300040 A    
C7    C25   1.413408 A    
C29   C33   1.416614 A    
O6    C4    1.311120 A    
C8    C26   1.411494 A    
N12   O28   1.301666 A    
C1    C41   1.437193 S    
N16   O32   1.301312 A    
O7    C3    1.302317 A    
O3    Cu2   1.955934 S    
O8    C4    1.307146 A    
C43   N22   1.448207 S    
C11   C48   1.447743 S    
N15   O30   1.301317 A    
N2    C8    1.369182 A    
C20   C26   1.415468 A    
O4    C2    1.312483 A    
C35   H3    1.081023 S    
C50   N18   1.157234 T    
C22   C24   1.413672 A    
C13   N5    1.437560 S    
C12   C28   1.420361 A    
N21   O33   1.301279 A    
N2    C18   1.446994 S    
C29   C32   1.423488 A    
C12   C47   1.448599 S    
C5    O9    1.349367 S    
C30   C31   1.425038 A    
C20   C33   1.418946 A    
O6    Cu2   1.954255 S    
C44   N21   1.437007 S    
C42   H5    1.085789 S    
C21   C23   1.413886 A    
N4    N9    1.387430 S    
N8    O19   1.301507 A    
O3    C1    1.302522 A    
O8    Cu1   1.948113 S    
C7    O12   1.348507 S    
C8    O11   1.348679 S    
C49   N17   1.157499 T    
C30   C34   1.416881 A    
N15   O29   1.301317 A    
C23   N11   1.438501 S    
C2    C42   1.465203 S    
C14   C16   1.392631 A    
N5    O13   1.302034 A    
C15   C17   1.399430 A    
C51   N19   1.157727 T    
C6    C22   1.409406 A    
C31   C40   1.423153 A    
C16   C18   1.398569 A    
C14   C28   1.416952 A    
N12   O27   1.301956 A    
C19   C21   1.410793 A    
N22   O36   1.301660 A    
C3    C27   1.475052 S    
C20   C22   1.410710 A    
C9    C11   1.413360 A    
C45   C46   1.495218 S    
O2    Cu2   1.968229 S    
C43   C44   1.462205 S    
C9    N16   1.439712 S    
C37   C49   1.446996 S    
O5    Cu1   1.954255 S    
O1    Cu1   1.968229 S    
C6    O10   1.349218 S    
C26   C37   1.413666 A    
N4    C46   1.313413 D    
C45   N8    1.437080 S    
C35   C37   1.391712 A    
N11   O25   1.301287 A    
C23   C39   1.405920 A    
N21   O34   1.301454 A    
Cu1   N4    2.039935 S    
