data_mof_unit_36480.cif
_audit_creation_date              2012-12-10T17:56:44-0500
_audit_creation_method            fapswitch 2.2
_symmetry_space_group_name_H-M    P1
_symmetry_Int_Tables_number       1
_space_group_crystal_system       triclinic
_cell_length_a                    10.826021
_cell_length_b                    9.517715
_cell_length_c                    10.779622
_cell_angle_alpha                 90.018645
_cell_angle_beta                  90.139629
_cell_angle_gamma                 90.002087
_cell_volume                      1110.7179244

loop_
_atom_site_label
_atom_site_type_symbol
_atom_type_description
_atom_site_fract_x
_atom_site_fract_y
_atom_site_fract_z
_atom_type_partial_charge
C1    C     C_R   0.262062 0.499732 0.497891 0.848806
C2    C     C_R   0.737733 0.499981 0.496579 0.820008
C3    C     C_R   0.935214 0.386536 0.434203 0.424593
C4    C     C_R   0.063940 0.383891 0.439118 0.415582
C5    C     C_R   0.423615 0.074458 0.577168 0.007813
C6    C     C_R   0.576233 0.074358 0.422732 0.002050
C7    C     C_R   0.423600 0.925611 0.577154 -0.018256
C8    C     C_R   0.576409 0.925554 0.422861 -0.019691
C9    C     C_R   0.504750 0.500038 0.262460 0.761582
C10   C     C_R   0.505022 0.500040 0.737452 0.785319
C11   C     C_R   0.699810 0.652266 0.129618 -0.403064
C12   C     C_R   0.698998 0.653197 0.870951 -0.372567
C13   C     C_R   0.792164 0.725088 0.065162 0.472472
C14   C     C_R   0.788740 0.730633 0.935553 0.469833
C15   C     C_R   0.605750 0.578713 0.934628 0.036561
C16   C     C_R   0.605776 0.578753 0.065677 0.034235
C17   C     C_R   0.514525 0.499720 0.128718 -0.046272
C18   C     C_R   0.514610 0.499646 0.871089 -0.043358
C19   C     C_R   0.430964 0.416070 0.063397 -0.211368
C20   C     C_R   0.430683 0.416319 0.935654 -0.207944
C21   C     C_R   0.063558 0.616034 0.535342 -0.240412
C22   C     C_R   0.936006 0.615918 0.535349 -0.233924
C23   C     C_R   0.871296 0.500411 0.488137 -0.219530
C24   C     C_R   0.128103 0.499225 0.490874 -0.221590
Cu1   Cu    Cu3+1 0.500000 0.640660 0.500000 0.935246
Cu2   Cu    Cu3+1 0.500000 0.359340 0.500000 0.966393
H1    H     H_    0.363653 0.352448 0.111474 0.133442
H2    H     H_    0.362579 0.353571 0.886774 0.144770
H3    H     H_    0.704809 0.651757 0.229697 0.176867
H4    H     H_    0.705661 0.649273 0.771035 0.181482
H5    H     H_    0.111724 0.705606 0.574362 0.192089
H6    H     H_    0.887951 0.705041 0.574992 0.196231
H7    H     H_    0.362401 0.130586 0.638958 0.128733
H8    H     H_    0.637019 0.130329 0.360629 0.156577
H9    H     H_    0.362364 0.869530 0.638925 0.127925
H10   H     H_    0.637678 0.869517 0.361086 0.141827
N1    N     N_R   0.500000 0.852070 0.500000 -0.168019
N2    N     N_R   0.500000 0.147940 0.500000 -0.169246
O1    O     O_R   0.319640 0.618740 0.499990 -0.589116
O2    O     O_R   0.680360 0.618740 0.500010 -0.608110
O3    O     O_R   0.319620 0.381170 0.499990 -0.538521
O4    O     O_R   0.680380 0.381170 0.500010 -0.539663
O5    O     O_R   0.500000 0.618810 0.319650 -0.577906
O6    O     O_R   0.500000 0.618810 0.680350 -0.587529
O7    O     O_R   0.499970 0.381240 0.319640 -0.594031
O8    O     O_R   0.500030 0.381240 0.680360 -0.588097
O9    O     O_3   0.882177 0.799328 0.128568 -0.552035
C25   C     C_3   0.967552 0.703462 0.179808 -0.277716
H11   H     H_    0.008123 0.634154 0.107258 0.152336
H12   H     H_    0.044347 0.763615 0.222687 0.203821
H13   H     H_    0.924635 0.639296 0.254131 0.142422
O10   O     O_3   0.881662 0.800751 0.873005 -0.562651
C26   C     C_3   0.830214 0.914775 0.807096 -0.280924
H14   H     H_    0.774726 0.984184 0.868809 0.162013
H15   H     H_    0.906690 0.978956 0.768835 0.194586
H16   H     H_    0.773368 0.878233 0.727353 0.156509
O11   O     O_3   0.873788 0.274463 0.380209 -0.542433
C27   C     C_3   0.834890 0.313708 0.259822 -0.310870
H17   H     H_    0.907990 0.369123 0.206299 0.121157
H18   H     H_    0.751461 0.380877 0.264015 0.155486
H19   H     H_    0.810062 0.217319 0.207559 0.197788
O12   O     O_3   0.125530 0.263786 0.401516 -0.537429
C28   C     C_3   0.164602 0.279539 0.277514 -0.244146
H20   H     H_    0.091113 0.243698 0.213114 0.174106
H21   H     H_    0.245787 0.210479 0.262762 0.188362
H22   H     H_    0.193251 0.388831 0.253794 0.097395

loop_
_geom_bond_atom_site_label_1
_geom_bond_atom_site_label_2
_ccdc_geom_bond_type
C10   O8    A    
C15   C18   A    
C6    N2    A    
C9    O7    A    
O12   C28   S    
C4    O12   S    
C19   H1    S    
C11   C16   A    
C3    C23   A    
C19   C20   A    
C12   C15   A    
Cu1   N1    S    
C28   H21   S    
Cu1   O5    S    
C27   H19   S    
C25   H12   S    
C7    N1    A    
C28   H22   S    
C26   H14   S    
Cu1   O1    S    
C11   C13   A    
Cu2   O4    S    
O11   C27   S    
C16   C17   A    
C22   H6    S    
C2    O4    A    
C3    O11   S    
Cu1   O6    S    
C1    O3    A    
C25   H11   S    
C17   C19   A    
C10   C18   S    
C21   C22   A    
C27   H18   S    
C18   C20   A    
C26   H15   S    
Cu1   O2    S    
C4    C24   A    
C27   H17   S    
C21   C24   A    
C9    O5    A    
C8    N1    A    
C1    O1    A    
C10   O6    A    
C15   C16   A    
O9    C25   S    
C2    O2    A    
C5    N2    A    
O10   C26   S    
C11   H3    S    
C1    C24   S    
C13   O9    S    
C8    H10   S    
C26   H16   S    
C9    C17   S    
C2    C23   S    
C5    C7    A    
Cu2   O8    S    
C22   C23   A    
Cu2   N2    S    
C6    C8    A    
C20   H2    S    
Cu2   O7    S    
C12   H4    S    
Cu1   Cu2   S    
C13   C14   A    
C7    H9    S    
C25   H13   S    
C14   O10   S    
C3    C4    A    
C6    H8    S    
Cu2   O3    S    
C12   C14   A    
C28   H20   S    
C21   H5    S    
C5    H7    S    
