data_mof_unit_23566.cif
_audit_creation_date              2012-12-10T16:59:18-0500
_audit_creation_method            fapswitch 2.2
_symmetry_space_group_name_H-M    P1
_symmetry_Int_Tables_number       1
_space_group_crystal_system       triclinic
_cell_length_a                    7.819557
_cell_length_b                    8.612961
_cell_length_c                    27.773209
_cell_angle_alpha                 91.465869
_cell_angle_beta                  87.96767
_cell_angle_gamma                 92.849544
_cell_volume                      1866.49319161

loop_
_atom_site_label
_atom_site_type_symbol
_atom_type_description
_atom_site_fract_x
_atom_site_fract_y
_atom_site_fract_z
_atom_type_partial_charge
C1    C     C_R   0.544524 0.793766 0.498809 0.880586
C2    C     C_R   0.455476 0.206234 0.501192 0.880599
C3    C     C_R   0.507966 0.492286 0.898229 -0.056889
C4    C     C_R   0.491016 0.507402 0.101784 -0.056900
C5    C     C_R   0.544220 0.629276 0.872603 -0.117031
C6    C     C_R   0.454885 0.370393 0.127409 -0.116998
C7    C     C_R   0.594740 0.765844 0.897226 -0.198732
C8    C     C_R   0.404282 0.233839 0.102790 -0.198745
C9    C     C_R   0.477079 0.351090 0.872609 -0.010161
C10   C     C_R   0.521922 0.648593 0.127404 -0.010154
C11   C     C_R   0.509278 0.491688 0.646261 -0.166070
C12   C     C_R   0.490632 0.508110 0.353745 -0.166050
C13   C     C_R   0.532203 0.643313 0.025496 0.087141
C14   C     C_R   0.466606 0.356400 0.974518 0.087144
C15   C     C_R   0.453444 0.361075 0.025612 -0.073170
C16   C     C_R   0.545390 0.638638 0.974403 -0.073198
C17   C     C_R   0.493696 0.503583 0.050705 0.008664
C18   C     C_R   0.505169 0.496123 0.949308 0.008670
C19   C     C_R   0.546968 0.784511 0.052556 -0.083381
C20   C     C_R   0.451809 0.215200 0.947460 -0.083400
C21   C     C_R   0.545987 0.786584 0.102432 -0.149966
C22   C     C_R   0.452881 0.213114 0.897583 -0.149981
C23   C     C_R   0.504223 0.499140 0.593741 0.916449
C24   C     C_R   0.495769 0.500826 0.406262 0.916441
C25   C     C_R   0.603930 0.769301 0.946972 0.577039
C26   C     C_R   0.394946 0.230409 0.053047 0.577061
C27   C     C_2   0.568554 0.955936 0.498224 0.299471
C28   C     C_2   0.431446 0.044064 0.501777 0.299178
C29   C     C_R   0.537427 0.624846 0.822381 0.562190
C30   C     C_R   0.461892 0.374789 0.177626 0.562177
C31   C     C_R   0.478145 0.350452 0.822219 0.530990
C32   C     C_R   0.521024 0.649204 0.177791 0.530972
C33   C     C_R   0.361705 0.431953 0.722262 -0.069944
C34   C     C_R   0.637878 0.567890 0.277705 -0.069952
C35   C     C_R   0.362818 0.434794 0.672246 -0.249887
C36   C     C_R   0.636929 0.565147 0.327722 -0.249620
C37   C     C_R   0.654462 0.545161 0.671199 0.599435
C38   C     C_R   0.345479 0.454321 0.328849 0.599226
C39   C     C_R   0.654611 0.538230 0.721034 -0.158955
C40   C     C_R   0.345141 0.461174 0.279017 -0.158914
C41   C     C_R   0.507777 0.483841 0.746773 0.193654
C42   C     C_R   0.491793 0.515764 0.253234 0.193534
H1    H     H_    0.767522 0.579615 0.739912 0.182054
H2    H     H_    0.232225 0.419594 0.260175 0.182195
H3    H     H_    0.636210 0.869399 0.877832 0.215010
H4    H     H_    0.362867 0.130277 0.122188 0.214965
H5    H     H_    0.751096 0.606555 0.346029 0.195513
H6    H     H_    0.248632 0.393592 0.653911 0.195575
H7    H     H_    0.752445 0.609002 0.257940 0.173728
H8    H     H_    0.247007 0.390984 0.741995 0.173687
H9    H     H_    0.561530 0.897668 0.121367 0.199534
H10   H     H_    0.437335 0.102027 0.878649 0.199515
H11   H     H_    0.552328 0.896879 0.036546 0.238634
H12   H     H_    0.446371 0.102833 0.963471 0.238623
N1    N     N_R   0.505794 0.486526 0.798254 -0.345037
N2    N     N_R   0.493563 0.513104 0.201755 -0.345013
N3    N     N_2   0.950320 0.457960 0.486880 -0.216832
N4    N     N_2   0.049680 0.542040 0.513120 -0.217255
O1    O     O_R   0.389250 0.738570 0.503220 -0.570446
O2    O     O_R   0.610750 0.261430 0.496780 -0.570163
O3    O     O_R   0.678390 0.711630 0.494810 -0.587318
O4    O     O_R   0.321610 0.288370 0.505190 -0.587455
O5    O     O_R   0.355440 0.513440 0.575450 -0.641969
O6    O     O_R   0.644560 0.486560 0.424550 -0.641269
O7    O     O_R   0.644590 0.486500 0.567040 -0.635291
O8    O     O_R   0.355410 0.513500 0.432960 -0.635655
O9    O     O_2   0.561512 0.757857 0.797794 -0.517974
O10   O     O_2   0.437988 0.241750 0.202206 -0.517980
O11   O     O_2   0.545337 0.784727 0.202694 -0.519717
O12   O     O_2   0.453816 0.214930 0.797317 -0.519715
Zn1   Zn    Zn3+2 0.306940 0.517990 0.505620 1.042536
Zn2   Zn    Zn3+2 0.693060 0.482010 0.494380 1.043176
F1    F     F_    0.791812 0.613594 0.648185 -0.649751
F2    F     F_    0.208371 0.385651 0.351912 -0.649408
C43   C     C_2   0.008171 0.430708 0.439192 0.803544
H13   H     H_    0.059001 0.526860 0.417755 0.048841
O13   O     O_2   0.985057 0.301670 0.420753 -0.462960
C44   C     C_2   0.991476 0.569788 0.560746 0.803644
H14   H     H_    0.941792 0.473634 0.582365 0.048849
O14   O     O_2   0.012614 0.699479 0.578885 -0.462740
F3    F     F_    0.686325 0.896680 0.966470 -0.686496
F4    F     F_    0.312474 0.103053 0.033560 -0.686499
F5    F     F_    0.733846 0.014248 0.494063 -0.587546
F6    F     F_    0.266154 0.985752 0.505938 -0.587656

loop_
_geom_bond_atom_site_label_1
_geom_bond_atom_site_label_2
_ccdc_geom_bond_type
C28   F6    S    
C8    C26   A    
C14   C18   A    
C34   C42   A    
C39   C41   A    
C36   H5    S    
C7    H3    S    
C19   C21   A    
C1    O1    A    
C44   O14   D    
C9    C22   A    
O2    Zn2   S    
C3    C18   A    
C11   C37   A    
C41   N1    S    
C42   N2    S    
C29   O9    S    
C31   O12   S    
C12   C36   A    
C24   O8    A    
C19   H11   S    
C23   O5    A    
C26   F4    S    
C25   F3    S    
C2    O2    A    
C35   H6    S    
C5    C29   A    
C10   C21   A    
C13   C19   A    
C14   C20   A    
C20   H12   S    
C5    C7    A    
C9    C31   A    
C44   H14   S    
C15   C26   A    
C39   H1    S    
C29   N1    A    
C33   H8    S    
C30   N2    A    
C43   H13   S    
C3    C9    A    
O8    Zn1   S    
C43   O13   D    
C4    C17   A    
O3    Zn2   S    
C4    C6    A    
C6    C30   A    
C20   C22   A    
C4    C10   A    
C21   H9    S    
C22   H10   S    
C38   F2    S    
C16   C25   A    
C15   C17   A    
C37   F1    S    
C34   H7    S    
O5    Zn1   S    
C40   C42   A    
C3    C5    A    
C1    O3    A    
C6    C8    A    
C32   O11   S    
O7    Zn2   S    
C12   C24   S    
C7    C25   A    
C13   C17   A    
C33   C41   A    
N3    C43   S    
C11   C35   A    
C37   C39   A    
C38   C40   A    
C23   O7    A    
N3    N4    D    
C11   C23   S    
C33   C35   A    
O4    Zn1   S    
C24   O6    A    
C34   C36   A    
O6    Zn2   S    
N3    Zn2   S    
C12   C38   A    
N4    Zn1   S    
C8    H4    S    
N4    C44   S    
C27   F5    S    
C10   C32   A    
C40   H2    S    
C16   C18   A    
C13   C16   A    
C27   C28   D    
C1    C27   S    
C14   C15   A    
C2    C28   S    
C31   N1    A    
C32   N2    A    
C30   O10   S    
C2    O4    A    
O1    Zn1   S    
