data_mof_unit_27470.cif
_audit_creation_date              2012-12-11T15:20:17-0500
_audit_creation_method            fapswitch 2.2
_symmetry_space_group_name_H-M    P1
_symmetry_Int_Tables_number       1
_space_group_crystal_system       triclinic
_cell_length_a                    13.096743
_cell_length_b                    12.990385
_cell_length_c                    15.281432
_cell_angle_alpha                 117.01158
_cell_angle_beta                  62.9043
_cell_angle_gamma                 97.858159
_cell_volume                      2053.95526621

loop_
_atom_site_label
_atom_site_type_symbol
_atom_type_description
_atom_site_fract_x
_atom_site_fract_y
_atom_site_fract_z
_atom_type_partial_charge
C1    C     C_R   0.018804 0.835680 0.036315 -0.071534
C2    C     C_R   0.703241 0.430128 0.306149 0.056139
C3    C     C_R   0.648945 0.487932 0.956631 -0.012731
C4    C     C_R   0.961267 0.832003 0.325943 0.048935
C5    C     C_R   0.320568 0.581766 0.012898 0.443331
C6    C     C_R   0.901834 0.200807 0.792638 -0.071043
C7    C     C_R   0.218893 0.434562 0.684431 -0.077396
C8    C     C_R   0.087424 0.248981 0.052029 -0.119630
C9    C     C_R   0.987764 0.164902 0.956072 -0.124536
C10   C     C_R   0.320306 0.518007 0.780103 -0.067812
C11   C     C_R   0.245481 0.473378 0.101867 -0.207028
C12   C     C_R   0.699199 0.406080 0.209896 -0.111383
C13   C     C_R   0.980795 0.302419 0.698782 -0.140124
C14   C     C_R   0.337807 0.534079 0.068884 0.026688
C15   C     C_R   0.916984 0.208947 0.700351 0.069126
C16   C     C_R   0.329450 0.442157 0.676656 -0.007420
C17   C     C_R   0.067154 0.141408 0.983425 0.113101
C18   C     C_R   0.946334 0.045594 0.422312 -0.145429
C19   C     C_R   0.928071 0.143080 0.518421 -0.196439
C20   C     C_R   0.876119 0.135427 0.618173 -0.069249
C21   C     C_R   0.811936 0.039849 0.623551 0.553627
C22   C     C_R   0.834859 0.940058 0.525877 -0.268870
C23   C     C_R   0.748636 0.531657 0.905623 0.412504
C24   C     C_R   0.912180 0.940214 0.425551 0.068340
C25   C     C_R   0.635647 0.428038 0.485734 -0.123220
C26   C     C_R   0.542488 0.428061 0.578319 -0.103060
C27   C     C_R   0.437004 0.395309 0.575442 0.111446
C28   C     C_R   0.433641 0.338500 0.474026 -0.137533
C29   C     C_R   0.526851 0.338083 0.381335 -0.151123
C30   C     C_R   0.624022 0.393563 0.389688 0.103027
C31   C     C_2   0.447394 0.519275 0.060583 -0.149426
C32   C     C_2   0.538891 0.500101 0.965105 -0.038192
C33   C     C_2   0.872553 0.969270 0.057653 -0.188561
C34   C     C_R   0.945320 0.720966 0.317344 -0.112156
C35   C     C_2   0.867436 0.061068 0.148432 -0.121954
C36   C     C_R   0.668435 0.438640 0.009908 -0.151317
C37   C     C_R   0.036375 0.821402 0.222130 -0.055288
C38   C     C_R   0.800195 0.488865 0.305024 -0.127575
C39   C     C_R   0.911741 0.750799 0.948210 -0.066798
C40   C     C_R   0.935252 0.857250 0.013218 0.067757
H1    H     H_    0.064086 0.900668 0.075761 0.112087
H2    H     H_    0.849690 0.144158 0.825872 0.178927
H3    H     H_    0.193209 0.383861 0.620208 0.099776
H4    H     H_    0.143755 0.263234 0.089766 0.111426
H5    H     H_    0.951880 0.101289 0.904392 0.120050
H6    H     H_    0.388778 0.542819 0.803921 0.145316
H7    H     H_    0.227815 0.433525 0.155345 0.133716
H8    H     H_    0.998382 0.343468 0.646506 0.150808
H9    H     H_    0.996327 0.052016 0.346255 0.113618
H10   H     H_    0.967654 0.219097 0.511047 0.147903
H11   H     H_    0.644715 0.348724 0.176546 0.092497
H12   H     H_    0.794358 0.862609 0.528976 0.173702
H13   H     H_    0.711908 0.465017 0.493508 0.150332
H14   H     H_    0.550758 0.465022 0.653743 0.169891
H15   H     H_    0.355930 0.305137 0.467347 0.114514
H16   H     H_    0.517279 0.303970 0.306775 0.115644
H17   H     H_    0.452701 0.518880 0.129361 0.139451
H18   H     H_    0.532887 0.498385 0.895912 0.175658
H19   H     H_    0.822943 0.975723 0.019353 0.159877
H20   H     H_    0.911797 0.059288 0.192916 0.123061
H21   H     H_    0.895649 0.695348 0.381989 0.115228
H22   H     H_    0.613649 0.386169 0.048315 0.144259
H23   H     H_    0.078534 0.889352 0.201106 0.111656
H24   H     H_    0.838424 0.507024 0.359422 0.103622
H25   H     H_    0.850063 0.737841 0.917106 0.182128
N1    N     N_R   0.037310 0.720000 0.995790 -0.043266
N2    N     N_R   0.946240 0.290860 0.848040 -0.061144
N3    N     N_R   0.146140 0.501160 0.788590 -0.041629
N4    N     N_R   0.025760 0.332690 0.063610 -0.046027
N5    N     N_R   0.962690 0.280000 0.004210 -0.049444
N6    N     N_R   0.209210 0.553840 0.847990 -0.036655
N7    N     N_R   0.175110 0.482040 0.063580 -0.071918
N8    N     N_R   0.996790 0.351810 0.788620 -0.048703
N9    N     N_R   0.790790 0.446160 0.152010 -0.042311
N10   N     N_R   0.824890 0.517960 0.936420 -0.105607
N11   N     N_R   0.003210 0.648190 0.211380 -0.051345
N12   N     N_R   0.774330 0.457010 0.995840 -0.075359
N13   N     N_R   0.053760 0.709140 0.151960 -0.035866
N14   N     N_R   0.853860 0.498840 0.211410 -0.045479
N15   N     N_R   0.974240 0.667310 0.936390 -0.052657
N16   N     N_R   0.225670 0.542990 0.004160 -0.109088
Ni1   Ni    Ni4+2 0.130310 0.630310 0.999970 0.326950
Ni2   Ni    Ni4+2 0.869690 0.369690 0.000030 0.219540
Ni3   Ni    Ni4+2 0.985640 0.509470 0.863740 0.291428
Ni4   Ni    Ni4+2 0.014360 0.490530 0.136260 0.213764
S1    S     S_3+6 0.696072 0.043690 0.745263 -0.055609
O1    O     O_2   0.654802 0.166824 0.831569 -0.336896
O2    O     O_2   0.598665 0.985943 0.720168 -0.251750
O3    O     O_3   0.738668 0.970115 0.791200 -0.543695
H26   H     H_    0.671058 0.978223 0.860211 0.388059
S2    S     S_3+6 0.784467 0.548391 0.786803 -0.048786
O4    O     O_2   0.724507 0.659516 0.819067 -0.212043
O5    O     O_2   0.912224 0.551777 0.727561 -0.329880
O6    O     O_3   0.740278 0.437769 0.702554 -0.528279
H27   H     H_    0.763145 0.367375 0.701274 0.334334
S3    S     S_3+6 0.370780 0.714665 0.011432 -0.052153
O7    O     O_2   0.484806 0.693158 0.913197 -0.260740
O8    O     O_2   0.286016 0.776922 0.006945 -0.327448
O9    O     O_3   0.386755 0.797455 0.125987 -0.527793
H28   H     H_    0.415851 0.869443 0.119570 0.375157

loop_
_geom_bond_atom_site_label_1
_geom_bond_atom_site_label_2
_ccdc_geom_bond_type
N2    Ni2   S    
C12   N9    A    
C11   H7    S    
C19   C20   A    
C32   H18   S    
C14   C31   S    
N15   Ni3   S    
C2    C12   A    
C5    S3    S    
N16   Ni1   S    
C9    H5    S    
C8    N4    A    
C18   C24   A    
C28   C29   A    
C25   H13   S    
C36   N12   A    
C4    C24   S    
C11   C14   A    
S1    O2    D    
N10   Ni3   S    
S2    O5    D    
C38   N14   A    
N12   Ni2   S    
S3    O9    S    
C18   C19   A    
N13   Ni1   S    
C1    C40   A    
C7    N3    A    
C3    C23   A    
O9    H28   S    
S3    O8    D    
C10   H6    S    
N2    N8    A    
C7    H3    S    
N9    Ni2   S    
N8    Ni3   S    
N7    N16   A    
N6    Ni1   S    
C10   N6    A    
C16   C27   S    
C6    C15   A    
C33   H19   S    
C21   C22   A    
C39   H25   S    
N4    N5    A    
C36   H22   S    
C26   H14   S    
C37   H23   S    
C28   H15   S    
N7    Ni4   S    
C38   H24   S    
C15   C20   S    
C4    C34   A    
C33   C40   S    
N3    Ni3   S    
C9    N5    A    
C23   N10   A    
S2    O4    D    
S1    O1    D    
C25   C26   A    
C34   H21   S    
C35   H20   S    
C29   C30   A    
N1    Ni1   S    
C5    N16   A    
C2    C38   A    
C31   C32   D    
S3    O7    D    
C1    N1    A    
C26   C27   A    
C3    C32   S    
C20   C21   A    
N5    Ni2   S    
N10   N12   A    
C5    C14   A    
C9    C17   A    
C6    N2    A    
C13   N8    A    
N9    N14   A    
C13   C15   A    
C22   C24   A    
C39   C40   A    
C12   H11   S    
N4    Ni4   S    
C22   H12   S    
C1    H1    S    
C25   C30   A    
C21   S1    S    
C7    C16   A    
C11   N7    A    
C8    H4    S    
N11   N13   A    
S1    O3    S    
C13   H8    S    
C29   H16   S    
N1    N15   A    
C37   N13   A    
C8    C17   A    
C2    C30   S    
C39   N15   A    
C31   H17   S    
C10   C16   A    
S2    O6    S    
C19   H10   S    
C3    C36   A    
N3    N6    A    
C33   C35   D    
N14   Ni4   S    
C23   S2    S    
O6    H27   S    
C4    C37   A    
C6    H2    S    
C27   C28   A    
O3    H26   S    
N11   Ni4   S    
C18   H9    S    
C34   N11   A    
