data_mof_unit_22517.cif
_audit_creation_date              2012-12-10T20:36:36-0500
_audit_creation_method            fapswitch 2.2
_symmetry_space_group_name_H-M    P1
_symmetry_Int_Tables_number       1
_space_group_crystal_system       triclinic
_cell_length_a                    10.495961
_cell_length_b                    10.675604
_cell_length_c                    9.934673
_cell_angle_alpha                 89.102898
_cell_angle_beta                  88.877453
_cell_angle_gamma                 90.965466
_cell_volume                      1112.67333572

loop_
_atom_site_label
_atom_site_type_symbol
_atom_type_description
_atom_site_fract_x
_atom_site_fract_y
_atom_site_fract_z
_atom_type_partial_charge
C1    C     C_R   0.505553 0.260110 0.500440 0.863202
C2    C     C_3   0.961902 0.606180 0.442330 -0.111605
C3    C     C_3   0.044699 0.506784 0.373609 -0.071985
C4    C     C_3   0.122568 0.499193 0.501904 -0.020515
C5    C     C_R   0.562271 0.062308 0.613319 0.111825
C6    C     C_R   0.528931 0.128949 0.497679 -0.182153
C7    C     C_R   0.523159 0.066866 0.374090 -0.178091
C8    C     C_R   0.522488 0.937725 0.372845 -0.185388
C9    C     C_R   0.527240 0.871404 0.495247 -0.109923
C10   C     C_R   0.559220 0.934043 0.612034 0.073226
C11   C     C_3   0.505393 0.922165 0.751891 -0.512473
C12   C     C_R   0.257575 0.499505 0.500893 0.854889
C13   C     C_3   0.510317 0.064431 0.754568 0.317270
C14   C     C_R   0.392537 0.467632 0.074041 0.122404
C15   C     C_R   0.600716 0.550406 0.064752 0.459354
C16   C     C_R   0.599971 0.546425 0.922252 -0.130326
C17   C     C_R   0.392110 0.468780 0.932283 0.196464
C18   C     C_3   0.318330 0.348451 0.930483 -0.451488
C19   C     C_3   0.319849 0.346907 0.083560 -0.445199
C20   C     C_R   0.504440 0.739873 0.498894 0.899595
C21   C     C_R   0.742581 0.499895 0.499440 0.906776
C22   C     C_3   0.038861 0.392527 0.560062 -0.198949
C23   C     C_3   0.958230 0.400060 0.431851 -0.141036
C24   C     C_3   0.877872 0.499556 0.499984 0.016919
C25   C     C_3   0.955805 0.491898 0.628675 -0.111953
C26   C     C_3   0.042405 0.598499 0.570448 -0.211578
H1    H     H_    0.919299 0.319641 0.375229 0.161508
H2    H     H_    0.571709 0.874528 0.821149 0.263020
H3    H     H_    0.414680 0.106552 0.762243 0.044231
H4    H     H_    0.680813 0.579920 0.862213 0.199379
H5    H     H_    0.221553 0.360536 0.889172 0.195488
H6    H     H_    0.373908 0.272280 0.885480 0.235393
H7    H     H_    0.223831 0.358010 0.130541 0.195526
H8    H     H_    0.376700 0.269637 0.126693 0.234015
H9    H     H_    0.075158 0.306003 0.608267 0.147764
H10   H     H_    0.915842 0.485810 0.732965 0.184472
H11   H     H_    0.081423 0.678908 0.627024 0.157975
H12   H     H_    0.927631 0.693769 0.395003 0.173046
H13   H     H_    0.084633 0.513194 0.269357 0.168927
H14   H     H_    0.508042 0.116495 0.280062 0.212658
H15   H     H_    0.507236 0.891141 0.278251 0.205886
H16   H     H_    0.406416 0.883182 0.754870 0.167325
N1    N     N_R   0.499140 0.499140 0.142800 -0.162301
N2    N     N_R   0.499140 0.499180 0.857150 -0.121813
O1    O     O_R   0.500020 0.316790 0.614690 -0.589792
O2    O     O_R   0.500000 0.316760 0.385350 -0.624628
O3    O     O_R   0.313960 0.499990 0.614650 -0.622484
O4    O     O_R   0.313940 0.499950 0.385310 -0.636214
O5    O     O_R   0.500000 0.683240 0.614650 -0.629640
O6    O     O_R   0.499980 0.683210 0.385310 -0.577390
O7    O     O_R   0.686060 0.500050 0.614690 -0.628657
O8    O     O_R   0.686040 0.500010 0.385350 -0.518405
Zn1   Zn    Zn3+2 0.500010 0.500020 0.653130 0.987382
Zn2   Zn    Zn3+2 0.499990 0.499980 0.346870 1.024839
S1    S     S_3+6 0.625119 0.123453 0.869951 0.011739
O9    O     O_2   0.652019 0.259908 0.840969 -0.290872
O10   O     O_2   0.572734 0.107390 0.011087 -0.343544
O11   O     O_3   0.761475 0.043908 0.854237 -0.537206
H17   H     H_    0.817718 0.078507 0.923948 0.385273
S2    S     S_3+6 0.741407 0.620881 0.127897 0.018947
O12   O     O_2   0.830510 0.519095 0.168397 -0.308203
O13   O     O_2   0.806968 0.698168 0.018130 -0.347894
O14   O     O_3   0.712497 0.715970 0.257516 -0.561513
H18   H     H_    0.766285 0.791889 0.240436 0.366501

loop_
_geom_bond_atom_site_label_1
_geom_bond_atom_site_label_2
_ccdc_geom_bond_type
C8    C9    A    
C4    C26   S    
C23   C24   S    
C26   H11   S    
C6    C7    A    
C23   H1    S    
C4    C12   S    
C4    C22   S    
C15   S2    S    
C2    H12   S    
N1    Zn2   S    
C5    C13   S    
C12   O4    A    
S1    O9    D    
O2    Zn2   S    
C17   C18   S    
O11   H17   S    
C17   N2    A    
C15   N1    A    
C7    C8    A    
C2    C26   S    
O6    Zn2   S    
C8    H15   S    
O4    Zn2   S    
C22   H9    S    
C11   C13   S    
C14   C17   A    
C1    O1    A    
C20   O5    A    
C11   H2    S    
C12   O3    A    
O5    Zn1   S    
O3    Zn1   S    
N2    Zn1   S    
C13   H3    S    
O8    Zn2   S    
C2    C3    S    
O7    Zn1   S    
S1    O10   D    
C2    C24   S    
C5    C6    A    
S2    O14   S    
C1    O2    A    
S1    O11   S    
C18   H6    S    
C10   C11   S    
C25   H10   S    
C16   H4    S    
C15   C16   A    
C21   O7    A    
C24   C25   S    
C22   C25   S    
C11   H16   S    
S2    O13   D    
C18   C19   S    
C9    C10   A    
C21   C24   S    
C3    H13   S    
C16   N2    A    
C22   C23   S    
S2    O12   D    
C20   O6    A    
C18   H5    S    
C9    C20   S    
C5    C10   A    
C25   C26   S    
O14   H18   S    
C7    H14   S    
C3    C23   S    
C14   C19   S    
O1    Zn1   S    
C21   O8    A    
C3    C4    S    
C1    C6    S    
C19   H7    S    
C14   N1    A    
C13   S1    S    
C19   H8    S    
