data_mof_unit_36662.cif
_audit_creation_date              2012-12-11T16:30:26-0500
_audit_creation_method            fapswitch 2.2
_symmetry_space_group_name_H-M    P1
_symmetry_Int_Tables_number       1
_space_group_crystal_system       triclinic
_cell_length_a                    6.930018
_cell_length_b                    14.45073
_cell_length_c                    15.994918
_cell_angle_alpha                 89.999771
_cell_angle_beta                  89.896808
_cell_angle_gamma                 90.000195
_cell_volume                      1601.7895754

loop_
_atom_site_label
_atom_site_type_symbol
_atom_type_description
_atom_site_fract_x
_atom_site_fract_y
_atom_site_fract_z
_atom_type_partial_charge
O1    O     O_R   0.611670 0.415650 0.164070 -0.536817
O2    O     O_R   0.388330 0.915650 0.835930 -0.536817
O3    O     O_R   0.940950 0.405490 0.337780 -0.542132
O4    O     O_R   0.059050 0.905490 0.662220 -0.542130
O5    O     O_R   0.111350 0.584350 0.338470 -0.541156
O6    O     O_R   0.888650 0.084350 0.661530 -0.541156
C1    C     C_R   0.771617 0.382698 0.366765 0.640162
C2    C     C_R   0.228383 0.882694 0.633239 0.640161
O7    O     O_R   0.941380 0.404630 0.164680 -0.536795
O8    O     O_R   0.058620 0.904630 0.835320 -0.536797
O9    O     O_R   0.111780 0.583470 0.164130 -0.536348
O10   O     O_R   0.888220 0.083470 0.835870 -0.536350
C3    C     C_R   0.772626 0.382591 0.136054 0.703692
C4    C     C_R   0.227373 0.882590 0.863945 0.703692
O11   O     O_R   0.611240 0.416530 0.338400 -0.541843
O12   O     O_R   0.388760 0.916530 0.661600 -0.541841
O13   O     O_3   0.778020 0.558680 0.251290 -0.365203
O14   O     O_3   0.221980 0.058680 0.748710 -0.365205
V1    V     V_3+5 0.052840 0.489110 0.251260 1.395019
V2    V     V_3+5 0.947160 0.989110 0.748740 1.395020
O15   O     O_R   0.441500 0.594510 0.164760 -0.536321
O16   O     O_R   0.558500 0.094510 0.835240 -0.536322
C5    C     C_R   0.272757 0.616332 0.135935 0.704201
C6    C     C_R   0.727243 0.116333 0.864064 0.704194
O17   O     O_R   0.441080 0.595370 0.337860 -0.543469
O18   O     O_R   0.558920 0.095370 0.662140 -0.543469
C7    C     C_R   0.272175 0.617930 0.367038 0.640020
C8    C     C_R   0.727825 0.117935 0.632966 0.640023
V3    V     V_3+5 0.552850 0.510890 0.251270 1.394271
V4    V     V_3+5 0.447150 0.010890 0.748730 1.394272
O19   O     O_3   0.277800 0.441320 0.251250 -0.365513
O20   O     O_3   0.722200 0.941320 0.748750 -0.365511
C9    C     C_3   0.157075 0.647089 0.515500 -0.318754
C10   C     C_3   0.842708 0.147062 0.484471 -0.318747
H1    H     H_    0.008424 0.625264 0.498141 0.134464
H2    H     H_    0.991352 0.125176 0.501780 0.134436
H3    H     H_    0.234878 0.584171 0.537195 0.114191
H4    H     H_    0.764755 0.084175 0.462802 0.114187
C11   C     C_3   0.145785 0.718647 0.588095 -0.321898
C12   C     C_3   0.853984 0.218617 0.411875 -0.321896
H5    H     H_    0.219736 0.690213 0.644169 0.119528
H6    H     H_    0.779857 0.190216 0.355830 0.119524
H7    H     H_    0.991983 0.730017 0.605394 0.138778
H8    H     H_    0.007768 0.229922 0.394512 0.138747
H9    H     H_    0.001556 0.757385 0.389687 0.138167
H10   H     H_    0.998651 0.257282 0.610239 0.138197
H11   H     H_    0.980783 0.861335 0.497636 0.134002
H12   H     H_    0.019435 0.361216 0.502279 0.134039
C13   C     C_3   0.149446 0.776532 0.410457 -0.325539
C14   C     C_3   0.850762 0.276491 0.589515 -0.325521
C15   C     C_3   0.466285 0.719691 0.466317 -0.313963
C16   C     C_3   0.533728 0.219788 0.533762 -0.313949
C17   C     C_3   0.261669 0.688587 0.438002 0.122602
C18   C     C_3   0.738332 0.188595 0.562005 0.122585
H13   H     H_    0.545836 0.750649 0.412646 0.136074
H14   H     H_    0.454329 0.250771 0.587464 0.136039
H15   H     H_    0.550671 0.658656 0.487871 0.129178
H16   H     H_    0.449191 0.158792 0.512229 0.129219
C19   C     C_3   0.240429 0.811876 0.562431 0.118309
C20   C     C_3   0.759572 0.311884 0.437575 0.118301
C21   C     C_3   0.135390 0.847857 0.483116 -0.321325
C22   C     C_3   0.864829 0.347811 0.516853 -0.321314
C23   C     C_3   0.453997 0.791431 0.537943 -0.305992
C24   C     C_3   0.546018 0.291532 0.462140 -0.305992
H17   H     H_    0.534036 0.764650 0.593175 0.134269
H18   H     H_    0.465813 0.264794 0.406937 0.134307
H19   H     H_    0.526560 0.856478 0.517808 0.130125
H20   H     H_    0.473626 0.356611 0.482309 0.130077
H21   H     H_    0.223792 0.809114 0.356256 0.120205
H22   H     H_    0.776565 0.309103 0.643739 0.120191
H23   H     H_    0.200079 0.914733 0.462944 0.115140
H24   H     H_    0.800317 0.414718 0.537049 0.115129
H25   H     H_    0.496795 0.589585 0.761429 0.106798
H26   H     H_    0.503152 0.089591 0.238566 0.106796
C25   C     C_R   0.098196 0.928400 0.030947 -0.150348
C26   C     C_R   0.901819 0.428399 0.969054 -0.150344
C27   C     C_R   0.036664 0.952879 0.110920 -0.117992
C28   C     C_R   0.963367 0.452876 0.889082 -0.117990
C29   C     C_R   0.047821 0.889372 0.175946 -0.143797
C30   C     C_R   0.952220 0.389368 0.824057 -0.143794
C31   C     C_R   0.121238 0.801009 0.161542 -0.143798
C32   C     C_R   0.878793 0.301006 0.838460 -0.143798
C33   C     C_R   0.184683 0.774004 0.080986 0.073774
C34   C     C_R   0.815330 0.274003 0.919015 0.073772
C35   C     C_R   0.172445 0.838933 0.014261 0.059513
C36   C     C_R   0.827564 0.338933 0.985740 0.059515
C37   C     C_R   0.262619 0.684589 0.066659 -0.191056
C38   C     C_R   0.737383 0.184589 0.933341 -0.191057
C39   C     C_R   0.327518 0.659922 0.985499 0.059174
C40   C     C_R   0.672474 0.159923 0.014500 0.059178
C41   C     C_R   0.314730 0.724764 0.918700 0.073748
C42   C     C_R   0.685256 0.224766 0.081299 0.073747
C43   C     C_R   0.237355 0.814262 0.933118 -0.189708
C44   C     C_R   0.762642 0.314263 0.066882 -0.189711
C45   C     C_R   0.402005 0.570508 0.968840 -0.150824
C46   C     C_R   0.597983 0.070510 0.031159 -0.150819
C47   C     C_R   0.462742 0.545902 0.888780 -0.118095
C48   C     C_R   0.537232 0.045905 0.111217 -0.118093
C49   C     C_R   0.450363 0.609201 0.823619 -0.142653
C50   C     C_R   0.549598 0.109206 0.176378 -0.142648
C51   C     C_R   0.376950 0.697571 0.837994 -0.142534
C52   C     C_R   0.623017 0.197575 0.162003 -0.142537
H27   H     H_    0.088447 0.980753 0.982806 0.116962
H28   H     H_    0.911562 0.480752 0.017195 0.116960
H29   H     H_    0.981292 0.021738 0.122592 0.135053
H30   H     H_    0.018744 0.521734 0.877411 0.135057
H31   H     H_    0.000444 0.908823 0.238047 0.109398
H32   H     H_    0.999613 0.408816 0.761958 0.109390
H33   H     H_    0.128830 0.754505 0.214366 0.098723
H34   H     H_    0.871207 0.254501 0.785637 0.098722
H35   H     H_    0.412435 0.518281 0.017066 0.117000
H36   H     H_    0.587560 0.018282 0.982933 0.117000
H37   H     H_    0.518256 0.477064 0.877128 0.134750
H38   H     H_    0.481716 0.977067 0.122869 0.134754
H39   H     H_    0.368213 0.743851 0.784990 0.096575
H40   H     H_    0.631744 0.243856 0.215005 0.096586

loop_
_geom_bond_atom_site_label_1
_geom_bond_atom_site_label_2
_ccdc_geom_bond_type
C26   H28   S    
C33   C37   A    
C23   H17   S    
C12   C20   S    
C26   C36   A    
O13   V3    S    
O4    C2    A    
V1    O19   S    
C11   H5    S    
C46   H36   S    
O9    V1    S    
C14   C18   S    
C10   C12   S    
C32   H34   S    
C34   C36   A    
O3    C1    A    
C2    C19   S    
C28   C30   A    
C48   H38   S    
O12   V4    S    
O17   V3    S    
C20   C22   S    
O7    V1    S    
O7    C3    A    
C36   C44   A    
C47   C49   A    
O5    C7    A    
C35   C43   A    
C25   C35   A    
O6    C8    A    
O8    V2    S    
C46   C48   A    
O3    V1    S    
O14   V4    S    
C39   C41   A    
C4    C43   S    
C15   H13   S    
C42   C52   A    
C21   H23   S    
C12   H6    S    
C2    O12   A    
C5    C37   S    
C25   H27   S    
C41   C51   A    
C50   C52   A    
C31   C33   A    
C16   C18   S    
O11   V3    S    
C27   C29   A    
C9    C17   S    
C40   C42   A    
C23   H19   S    
C19   C21   S    
C13   C21   S    
C22   H24   S    
C15   C23   S    
C30   C32   A    
C16   C24   S    
C29   C31   A    
C8    C18   S    
O13   V1    S    
C11   H7    S    
C1    O11   A    
O15   V3    S    
C9    H3    S    
C15   C17   S    
C24   H18   S    
C39   C45   A    
C41   C43   A    
C25   C27   A    
H12   C22   S    
H9    C13   S    
C11   C19   S    
O10   V2    S    
O1    V3    S    
C30   H32   S    
C29   H31   S    
C9    C11   S    
C6    C38   S    
C16   H16   S    
C15   H15   S    
C49   C51   A    
C38   C40   A    
O18   V4    S    
C32   C34   A    
O15   C5    A    
O8    C4    A    
C14   C22   S    
O16   C6    A    
C19   C23   S    
O1    C3    A    
O2    V4    S    
C47   H37   S    
C24   H20   S    
C1    C20   S    
V2    O20   S    
H25   C49   S    
O10   C6    A    
C45   C47   A    
O16   V4    S    
C33   C35   A    
C10   H4    S    
O18   C8    A    
C34   C38   A    
C26   C28   A    
H11   C21   S    
H26   C50   S    
C7    C17   S    
C40   C46   A    
O5    V1    S    
O17   C7    A    
O6    V2    S    
H10   C14   S    
C48   C50   A    
C28   H30   S    
C3    C44   S    
C20   C24   S    
C27   H29   S    
C14   H22   S    
V3    O19   S    
C45   H35   S    
C31   H33   S    
V4    O20   S    
C10   C18   S    
C42   C44   A    
C51   H39   S    
O9    C5    A    
C9    H1    S    
C10   H2    S    
O14   V2    S    
O2    C4    A    
C13   C17   S    
C52   H40   S    
O4    V2    S    
C12   H8    S    
C37   C39   A    
C13   H21   S    
C16   H14   S    
