data_mof_unit_7246.cif
_audit_creation_date              2012-12-10T18:54:27-0500
_audit_creation_method            fapswitch 2.2
_symmetry_space_group_name_H-M    P1
_symmetry_Int_Tables_number       1
_space_group_crystal_system       triclinic
_cell_length_a                    10.800594
_cell_length_b                    9.889758
_cell_length_c                    23.451676
_cell_angle_alpha                 89.145105
_cell_angle_beta                  90.199738
_cell_angle_gamma                 89.150437
_cell_volume                      2504.42549776

loop_
_atom_site_label
_atom_site_type_symbol
_atom_type_description
_atom_site_fract_x
_atom_site_fract_y
_atom_site_fract_z
_atom_type_partial_charge
C1    C     C_R   0.259500 0.501073 0.499870 0.979093
C2    C     C_R   0.471829 0.372036 0.703492 0.406374
C3    C     C_R   0.361830 0.485193 0.243712 -0.210921
C4    C     C_R   0.443586 0.373112 0.761476 -0.231142
C5    C     C_R   0.463243 0.510006 0.209023 0.191475
C6    C     C_R   0.450905 0.492414 0.792149 0.183121
C7    C     C_R   0.063572 0.379621 0.502780 0.306384
C8    C     C_R   0.933213 0.620426 0.474731 0.320393
C9    C     C_R   0.937918 0.376455 0.493667 0.346945
C10   C     C_R   0.061486 0.623645 0.480310 0.385932
C11   C     C_R   0.871748 0.498698 0.487667 -0.410999
C12   C     C_R   0.739809 0.499416 0.496806 0.943478
C13   C     C_R   0.126178 0.502624 0.495461 -0.399944
C14   C     C_R   0.561361 0.069259 0.541294 -0.070949
C15   C     C_R   0.442064 0.930609 0.457641 -0.081695
C16   C     C_R   0.441050 0.074067 0.457911 -0.062859
C17   C     C_R   0.560947 0.925818 0.541488 -0.066153
C18   C     C_R   0.502844 0.500425 0.389401 0.930834
C19   C     C_R   0.499233 0.498967 0.610975 0.916056
C20   C     C_R   0.523370 0.403396 0.882780 0.520696
C21   C     C_R   0.372925 0.587379 0.119422 0.519305
C22   C     C_R   0.360940 0.570578 0.880452 0.520869
C23   C     C_R   0.579648 0.530896 0.232998 -0.215625
C24   C     C_R   0.520845 0.404850 0.121029 0.515758
C25   C     C_R   0.359133 0.573849 0.940092 -0.022260
C26   C     C_R   0.519499 0.399375 0.061684 -0.020131
C27   C     C_R   0.439458 0.486394 0.971029 -0.021683
C28   C     C_R   0.440644 0.488739 0.030940 -0.020857
C29   C     C_R   0.520324 0.398156 0.942205 -0.018985
C30   C     C_R   0.364407 0.581635 0.059923 -0.021915
C31   C     C_R   0.280484 0.663170 0.969381 -0.158042
C32   C     C_R   0.596550 0.308404 0.032554 -0.160170
C33   C     C_R   0.283900 0.667885 0.028767 -0.159660
C34   C     C_R   0.476383 0.613999 0.763915 -0.212759
C35   C     C_R   0.597941 0.308813 0.973289 -0.158801
C36   C     C_3   0.815154 0.537257 0.281124 -0.374283
C37   C     C_3   0.404372 0.818304 0.675082 -0.280814
C38   C     C_3   0.256606 0.305470 0.338431 0.098631
C39   C     C_3   0.146420 0.268828 0.300711 -0.355721
C40   C     C_3   0.131652 0.116464 0.298290 -0.988269
C41   C     C_3   0.583678 0.172506 0.696128 0.086089
C42   C     C_3   0.708130 0.239100 0.681960 -0.373373
C43   C     C_3   0.816811 0.142707 0.694074 -0.910637
C44   C     C_3   0.112371 0.250521 0.580778 0.130506
C45   C     C_R   0.597996 0.521240 0.292508 0.434561
C46   C     C_3   0.209270 0.149900 0.604042 -0.308021
C47   C     C_3   0.199390 0.135522 0.668793 -0.929114
C48   C     C_3   0.817590 0.728658 0.405616 0.123560
C49   C     C_3   0.754136 0.862026 0.389022 -0.353559
C50   C     C_3   0.670172 0.850044 0.336823 -0.880094
C51   C     C_3   0.887093 0.190864 0.441507 0.123918
C52   C     C_3   0.831034 0.277110 0.391917 -0.378016
C53   C     C_3   0.801751 0.193492 0.339883 -0.923712
C54   C     C_3   0.124571 0.806099 0.422995 0.103288
C55   C     C_3   0.174188 0.710580 0.376945 -0.394498
C56   C     C_R   0.489667 0.618257 0.704730 0.438653
C57   C     C_3   0.189110 0.783122 0.319790 -0.917022
C58   C     C_R   0.492884 0.500624 0.327224 -0.231705
C59   C     C_R   0.488375 0.496335 0.673782 -0.276524
C60   C     C_R   0.376400 0.475982 0.302642 0.370290
H1    H     H_    0.217795 0.731315 0.946524 0.190740
H2    H     H_    0.398303 0.878437 0.423032 0.131957
H3    H     H_    0.394141 0.129658 0.424064 0.115764
H4    H     H_    0.610266 0.870002 0.574667 0.176857
H5    H     H_    0.813462 0.635985 0.257983 0.178213
H6    H     H_    0.818702 0.452053 0.250803 0.193459
H7    H     H_    0.902372 0.531822 0.306135 0.177510
H8    H     H_    0.377099 0.854240 0.718010 0.167409
H9    H     H_    0.327269 0.761733 0.655229 0.176864
H10   H     H_    0.420874 0.908422 0.647677 0.180991
H11   H     H_    0.233854 0.277045 0.383151 0.171263
H12   H     H_    0.657845 0.238666 0.055374 0.190917
H13   H     H_    0.340398 0.244105 0.326833 0.135209
H14   H     H_    0.060717 0.316217 0.317588 0.223123
H15   H     H_    0.159301 0.306500 0.256552 0.226494
H16   H     H_    0.216615 0.069698 0.280210 0.282132
H17   H     H_    0.052789 0.092071 0.269976 0.276793
H18   H     H_    0.114498 0.074261 0.341660 0.252180
H19   H     H_    0.580972 0.072665 0.675217 0.166188
H20   H     H_    0.577040 0.150859 0.742682 0.163430
H21   H     H_    0.710121 0.270753 0.636348 0.236304
H22   H     H_    0.719630 0.330702 0.708231 0.228437
H23   H     H_    0.223807 0.739549 0.050104 0.189969
H24   H     H_    0.815827 0.107997 0.739334 0.281305
H25   H     H_    0.904752 0.196109 0.685920 0.255401
H26   H     H_    0.812367 0.053722 0.665819 0.266428
H27   H     H_    0.018449 0.213441 0.591659 0.172669
H28   H     H_    0.127232 0.349307 0.602149 0.109437
H29   H     H_    0.196181 0.049517 0.584353 0.230310
H30   H     H_    0.303202 0.185938 0.592859 0.270328
H31   H     H_    0.204883 0.235976 0.689168 0.274707
H32   H     H_    0.276602 0.071484 0.685512 0.270615
H33   H     H_    0.110708 0.087375 0.680580 0.260836
H34   H     H_    0.660155 0.239247 0.951986 0.191191
H35   H     H_    0.748095 0.648265 0.404210 0.213414
H36   H     H_    0.890313 0.705955 0.373589 0.113154
H37   H     H_    0.698392 0.899543 0.425323 0.246148
H38   H     H_    0.827719 0.934889 0.379225 0.192075
H39   H     H_    0.725993 0.828142 0.298408 0.267131
H40   H     H_    0.617513 0.945571 0.329172 0.242421
H41   H     H_    0.601076 0.770240 0.343619 0.286882
H42   H     H_    0.834944 0.095863 0.445482 0.173446
H43   H     H_    0.984829 0.162303 0.431877 0.144102
H44   H     H_    0.743404 0.326225 0.404953 0.275538
H45   H     H_    0.654760 0.550515 0.203853 0.156776
H46   H     H_    0.896855 0.357463 0.379793 0.198291
H47   H     H_    0.880717 0.126547 0.328901 0.260443
H48   H     H_    0.780132 0.259818 0.302740 0.297847
H49   H     H_    0.718359 0.133620 0.348768 0.269090
H50   H     H_    0.186021 0.894645 0.424961 0.149116
H51   H     H_    0.033801 0.850545 0.410948 0.157206
H52   H     H_    0.265537 0.669418 0.390750 0.274927
H53   H     H_    0.109525 0.625603 0.370982 0.221816
H54   H     H_    0.099952 0.831117 0.306291 0.263527
H55   H     H_    0.217064 0.709706 0.286808 0.304695
H56   H     H_    0.486401 0.705797 0.788022 0.177933
H57   H     H_    0.262398 0.860051 0.323132 0.257176
H58   H     H_    0.272103 0.471581 0.224406 0.166526
H59   H     H_    0.422261 0.279362 0.783528 0.171678
H60   H     H_    0.611550 0.121187 0.573929 0.156031
N1    N     N_R   0.443697 0.487832 0.853084 -0.326548
N2    N     N_R   0.451290 0.500597 0.148504 -0.330364
N3    N     N_R   0.500000 0.857200 0.500000 -0.084046
N4    N     N_R   0.500000 0.142800 0.500000 -0.087083
O1    O     O_R   0.316770 0.614620 0.500000 -0.583073
O2    O     O_2   0.305303 0.680063 0.147892 -0.572232
O3    O     O_2   0.280964 0.649370 0.850030 -0.571054
O4    O     O_2   0.591440 0.315373 0.151247 -0.572714
O5    O     O_3   0.713911 0.526780 0.318996 -0.657017
O6    O     O_3   0.514626 0.740309 0.677972 -0.598835
O7    O     O_3   0.275467 0.446728 0.336572 -0.674410
O8    O     O_3   0.480885 0.249916 0.675385 -0.637686
O9    O     O_3   0.124052 0.261988 0.520842 -0.600799
O10   O     O_3   0.869145 0.739134 0.461053 -0.607478
O11   O     O_3   0.878271 0.253686 0.495323 -0.599137
O12   O     O_R   0.683230 0.385380 0.500000 -0.589421
O13   O     O_3   0.122897 0.746509 0.478452 -0.582123
O14   O     O_R   0.683230 0.614620 0.500000 -0.587146
O15   O     O_R   0.316770 0.385380 0.500000 -0.583565
O16   O     O_R   0.499970 0.614690 0.416160 -0.654804
O17   O     O_R   0.500030 0.385310 0.583840 -0.594155
O18   O     O_R   0.500030 0.614690 0.583840 -0.580701
O19   O     O_R   0.499970 0.385310 0.416160 -0.636979
O20   O     O_2   0.607244 0.326684 0.854851 -0.581775
Zn1   Zn    Zn3+2 0.500000 0.653120 0.500000 0.977329
Zn2   Zn    Zn3+2 0.500000 0.346880 0.500000 0.967697

loop_
_geom_bond_atom_site_label_1
_geom_bond_atom_site_label_2
_ccdc_geom_bond_type
C25   C31   A    
O19   Zn2   S    
O15   Zn2   S    
C34   C56   A    
C23   C45   A    
C48   H35   S    
C37   H9    S    
C55   H52   S    
C27   C29   A    
C47   H32   S    
C31   H1    S    
C42   H22   S    
C41   H20   S    
C36   H7    S    
C32   H12   S    
C46   H29   S    
C51   H42   S    
C26   C32   A    
C50   H39   S    
C15   N3    A    
C48   O10   S    
C18   O19   A    
C1    O1    A    
C7    O9    S    
C17   H4    S    
C38   C39   S    
C36   H6    S    
C54   O13   S    
O14   Zn1   S    
C51   H43   S    
C15   C16   A    
C23   H45   S    
C37   H8    S    
C37   O6    S    
C54   H50   S    
C41   C42   S    
C39   H14   S    
C21   N2    A    
C20   O20   S    
C49   H38   S    
C54   C55   S    
C51   O11   S    
C17   N3    A    
N3    Zn1   S    
C22   C25   A    
C2    O8    S    
C31   C33   A    
C4    H59   S    
C10   O13   S    
C39   H15   S    
C44   H27   S    
C1    O15   A    
C3    C60   A    
C52   H46   S    
C19   O17   A    
C37   H10   S    
C43   H24   S    
O18   Zn1   S    
C38   H11   S    
C42   H21   S    
C60   O7    S    
C44   C46   S    
C58   C60   A    
C20   C29   A    
C45   C58   A    
C14   N4    A    
C8    O10   S    
C51   C52   S    
C43   H25   S    
C32   C35   A    
C57   H55   S    
C39   C40   S    
C2    C59   A    
C55   H53   S    
C19   C59   S    
N4    Zn2   S    
C5    N2    S    
C6    C34   A    
C2    C4    A    
C3    H58   S    
C9    C11   A    
C53   H47   S    
C5    C23   A    
C24   N2    A    
C47   H33   S    
C18   O16   A    
C33   H23   S    
C20   N1    A    
O17   Zn2   S    
C9    O11   S    
C4    C6    A    
C48   C49   S    
C16   H3    S    
C19   O18   A    
C14   H60   S    
C55   C57   S    
C40   H18   S    
C1    C13   S    
C42   C43   S    
C52   C53   S    
C22   N1    A    
C57   H57   S    
C35   H34   S    
C53   H49   S    
C44   O9    S    
C7    C9    A    
C46   C47   S    
C52   H44   S    
C48   H36   S    
C30   C33   A    
C36   H5    S    
C43   H26   S    
C47   H31   S    
C24   C26   A    
C3    C5    A    
C10   C13   A    
O16   Zn1   S    
C41   H19   S    
C41   O8    S    
C11   C12   S    
C57   H54   S    
C46   H30   S    
C25   C27   A    
C21   C30   A    
C29   C35   A    
C26   C28   A    
C56   C59   A    
C38   O7    S    
C28   C30   A    
C16   N4    A    
O1    Zn1   S    
C36   O5    S    
C53   H48   S    
C22   O3    S    
C8    C11   A    
C45   O5    S    
C15   H2    S    
C18   C58   S    
C54   H51   S    
C12   O14   A    
O12   Zn2   S    
C50   H40   S    
C49   H37   S    
C40   H16   S    
C7    C13   A    
C50   H41   S    
C8    C10   A    
C49   C50   S    
C12   O12   A    
C27   C28   A    
C24   O4    S    
C40   H17   S    
C6    N1    S    
C21   O2    S    
C44   H28   S    
C34   H56   S    
C56   O6    S    
C38   H13   S    
C14   C17   A    
