data_mof_unit_62990.cif
_audit_creation_date              2012-12-10T19:27:34-0500
_audit_creation_method            fapswitch 2.2
_symmetry_space_group_name_H-M    P1
_symmetry_Int_Tables_number       1
_space_group_crystal_system       triclinic
_cell_length_a                    18.849735
_cell_length_b                    18.857526
_cell_length_c                    18.57932
_cell_angle_alpha                 109.178572
_cell_angle_beta                  108.990869
_cell_angle_gamma                 109.965136
_cell_volume                      5101.03328106

loop_
_atom_site_label
_atom_site_type_symbol
_atom_type_description
_atom_site_fract_x
_atom_site_fract_y
_atom_site_fract_z
_atom_type_partial_charge
C1    C     C_R   0.380325 0.380667 0.500611 0.950883
C2    C     C_R   0.628579 0.338586 0.597429 0.385847
C3    C     C_R   0.234284 0.262703 0.431496 -0.164334
C4    C     C_R   0.619732 0.499859 0.620617 0.934042
C5    C     C_R   0.316310 0.317594 0.504511 -0.056469
C6    C     C_R   0.331998 0.318680 0.584471 0.344613
C7    C     C_R   0.267853 0.254657 0.586234 -0.248343
C8    C     C_R   0.186806 0.193688 0.507950 -0.192015
C9    C     C_R   0.170752 0.201786 0.433327 0.053061
C10   C     C_3   0.134748 0.136132 0.340075 0.652163
C11   C     C_3   0.203019 0.206061 0.336597 -0.383303
C12   C     C_R   0.739512 0.572938 0.772716 0.014040
C13   C     C_R   0.313948 0.492162 0.238107 0.000051
C14   C     C_R   0.312475 0.497181 0.313640 -0.051814
C15   C     C_R   0.242907 0.500943 0.324178 -0.177759
C16   C     C_R   0.620264 0.619731 0.500220 0.864159
C17   C     C_R   0.177636 0.499433 0.258875 -0.155790
C18   C     C_R   0.183930 0.498196 0.185148 -0.037770
C19   C     C_R   0.253336 0.494660 0.177534 -0.006345
C20   C     C_3   0.292588 0.488349 0.119602 0.170116
C21   C     C_3   0.362341 0.485437 0.189035 0.178384
C22   C     C_R   0.772305 0.715673 0.554490 -0.071136
C23   C     C_R   0.813706 0.500536 0.814772 -0.123269
C24   C     C_R   0.685541 0.686204 0.500904 -0.018141
C25   C     C_R   0.663275 0.733762 0.462968 -0.102078
C26   C     C_R   0.727655 0.800468 0.465544 -0.141630
C27   C     C_R   0.814381 0.820771 0.508431 -0.060563
C28   C     C_R   0.379863 0.499497 0.379689 0.871273
C29   C     C_R   0.836198 0.782991 0.559031 0.097423
C30   C     C_3   0.894233 0.744998 0.566664 -0.443575
C31   C     C_3   0.822853 0.669262 0.560193 0.271427
C32   C     C_R   0.002817 0.380413 0.881497 0.981125
C33   C     C_R   0.880098 0.500755 0.880658 0.976303
C34   C     C_R   0.770475 0.434799 0.726337 -0.061561
C35   C     C_R   0.001607 0.620153 0.121557 0.958610
C36   C     C_R   0.119582 0.499130 0.119451 0.871028
C37   C     C_R   0.000326 0.119706 0.620013 0.905847
C38   C     C_R   0.120200 0.122120 0.502080 0.931208
C39   C     C_R   0.998760 0.879328 0.379352 0.979297
C40   C     C_R   0.745483 0.655023 0.795204 -0.096279
C41   C     C_R   0.879968 0.881041 0.501677 0.868641
C42   C     C_R   0.973920 0.232340 0.803020 0.073982
C43   C     C_R   0.011131 0.317657 0.819445 -0.222450
C44   C     C_R   0.058670 0.341150 0.776719 0.419986
C45   C     C_R   0.692250 0.423271 0.669713 -0.020964
C46   C     C_R   0.053191 0.275275 0.707574 -0.131543
C47   C     C_R   0.005271 0.188577 0.686505 -0.197630
C48   C     C_R   0.972321 0.169156 0.738371 0.054191
C49   C     C_3   0.883438 0.101973 0.710915 -0.378034
C50   C     C_3   0.885807 0.172206 0.784265 0.208581
C51   C     C_R   0.014773 0.688968 0.264849 -0.086458
C52   C     C_R   0.779556 0.715038 0.882450 -0.129089
C53   C     C_R   0.002979 0.687893 0.186678 -0.176380
C54   C     C_R   0.000141 0.757515 0.175435 0.343238
C55   C     C_R   0.989419 0.815961 0.233990 0.374386
C56   C     C_R   0.683835 0.498473 0.688139 -0.103679
C57   C     C_R   0.998764 0.814454 0.312068 -0.209078
C58   C     C_R   0.014941 0.752734 0.327968 0.029704
C59   C     C_3   0.968081 0.689739 0.351964 0.182873
C60   C     C_3   0.969275 0.619426 0.281717 -0.268473
C61   C     C_R   0.804708 0.692428 0.946637 -0.045694
C62   C     C_R   0.808739 0.616063 0.925663 0.377692
C63   C     C_R   0.788217 0.562861 0.839266 -0.001783
C64   C     C_2   0.592223 0.190299 0.488738 1.033040
C65   C     C_2   0.288693 0.249673 0.668313 1.107067
C66   C     C_2   0.267450 0.185007 0.317194 1.070634
C67   C     C_R   0.798771 0.377962 0.692391 0.351260
C68   C     C_2   0.847857 0.660934 0.641777 0.879587
C69   C     C_2   0.091939 0.296605 0.654002 0.998381
C70   C     C_2   0.879962 0.024610 0.720677 1.056136
C71   C     C_2   0.018485 0.710881 0.445405 0.949864
C72   C     C_2   0.024957 0.583279 0.314203 0.936007
C73   C     C_R   0.740561 0.300092 0.613816 -0.243601
C74   C     C_R   0.653741 0.277032 0.568297 -0.136388
Cl1   Cl    Cl    0.146848 0.043641 0.330819 -0.493464
Cl2   Cl    Cl    0.860412 0.670659 0.324086 -0.527412
Cl3   Cl    Cl    0.811373 0.576905 0.999456 -0.557652
Cl4   Cl    Cl    0.908765 0.411442 0.730867 -0.578514
Cl5   Cl    Cl    0.517280 0.302202 0.561519 -0.516746
Cl6   Cl    Cl    0.432723 0.398017 0.681427 -0.489429
Cl7   Cl    Cl    0.026253 0.107385 0.272089 -0.437635
Cl8   Cl    Cl    0.223889 0.388476 0.018256 -0.510489
Cl9   Cl    Cl    0.466884 0.579691 0.245775 -0.563858
Cl10  Cl    Cl    0.775000 0.569658 0.461214 -0.410380
Cl11  Cl    Cl    0.118291 0.450022 0.800819 -0.404412
Cl12  Cl    Cl    0.892111 0.157434 0.876146 -0.443485
Cl13  Cl    Cl    0.006864 0.771439 0.087617 -0.486935
Cl14  Cl    Cl    0.954899 0.882464 0.202370 -0.411118
H1    H     H_    0.174704 0.231582 0.295926 0.189214
H2    H     H_    0.954735 0.786220 0.631288 0.213970
H3    H     H_    0.834773 0.082501 0.644381 0.132682
H4    H     H_    0.780593 0.776190 0.899292 0.192504
H5    H     H_    0.837202 0.191299 0.759842 0.131383
H6    H     H_    0.903754 0.568332 0.224810 0.233112
H7    H     H_    0.820017 0.733650 0.012333 0.218928
H8    H     H_    0.763372 0.257479 0.588194 0.215887
H9    H     H_    0.484348 0.116164 0.370014 0.357441
H10   H     H_    0.388394 0.230581 0.670614 0.348982
H11   H     H_    0.360442 0.153549 0.350931 0.383745
H12   H     H_    0.238380 0.503624 0.381575 0.169825
H13   H     H_    0.859019 0.585094 0.695056 0.358457
H14   H     H_    0.074524 0.273976 0.533940 0.351725
H15   H     H_    0.806265 0.911544 0.710837 0.353318
H16   H     H_    0.028129 0.669397 0.533496 0.363280
H17   H     H_    0.142640 0.607294 0.395094 0.346658
H18   H     H_    0.123313 0.500173 0.266148 0.187346
H19   H     H_    0.316147 0.547297 0.113012 0.184558
H20   H     H_    0.362210 0.422973 0.166904 0.193200
H21   H     H_    0.724134 0.673735 0.746760 0.176215
H22   H     H_    0.596292 0.717085 0.428671 0.189107
H23   H     H_    0.709115 0.833196 0.431135 0.187943
H24   H     H_    0.905077 0.727792 0.509685 0.253419
O1    O     O_R   0.408400 0.356680 0.448290 -0.586025
O2    O     O_R   0.948300 0.091670 0.539990 -0.595537
O3    O     O_R   0.143340 0.091640 0.551750 -0.618393
O4    O     O_R   0.408370 0.460100 0.551700 -0.591675
O5    O     O_R   0.039900 0.091690 0.448360 -0.559646
O6    O     O_R   0.051700 0.908430 0.460110 -0.591121
O7    O     O_R   0.948260 0.908480 0.356720 -0.553821
O8    O     O_R   0.960100 0.908410 0.551740 -0.608109
O9    O     O_R   0.856660 0.908460 0.448350 -0.626258
O10   O     O_R   0.591630 0.448290 0.539910 -0.575052
O11   O     O_R   0.591590 0.551710 0.643320 -0.623502
O12   O     O_R   0.051700 0.460090 0.908430 -0.538654
O13   O     O_R   0.591630 0.539900 0.448300 -0.552800
O14   O     O_R   0.591600 0.643320 0.551710 -0.637104
O15   O     O_R   0.408410 0.448290 0.356680 -0.608500
O16   O     O_R   0.408370 0.551710 0.460090 -0.622387
O17   O     O_R   0.948260 0.356680 0.908450 -0.612396
O18   O     O_2   0.605579 0.129854 0.481345 -0.604042
O19   O     O_R   0.520531 0.177881 0.420844 -0.745424
O20   O     O_2   0.243539 0.253407 0.702230 -0.528601
O21   O     O_R   0.358775 0.239135 0.706892 -0.690720
O22   O     O_2   0.272966 0.184369 0.253255 -0.569832
O23   O     O_R   0.856640 0.448300 0.908430 -0.585763
O24   O     O_R   0.321100 0.167308 0.372066 -0.699234
O25   O     O_2   0.876530 0.723047 0.712961 -0.617259
O26   O     O_R   0.838691 0.582166 0.635950 -0.722651
O27   O     O_2   0.167354 0.353886 0.689642 -0.512381
O28   O     O_R   0.041355 0.252759 0.562836 -0.770759
O29   O     O_2   0.943908 0.016073 0.740881 -0.572419
O30   O     O_R   0.801798 0.961308 0.704066 -0.753478
O31   O     O_2   0.083370 0.781840 0.499625 -0.578132
O32   O     O_R   0.989959 0.648208 0.469437 -0.725597
O33   O     O_2   0.991881 0.505279 0.287795 -0.566914
O34   O     O_R   0.960090 0.551710 0.908400 -0.565455
O35   O     O_R   0.113503 0.638702 0.374930 -0.779817
O36   O     O_R   0.948250 0.539920 0.091630 -0.595780
O37   O     O_R   0.051690 0.643330 0.091610 -0.584094
O38   O     O_R   0.039870 0.448310 0.091660 -0.600587
O39   O     O_R   0.143310 0.551720 0.091640 -0.626388
O40   O     O_R   0.051740 0.091620 0.643380 -0.571439
Zn1   Zn    Zn3+2 0.500020 0.430950 0.430950 1.153548
Zn2   Zn    Zn3+2 0.499980 0.569050 0.569050 1.064669
Zn3   Zn    Zn3+2 0.930910 0.430960 0.000050 1.137228
Zn4   Zn    Zn3+2 0.069050 0.569060 0.000020 1.160602
Zn5   Zn    Zn3+2 0.069070 0.000020 0.569080 1.140655
Zn6   Zn    Zn3+2 0.930930 0.000080 0.431020 1.146940

loop_
_geom_bond_atom_site_label_1
_geom_bond_atom_site_label_2
_ccdc_geom_bond_type
C69   O27   D    
C22   C29   A    
C20   Cl8   S    
C35   C53   S    
C73   C74   A    
C32   O12   A    
C62   Cl3   S    
C68   O26   S    
C19   C20   S    
C15   H12   S    
C30   H2    S    
O15   Zn1   S    
C7    C8    A    
C53   C54   A    
H10   O21   S    
C26   C27   A    
C29   C30   S    
C8    C38   S    
O3    Zn5   S    
C1    C5    S    
O37   Zn4   S    
C52   C61   A    
C54   Cl13  S    
C27   C29   A    
C60   C72   S    
C72   O33   D    
H17   O35   S    
O9    Zn6   S    
O23   Zn3   S    
C18   C19   A    
C46   C47   A    
C41   O9    A    
C55   Cl14  S    
C33   O23   A    
O2    Zn6   S    
C46   C69   S    
C2    Cl5   S    
C66   O22   D    
C38   O5    A    
C21   Cl9   S    
C45   C56   A    
O13   Zn1   S    
C8    C9    A    
C23   C33   S    
H16   O32   S    
C67   C73   A    
O36   Zn3   S    
C37   C47   S    
C9    C10   S    
O4    Zn2   S    
C2    C74   A    
C28   O15   A    
O16   Zn2   S    
C20   H19   S    
C69   O28   S    
C23   C63   A    
C59   C60   S    
C16   C24   S    
C13   C14   A    
C4    C56   S    
C68   O25   D    
C67   Cl4   S    
C1    O1    A    
C49   H3    S    
C32   O17   A    
C44   C46   A    
C6    C7    A    
C2    C45   A    
C31   C68   S    
C70   O30   S    
C22   C31   S    
C13   C19   A    
C4    O10   A    
C24   C25   A    
H9    O19   S    
C33   O34   A    
O17   Zn3   S    
C12   C63   A    
H14   O28   S    
C37   O2    A    
C58   C59   S    
C40   C52   A    
C31   Cl10  S    
C4    O11   A    
C30   H24   S    
C51   C53   A    
C12   C40   A    
C43   C44   A    
C60   H6    S    
C62   C63   A    
C3    C9    A    
C7    C65   S    
C10   Cl1   S    
C27   C41   S    
C6    Cl6   S    
C47   C48   A    
C64   O19   S    
C30   C31   S    
C23   C34   A    
C11   H1    S    
C17   C18   A    
C13   C21   S    
C50   H5    S    
C51   C58   A    
C42   C48   A    
O39   Zn4   S    
C12   C56   A    
C34   C45   A    
C25   H22   S    
C42   C50   S    
C66   O24   S    
O14   Zn2   S    
C48   C49   S    
C1    O4    A    
C64   O18   D    
O38   Zn3   S    
C55   C57   A    
O8    Zn5   S    
O10   Zn1   S    
C22   C24   A    
C52   H4    S    
C42   C43   A    
C37   O40   A    
C44   Cl11  S    
C72   O35   S    
H15   O30   S    
C65   O20   D    
C71   O31   D    
C16   O13   A    
C15   C17   A    
C54   C55   A    
C70   O29   D    
O5    Zn6   S    
O1    Zn1   S    
C3    C5    A    
C34   C67   A    
H13   O26   S    
C61   H7    S    
C36   O39   A    
C40   H21   S    
C39   O6    A    
C10   Cl7   S    
C49   C70   S    
O12   Zn4   S    
C25   C26   A    
C17   H18   S    
C38   O3    A    
C36   O38   A    
C57   C58   A    
C5    C6    A    
C16   O14   A    
O7    Zn6   S    
C39   O7    A    
C26   H23   S    
C32   C43   S    
H11   O24   S    
O40   Zn5   S    
C35   O36   A    
C41   O8    A    
C61   C62   A    
C21   H20   S    
C3    C11   S    
C10   C11   S    
C50   Cl12  S    
O34   Zn4   S    
C20   C21   S    
C49   C50   S    
C64   C74   S    
C14   C15   A    
O6    Zn5   S    
C51   C60   S    
C35   O37   A    
C73   H8    S    
C14   C28   S    
C18   C36   S    
C59   Cl2   S    
O11   Zn2   S    
C65   O21   S    
C28   O16   A    
C59   C71   S    
C71   O32   S    
C11   C66   S    
C39   C57   S    
