data_mof_unit_45670.cif
_audit_creation_date              2012-12-11T14:44:22-0500
_audit_creation_method            fapswitch 2.2
_symmetry_space_group_name_H-M    P1
_symmetry_Int_Tables_number       1
_space_group_crystal_system       triclinic
_cell_length_a                    25.064019
_cell_length_b                    16.737569
_cell_length_c                    15.816612
_cell_angle_alpha                 89.99996
_cell_angle_beta                  48.781038
_cell_angle_gamma                 89.999987
_cell_volume                      4991.00583056

loop_
_atom_site_label
_atom_site_type_symbol
_atom_type_description
_atom_site_fract_x
_atom_site_fract_y
_atom_site_fract_z
_atom_type_partial_charge
Br1   Br    Br    0.200812 0.969492 0.048092 -0.566228
Br2   Br    Br    0.665536 0.326012 0.289007 -0.518385
Br3   Br    Br    0.799188 0.969492 0.951908 -0.566227
Br4   Br    Br    0.334464 0.326012 0.710993 -0.518385
Br5   Br    Br    0.700812 0.469492 0.048092 -0.566228
Br6   Br    Br    0.165536 0.826012 0.289007 -0.518385
Br7   Br    Br    0.299188 0.469492 0.951908 -0.566227
Br8   Br    Br    0.834464 0.826012 0.710993 -0.518385
C1    C     C_R   0.349687 0.145045 0.762180 -0.061737
C2    C     C_3   0.716623 0.740047 0.595174 -0.066027
C3    C     C_3   0.781669 0.844208 0.249445 -0.338431
C4    C     C_3   0.271482 0.543975 0.252851 -0.277407
C5    C     C_3   0.718331 0.344208 0.750555 -0.338433
C6    C     C_3   0.728518 0.543975 0.747149 -0.277404
C7    C     C_3   0.281669 0.344208 0.249445 -0.338431
C8    C     C_3   0.765187 0.191180 0.584532 -0.103942
C9    C     C_3   0.283377 0.740047 0.404826 -0.066026
C10   C     C_3   0.734813 0.691180 0.415468 -0.103942
C11   C     C_3   0.216623 0.240047 0.595174 -0.066027
C12   C     C_3   0.265187 0.691180 0.584532 -0.103942
C13   C     C_3   0.783377 0.240047 0.404826 -0.066027
C14   C     C_2   0.649339 0.260208 0.137218 -0.310085
C15   C     C_2   0.300588 0.843227 0.984494 -0.298942
C16   C     C_2   0.350661 0.260208 0.862782 -0.310085
C17   C     C_R   0.667504 0.890824 0.194750 0.021532
C18   C     C_2   0.699412 0.843227 0.015506 -0.298942
C19   C     C_2   0.149339 0.760208 0.137218 -0.310084
C20   C     C_2   0.800588 0.343227 0.984494 -0.298942
C21   C     C_2   0.850661 0.760208 0.862782 -0.310084
C22   C     C_2   0.199412 0.343227 0.015506 -0.298942
C23   C     C_2   0.680295 0.316558 0.153543 0.336536
C24   C     C_2   0.232981 0.869138 0.059852 0.299770
C25   C     C_2   0.319705 0.316558 0.846456 0.336536
C26   C     C_2   0.767018 0.869138 0.940148 0.299770
C27   C     C_2   0.180295 0.816558 0.153543 0.336536
C28   C     C_R   0.650313 0.145045 0.237820 -0.061737
C29   C     C_2   0.732981 0.369138 0.059852 0.299770
C30   C     C_2   0.819705 0.816558 0.846456 0.336536
C31   C     C_2   0.267018 0.369138 0.940148 0.299770
C32   C     C_R   0.610733 0.118820 0.591741 -0.242939
C33   C     C_R   0.413296 0.851897 0.405483 -0.247855
C34   C     C_R   0.389267 0.118821 0.408259 -0.242938
C35   C     C_R   0.586703 0.851897 0.594517 -0.247856
C36   C     C_R   0.110733 0.618821 0.591741 -0.242939
C37   C     C_R   0.913296 0.351897 0.405483 -0.247855
C38   C     C_R   0.889267 0.618820 0.408259 -0.242938
C39   C     C_R   0.332496 0.890824 0.805250 0.021533
C40   C     C_R   0.086704 0.351897 0.594517 -0.247856
C41   C     C_R   0.686016 0.119034 0.405481 0.608497
C42   C     C_R   0.336284 0.851790 0.591225 0.589427
C43   C     C_R   0.313984 0.119034 0.594518 0.608497
C44   C     C_R   0.663716 0.851790 0.408775 0.589426
C45   C     C_R   0.186016 0.619034 0.405481 0.608497
C46   C     C_R   0.836283 0.351790 0.591225 0.589427
C47   C     C_R   0.813984 0.619034 0.594518 0.608496
C48   C     C_R   0.163716 0.351789 0.408775 0.589426
C49   C     C_R   0.561886 0.142100 0.236561 -0.086034
C50   C     C_R   0.849687 0.645045 0.762180 -0.061737
C51   C     C_R   0.421084 0.891369 0.803846 -0.120707
C52   C     C_R   0.438114 0.142100 0.763439 -0.086034
C53   C     C_R   0.578916 0.891369 0.196154 -0.120707
C54   C     C_R   0.061886 0.642100 0.236561 -0.086034
C55   C     C_R   0.921084 0.391369 0.803846 -0.120707
C56   C     C_R   0.938114 0.642100 0.763439 -0.086034
C57   C     C_R   0.078916 0.391369 0.196154 -0.120707
C58   C     C_R   0.380289 0.186770 0.795756 0.174022
C59   C     C_R   0.649686 0.872097 0.131768 0.138123
C60   C     C_R   0.619710 0.186770 0.204244 0.174022
C61   C     C_R   0.167504 0.390824 0.194750 0.021532
C62   C     C_R   0.350314 0.872098 0.868232 0.138123
C63   C     C_R   0.880289 0.686770 0.795756 0.174022
C64   C     C_R   0.149686 0.372098 0.131768 0.138123
C65   C     C_R   0.119710 0.686770 0.204244 0.174022
C66   C     C_R   0.850314 0.372098 0.868232 0.138123
C67   C     C_R   0.675275 0.145987 0.497006 -0.073637
C68   C     C_R   0.363069 0.806242 0.497731 -0.054304
C69   C     C_R   0.324725 0.145987 0.502994 -0.073638
C70   C     C_R   0.636930 0.806242 0.502269 -0.054303
C71   C     C_R   0.175275 0.645987 0.497006 -0.073637
C72   C     C_R   0.150313 0.645045 0.237820 -0.061737
C73   C     C_R   0.863069 0.306242 0.497731 -0.054303
C74   C     C_R   0.824725 0.645987 0.502994 -0.073637
C75   C     C_R   0.136931 0.306242 0.502269 -0.054303
C76   C     C_3   0.291578 0.233426 0.410549 -0.181289
C77   C     C_3   0.659526 0.698061 0.600626 -0.155446
C78   C     C_3   0.708422 0.233426 0.589451 -0.181289
C79   C     C_3   0.340474 0.698061 0.399373 -0.155446
C80   C     C_3   0.791578 0.733425 0.410549 -0.181289
C81   C     C_3   0.159526 0.198061 0.600626 -0.155446
C82   C     C_3   0.208422 0.733425 0.589451 -0.181289
C83   C     C_R   0.832496 0.390824 0.805250 0.021533
C84   C     C_3   0.840474 0.198061 0.399373 -0.155446
C85   C     C_3   0.736814 0.794000 0.499789 -0.191374
C86   C     C_3   0.215180 0.136336 0.511389 -0.157766
C87   C     C_3   0.263186 0.794000 0.500212 -0.191374
C88   C     C_3   0.784820 0.136336 0.488610 -0.157766
C89   C     C_3   0.236814 0.294000 0.499789 -0.191374
C90   C     C_3   0.715180 0.636336 0.511389 -0.157766
C91   C     C_3   0.763186 0.294001 0.500212 -0.191374
C92   C     C_3   0.284820 0.636336 0.488610 -0.157766
C93   C     C_3   0.680457 0.751749 0.504456 0.187877
C94   C     C_3   0.234813 0.191180 0.415468 -0.103942
C95   C     C_3   0.271141 0.179928 0.505851 0.202703
C96   C     C_3   0.319543 0.751749 0.495544 0.187876
C97   C     C_3   0.728859 0.179928 0.494149 0.202703
C98   C     C_3   0.180457 0.251749 0.504456 0.187877
C99   C     C_3   0.771141 0.679928 0.505851 0.202702
C100  C     C_3   0.819543 0.251749 0.495544 0.187876
C101  C     C_3   0.228859 0.679929 0.494149 0.202703
C102  C     C_3   0.771482 0.043975 0.252851 -0.277408
C103  C     C_3   0.218331 0.844208 0.750555 -0.338433
C104  C     C_3   0.228518 0.043975 0.747149 -0.277406
H1    H     H_    0.301158 0.159995 0.781026 0.185248
H2    H     H_    0.440518 0.838600 0.318628 0.142321
H3    H     H_    0.409266 0.118387 0.323293 0.130383
H4    H     H_    0.559482 0.838600 0.681372 0.142321
H5    H     H_    0.090734 0.618387 0.676707 0.130383
H6    H     H_    0.940518 0.338600 0.318628 0.142321
H7    H     H_    0.909266 0.618387 0.323293 0.130383
H8    H     H_    0.059482 0.338600 0.681372 0.142321
H9    H     H_    0.527684 0.156461 0.219702 0.099519
H10   H     H_    0.449252 0.894484 0.833895 0.105533
H11   H     H_    0.472316 0.156461 0.780298 0.099519
H12   H     H_    0.720887 0.896184 0.161901 0.157181
H13   H     H_    0.550748 0.894484 0.166105 0.105533
H14   H     H_    0.027684 0.656461 0.219702 0.099519
H15   H     H_    0.949252 0.394484 0.833895 0.105533
H16   H     H_    0.972316 0.656461 0.780298 0.099519
H17   H     H_    0.050748 0.394484 0.166105 0.105533
H18   H     H_    0.744823 0.859630 0.496057 0.122819
H19   H     H_    0.208391 0.070480 0.516484 0.130474
H20   H     H_    0.255177 0.859630 0.503943 0.122819
H21   H     H_    0.791609 0.070480 0.483516 0.130474
H22   H     H_    0.244823 0.359630 0.496057 0.122819
H23   H     H_    0.698842 0.159996 0.218973 0.185248
H24   H     H_    0.708391 0.570480 0.516484 0.130474
H25   H     H_    0.755177 0.359630 0.503943 0.122819
H26   H     H_    0.291609 0.570480 0.483516 0.130474
H27   H     H_    0.346694 0.247768 0.333457 0.123483
H28   H     H_    0.604269 0.684373 0.677733 0.135990
H29   H     H_    0.653306 0.247768 0.666543 0.123483
H30   H     H_    0.395730 0.684374 0.322266 0.135990
H31   H     H_    0.846694 0.747768 0.333457 0.123483
H32   H     H_    0.104270 0.184373 0.677733 0.135990
H33   H     H_    0.153306 0.747768 0.666543 0.123483
H34   H     H_    0.279113 0.896184 0.838099 0.157181
H35   H     H_    0.895730 0.184374 0.322266 0.135990
H36   H     H_    0.240429 0.171340 0.342987 0.157307
H37   H     H_    0.710644 0.760065 0.667955 0.170541
H38   H     H_    0.759571 0.171340 0.657013 0.157307
H39   H     H_    0.289356 0.760065 0.332045 0.170541
H40   H     H_    0.740428 0.671340 0.342987 0.157307
H41   H     H_    0.210644 0.260065 0.667955 0.170542
H42   H     H_    0.259571 0.671340 0.657013 0.157307
H43   H     H_    0.789356 0.260065 0.332045 0.170542
H44   H     H_    0.316567 0.790448 0.003061 0.152808
H45   H     H_    0.801158 0.659995 0.781026 0.185248
H46   H     H_    0.654916 0.262726 0.063031 0.143114
H47   H     H_    0.683433 0.790448 0.996939 0.152808
H48   H     H_    0.345083 0.262726 0.936970 0.143114
H49   H     H_    0.816567 0.290448 0.003061 0.152808
H50   H     H_    0.154916 0.762726 0.063031 0.143114
H51   H     H_    0.183433 0.290448 0.996939 0.152808
H52   H     H_    0.845083 0.762726 0.936970 0.143114
H53   H     H_    0.736060 0.017368 0.241419 0.156136
H54   H     H_    0.774347 0.006082 0.307439 0.123673
H55   H     H_    0.825523 0.046758 0.168882 0.197865
H56   H     H_    0.220887 0.396184 0.161901 0.157181
H57   H     H_    0.185610 0.789229 0.787392 0.184948
H58   H     H_    0.212173 0.870811 0.692992 0.121881
H59   H     H_    0.195448 0.886104 0.821263 0.166886
H60   H     H_    0.263940 0.017368 0.758581 0.156136
H61   H     H_    0.225653 0.006082 0.692560 0.123673
H62   H     H_    0.174477 0.046758 0.831118 0.197865
H63   H     H_    0.814390 0.789230 0.212608 0.184948
H64   H     H_    0.787827 0.870812 0.307009 0.121880
H65   H     H_    0.804552 0.886104 0.178737 0.166886
H66   H     H_    0.236060 0.517368 0.241419 0.156136
H67   H     H_    0.198842 0.659995 0.218973 0.185248
H68   H     H_    0.274347 0.506082 0.307439 0.123673
H69   H     H_    0.325523 0.546758 0.168882 0.197865
H70   H     H_    0.685610 0.289229 0.787392 0.184948
H71   H     H_    0.712173 0.370811 0.692992 0.121881
H72   H     H_    0.695448 0.386104 0.821263 0.166886
H73   H     H_    0.763940 0.517368 0.758581 0.156136
H74   H     H_    0.725653 0.506081 0.692560 0.123672
H75   H     H_    0.674477 0.546758 0.831118 0.197864
H76   H     H_    0.314390 0.289230 0.212608 0.184948
H77   H     H_    0.287827 0.370812 0.307009 0.121880
H78   H     H_    0.779113 0.396184 0.838099 0.157181
H79   H     H_    0.304552 0.386104 0.178737 0.166886
H80   H     H_    0.590734 0.118387 0.676707 0.130383
N1    N     N_R   0.389620 0.081040 0.705440 -0.063421
N2    N     N_R   0.417680 0.920160 0.443370 -0.069344
N3    N     N_R   0.417680 0.079840 0.443370 -0.058363
N4    N     N_R   0.582320 0.920160 0.556630 -0.069344
N5    N     N_R   0.082320 0.579840 0.556630 -0.058363
N6    N     N_R   0.917680 0.420160 0.443370 -0.069345
N7    N     N_R   0.917680 0.579840 0.443370 -0.058363
N8    N     N_R   0.082320 0.420160 0.556630 -0.069344
N9    N     N_R   0.627920 0.078930 0.443400 -0.106159
N10   N     N_R   0.372080 0.921070 0.556600 -0.118732
N11   N     N_R   0.372080 0.078930 0.556600 -0.106160
N12   N     N_R   0.610380 0.918960 0.294560 -0.061727
N13   N     N_R   0.627920 0.921070 0.443400 -0.118732
N14   N     N_R   0.127920 0.578930 0.443400 -0.106159
N15   N     N_R   0.872080 0.421070 0.556600 -0.118732
N16   N     N_R   0.872080 0.578930 0.556600 -0.106160
N17   N     N_R   0.127920 0.421070 0.443400 -0.118732
N18   N     N_R   0.555090 0.077730 0.294590 -0.044595
N19   N     N_R   0.444910 0.922270 0.705410 -0.045194
N20   N     N_R   0.444910 0.077730 0.705410 -0.044594
N21   N     N_R   0.555090 0.922270 0.294590 -0.045194
N22   N     N_R   0.055090 0.577730 0.294590 -0.044595
N23   N     N_R   0.610380 0.081040 0.294560 -0.063421
N24   N     N_R   0.944910 0.422270 0.705410 -0.045194
N25   N     N_R   0.944910 0.577730 0.705410 -0.044594
N26   N     N_R   0.055090 0.422270 0.294590 -0.045194
N27   N     N_R   0.389620 0.918960 0.705440 -0.061727
N28   N     N_R   0.889620 0.581040 0.705440 -0.063421
N29   N     N_R   0.110380 0.418960 0.294560 -0.061727
N30   N     N_R   0.110380 0.581040 0.294560 -0.063421
N31   N     N_R   0.889620 0.418960 0.705440 -0.061727
N32   N     N_R   0.582320 0.079840 0.556630 -0.058363
Ni1   Ni    Ni4+2 0.382970 1.000000 0.629840 0.225625
Ni2   Ni    Ni4+2 0.617030 1.000000 0.370160 0.225625
Ni3   Ni    Ni4+2 0.882970 0.500000 0.629840 0.225625
Ni4   Ni    Ni4+2 0.117030 0.500000 0.370160 0.225625
Ni5   Ni    Ni4+2 0.514540 1.000000 0.629840 0.206681
Ni6   Ni    Ni4+2 0.485460 1.000000 0.370160 0.206681
Ni7   Ni    Ni4+2 0.014540 0.500000 0.629840 0.206681
Ni8   Ni    Ni4+2 0.985460 0.500000 0.370160 0.206681
O1    O     O_3   0.750140 0.121734 0.296200 -0.644415
O2    O     O_3   0.288602 0.824721 0.700565 -0.634418
O3    O     O_3   0.249859 0.121734 0.703800 -0.644416
O4    O     O_3   0.711398 0.824721 0.299435 -0.634418
O5    O     O_3   0.250140 0.621734 0.296200 -0.644416
O6    O     O_3   0.788602 0.324721 0.700565 -0.634418
O7    O     O_3   0.749859 0.621734 0.703800 -0.644416
O8    O     O_3   0.211398 0.324721 0.299435 -0.634418

loop_
_geom_bond_atom_site_label_1
_geom_bond_atom_site_label_2
_ccdc_geom_bond_type
C37   H6    S    
C68   C96   S    
C4    H66   S    
C88   C97   S    
C2    C77   S    
C3    O4    S    
Br5   C29   S    
C61   C64   A    
C76   C94   S    
N2    Ni6   S    
C104  H62   S    
C72   N30   A    
C17   C59   A    
C33   H2    S    
C17   N12   A    
C20   C66   S    
N24   Ni7   S    
C43   C69   A    
C2    C99   S    
C82   C87   S    
C40   H8    S    
C57   C64   A    
N25   N28   A    
C91   C100  S    
C55   H15   S    
N29   Ni4   S    
C56   H16   S    
C3    H64   S    
C25   C31   S    
C53   N21   A    
C56   N25   A    
C40   N8    A    
C11   C81   S    
C18   C59   S    
C89   H22   S    
C45   C71   A    
N19   N27   A    
C82   H33   S    
C34   H3    S    
C28   N23   A    
C6    O7    S    
C13   C91   S    
C102  H53   S    
C1    N1    A    
C50   C63   A    
C57   N26   A    
N3    N11   A    
Br4   C25   S    
N18   N23   A    
N2    N10   A    
C90   H24   S    
C84   C88   S    
C103  O2    S    
Br6   C27   S    
C44   C70   A    
C43   O3    S    
C56   C63   A    
C81   C86   S    
C42   O2    S    
C1    C58   A    
C41   O1    S    
C77   C90   S    
N22   N30   A    
C94   H36   S    
C38   C74   A    
C11   C95   S    
C18   C26   D    
N3    Ni6   S    
C76   H27   S    
C43   N11   A    
C5    H71   S    
C12   C92   S    
C81   C98   S    
C38   H7    S    
C41   C67   A    
C54   C65   A    
C3    H65   S    
N8    Ni7   S    
C55   N24   A    
C84   C100  S    
C80   H31   S    
C61   N29   A    
C102  O1    S    
C16   C58   S    
C51   H10   S    
N5    Ni7   S    
C104  H61   S    
C7    H77   S    
C73   C100  S    
N22   Ni8   S    
C92   C101  S    
C26   C30   S    
C15   H44   S    
C70   C93   S    
C8    C78   S    
C54   N22   A    
C15   C62   S    
N5    N14   A    
C9    H39   S    
Br8   C30   S    
C22   H51   S    
C10   H40   S    
C32   C67   A    
C51   N19   A    
C20   H49   S    
N10   Ni1   S    
C75   C98   S    
C42   N10   A    
C11   C89   S    
N9    Ni2   S    
C83   H78   S    
C41   N9    A    
C8    C88   S    
C14   C23   D    
C71   C101  S    
C44   N13   A    
C72   H67   S    
C18   H47   S    
C46   O6    S    
C91   H25   S    
C45   O5    S    
C54   H14   S    
C80   C99   S    
C80   C85   S    
N1    N20   A    
C14   H46   S    
Br3   C26   S    
C19   C27   D    
C37   N6    A    
C12   H42   S    
C39   N27   A    
N12   N21   A    
Br1   C24   S    
C10   C80   S    
C90   C99   S    
C23   C29   S    
N28   Ni3   S    
Br2   C23   S    
C35   C70   A    
C10   C93   S    
C66   C83   A    
C21   C30   D    
C52   H11   S    
N7    Ni8   S    
C24   C27   S    
C39   C62   A    
C33   N2    A    
C47   N16   A    
C16   C25   D    
C42   C68   A    
C35   H4    S    
N4    N13   A    
C102  H55   S    
C53   C59   A    
C22   C64   S    
C4    H69   S    
C32   H80   S    
N30   Ni4   S    
C5    H72   S    
N26   Ni8   S    
C16   H48   S    
C45   N14   A    
C13   H43   S    
N31   Ni3   S    
N13   Ni2   S    
C74   C99   S    
N27   Ni1   S    
C47   C74   A    
C78   C91   S    
C52   N20   A    
C77   H28   S    
C14   C60   S    
C5    O6    S    
C82   C101  S    
C92   H26   S    
C9    C87   S    
C89   C98   S    
N15   Ni3   S    
C4    O5    S    
C4    H68   S    
C32   N32   A    
C86   C95   S    
C67   C97   S    
N17   Ni4   S    
C39   H34   S    
C87   H20   S    
C11   H41   S    
C6    H75   S    
C69   C95   S    
C78   C97   S    
C76   C89   S    
C49   C60   A    
N12   Ni2   S    
C85   H18   S    
C81   H32   S    
C28   H23   S    
N11   Ni1   S    
C77   C93   S    
C87   C96   S    
C44   O4    S    
C48   C75   A    
C79   C92   S    
N26   N29   A    
C6    H73   S    
C7    H79   S    
C49   N18   A    
N19   Ni5   S    
C85   C93   S    
N6    N15   A    
C9    C79   S    
C3    H63   S    
C48   O8    S    
C36   C71   A    
C37   C73   A    
N8    N17   A    
C21   C63   S    
C50   H45   S    
C9    C101  S    
C57   H17   S    
C28   C60   A    
C88   H21   S    
C12   C96   S    
C55   C66   A    
C19   H50   S    
C104  O3    S    
C21   H52   S    
C7    H76   S    
C50   N28   A    
C86   H19   S    
C2    C85   S    
C40   C75   A    
C103  H58   S    
C1    H1    S    
C15   C24   D    
N23   Ni2   S    
N16   Ni3   S    
N24   N31   A    
N1    Ni1   S    
C48   N17   A    
C2    H37   S    
C5    H70   S    
N32   Ni5   S    
N25   Ni7   S    
C33   C68   A    
C49   H9    S    
N20   Ni5   S    
C102  H54   S    
C38   N7    A    
C104  H60   S    
C12   C82   S    
C20   C29   D    
C6    H74   S    
C7    O8    S    
N7    N16   A    
C65   C72   A    
C22   C31   D    
C94   C98   S    
C103  H59   S    
C79   H30   S    
C34   N3    A    
C17   H12   S    
C103  H57   S    
N18   Ni6   S    
C61   H56   S    
C51   C62   A    
C8    C100  S    
N14   Ni4   S    
C52   C58   A    
C79   C96   S    
N6    Ni8   S    
C36   N5    A    
C36   H5    S    
N4    Ni5   S    
C86   C94   S    
C34   C69   A    
C46   N15   A    
C76   C95   S    
Br7   C31   S    
C35   N4    A    
C53   H13   S    
C10   C90   S    
N9    N32   A    
C47   O7    S    
C19   C65   S    
C8    H38   S    
C83   N31   A    
C46   C73   A    
C13   C97   S    
N21   Ni6   S    
C78   H29   S    
C84   H35   S    
C13   C84   S    
