data_mof_unit_65307.cif
_audit_creation_date              2012-12-10T20:08:50-0500
_audit_creation_method            fapswitch 2.2
_symmetry_space_group_name_H-M    P1
_symmetry_Int_Tables_number       1
_space_group_crystal_system       monoclinic
_cell_length_a                    32.086721
_cell_length_b                    32.086721
_cell_length_c                    35.591124
_cell_angle_alpha                 90.000033
_cell_angle_beta                  90.0
_cell_angle_gamma                 90.0
_cell_volume                      36643.1145035

loop_
_atom_site_label
_atom_site_type_symbol
_atom_type_description
_atom_site_fract_x
_atom_site_fract_y
_atom_site_fract_z
_atom_type_partial_charge
C1    C     C_R   0.919330 0.500000 0.000000 0.910773
C2    C     C_R   0.500000 0.080670 0.000000 0.910772
C3    C     C_R   0.080670 0.500000 0.000000 0.910772
C4    C     C_R   0.500000 0.919330 0.000000 0.910773
C5    C     C_R   0.419330 1.000000 0.500000 0.910773
C6    C     C_R   0.000000 0.580670 0.500000 0.910772
C7    C     C_R   0.580670 1.000000 0.500000 0.910772
C8    C     C_R   1.000000 0.419330 0.500000 0.910773
C9    C     C_R   0.771829 0.534768 0.013415 -0.271481
C10   C     C_R   0.534768 0.228171 0.013415 -0.271481
C11   C     C_R   0.228171 0.465232 0.013415 -0.271481
C12   C     C_R   0.465232 0.771829 0.013415 -0.271482
C13   C     C_R   0.771829 0.465232 0.986585 -0.271481
C14   C     C_R   0.534768 0.771829 0.986585 -0.271481
C15   C     C_R   0.228171 0.534768 0.986585 -0.271481
C16   C     C_R   0.465232 0.228171 0.986585 -0.271481
C17   C     C_R   0.271829 0.034768 0.513415 -0.271481
C18   C     C_R   0.034768 0.728171 0.513415 -0.271481
C19   C     C_R   0.728171 0.034768 0.486585 -0.271482
C20   C     C_R   0.965232 0.271829 0.513415 -0.271481
C21   C     C_R   0.271829 0.965232 0.486585 -0.271481
C22   C     C_R   0.034768 0.271829 0.486585 -0.271481
C23   C     C_R   0.728171 0.965232 0.513415 -0.271481
C24   C     C_R   0.965232 0.728171 0.486585 -0.271481
C25   C     C_R   0.793381 0.500000 0.000000 0.013302
C26   C     C_R   0.500000 0.206619 1.000000 0.013302
C27   C     C_R   0.206619 0.500000 0.000000 0.013302
C28   C     C_R   0.500000 0.793381 0.000000 0.013302
C29   C     C_R   0.293381 1.000000 0.500000 0.013302
C30   C     C_R   1.000000 0.706619 0.500000 0.013302
C31   C     C_R   0.706619 0.000000 0.500000 0.013302
C32   C     C_R   1.000000 0.293381 0.500000 0.013302
C33   C     C_1   0.662092 0.500000 0.000000 0.090990
C34   C     C_1   0.500000 0.337908 1.000000 0.090990
C35   C     C_1   0.337908 0.500000 0.000000 0.090990
C36   C     C_1   0.500000 0.662092 0.000000 0.090990
C37   C     C_1   0.162092 1.000000 0.500000 0.090990
C38   C     C_1   0.000000 0.837908 0.500000 0.090990
C39   C     C_1   0.837908 1.000000 0.500000 0.090990
C40   C     C_1   1.000000 0.162092 0.500000 0.090990
C41   C     C_1   0.837791 0.500000 0.000000 0.019544
C42   C     C_1   0.500000 0.162209 1.000000 0.019544
C43   C     C_1   0.162209 0.500000 0.000000 0.019544
C44   C     C_1   0.500000 0.837791 0.000000 0.019544
C45   C     C_1   0.337791 1.000000 0.500000 0.019544
C46   C     C_1   0.000000 0.662209 0.500000 0.019544
C47   C     C_1   0.662209 1.000000 0.500000 0.019544
C48   C     C_1   1.000000 0.337791 0.500000 0.019544
C49   C     C_1   0.875092 0.500000 0.000000 -0.178211
C50   C     C_1   0.500000 0.124908 1.000000 -0.178211
C51   C     C_1   0.124908 0.500000 0.000000 -0.178211
C52   C     C_1   0.500000 0.875092 0.000000 -0.178211
C53   C     C_1   0.375092 1.000000 0.500000 -0.178211
C54   C     C_1   0.000000 0.624908 0.500000 -0.178211
C55   C     C_1   0.624908 1.000000 0.500000 -0.178211
C56   C     C_1   0.000000 0.375092 0.500000 -0.178211
C57   C     C_1   0.624811 0.500000 0.000000 -0.147984
C58   C     C_1   0.500000 0.375189 1.000000 -0.147984
C59   C     C_1   0.375189 0.500000 0.000000 -0.147984
C60   C     C_1   0.500000 0.624811 0.000000 -0.147984
C61   C     C_1   0.124811 1.000000 0.500000 -0.147984
C62   C     C_1   0.000000 0.875189 0.500000 -0.147984
C63   C     C_1   0.875189 1.000000 0.500000 -0.147984
C64   C     C_1   1.000000 0.124811 0.500000 -0.147984
C65   C     C_R   0.500000 0.419397 0.000000 0.890624
C66   C     C_R   0.419397 0.500000 0.000000 0.890624
C67   C     C_R   0.500000 0.580603 0.000000 0.890623
C68   C     C_R   0.580603 0.500000 0.000000 0.890623
C69   C     C_R   1.000000 0.919397 0.500000 0.890624
C70   C     C_R   0.919397 1.000000 0.500000 0.890624
C71   C     C_R   1.000000 0.080603 0.500000 0.890623
C72   C     C_R   0.080603 1.000000 0.500000 0.890623
C73   C     C_R   1.000000 0.500000 0.926442 0.891609
C74   C     C_R   0.500000 1.000000 0.926442 0.891609
C75   C     C_R   0.000000 0.500000 0.073558 0.891608
C76   C     C_R   0.500000 0.000000 0.073558 0.891608
C77   C     C_R   0.500000 1.000000 0.426442 0.891609
C78   C     C_R   0.000000 0.500000 0.426442 0.891609
C79   C     C_R   0.500000 1.000000 0.573558 0.891608
C80   C     C_R   1.000000 0.500000 0.573558 0.891608
C81   C     C_R   0.038398 0.501000 0.673551 -0.022719
C82   C     C_R   0.501000 0.961602 0.673551 -0.022719
C83   C     C_R   0.961602 0.498999 0.673551 -0.022718
C84   C     C_R   0.499000 0.038398 0.673551 -0.022718
C85   C     C_R   0.038398 0.499000 0.326449 -0.022718
C86   C     C_R   0.501000 0.038398 0.326449 -0.022719
C87   C     C_R   0.961602 0.501000 0.326449 -0.022719
C88   C     C_R   0.499000 0.961602 0.326449 -0.022718
C89   C     C_R   0.461602 0.998999 0.173551 -0.022718
C90   C     C_R   0.999000 0.538398 0.173551 -0.022718
C91   C     C_R   0.538398 0.001000 0.173551 -0.022719
C92   C     C_R   0.001000 0.461602 0.173551 -0.022719
C93   C     C_R   0.461602 0.001000 0.826449 -0.022719
C94   C     C_R   0.999000 0.461602 0.826449 -0.022718
C95   C     C_R   0.538398 0.999000 0.826449 -0.022718
C96   C     C_R   0.001000 0.538398 0.826449 -0.022719
C97   C     C_R   0.037725 0.500567 0.634302 -0.218560
C98   C     C_R   0.500567 0.962275 0.634302 -0.218560
C99   C     C_R   0.962275 0.499433 0.634302 -0.218560
C100  C     C_R   0.499433 0.037725 0.634302 -0.218561
C101  C     C_R   0.037725 0.499433 0.365698 -0.218560
C102  C     C_R   0.500567 0.037725 0.365698 -0.218560
C103  C     C_R   0.962275 0.500567 0.365698 -0.218560
C104  C     C_R   0.499433 0.962274 0.365698 -0.218561
C105  C     C_R   0.462274 0.999433 0.134302 -0.218560
C106  C     C_R   0.999433 0.537726 0.134302 -0.218561
C107  C     C_R   0.537725 0.000567 0.134302 -0.218560
C108  C     C_R   0.000567 0.462274 0.134302 -0.218560
C109  C     C_R   0.462274 0.000567 0.865698 -0.218560
C110  C     C_R   0.999433 0.462274 0.865698 -0.218561
C111  C     C_R   0.537725 0.999433 0.865698 -0.218560
C112  C     C_R   0.000567 0.537725 0.865698 -0.218560
C113  C     C_R   1.000000 0.500000 0.614668 -0.088412
C114  C     C_R   0.500000 0.000000 0.614668 -0.088412
C115  C     C_R   0.000000 0.500000 0.385332 -0.088412
C116  C     C_R   0.500000 1.000000 0.385332 -0.088412
C117  C     C_R   0.500000 1.000000 0.114668 -0.088412
C118  C     C_R   0.000000 0.500000 0.114668 -0.088412
C119  C     C_R   0.500000 0.000000 0.885332 -0.088412
C120  C     C_R   0.000000 0.500000 0.885332 -0.088412
C121  C     C_R   1.000000 0.500000 0.693186 -0.039013
C122  C     C_R   0.500000 0.000000 0.693186 -0.039014
C123  C     C_R   1.000000 0.500000 0.306814 -0.039013
C124  C     C_R   0.500000 1.000000 0.306814 -0.039014
C125  C     C_R   0.500000 1.000000 0.193186 -0.039013
C126  C     C_R   0.000000 0.500000 0.193186 -0.039014
C127  C     C_R   0.500000 0.000000 0.806814 -0.039013
C128  C     C_R   1.000000 0.500000 0.806814 -0.039014
C129  C     C_1   1.000000 0.500000 0.733225 0.176910
C130  C     C_1   0.500000 1.000000 0.733225 0.176910
C131  C     C_1   1.000000 0.500000 0.266775 0.176910
C132  C     C_1   0.500000 1.000000 0.266775 0.176910
C133  C     C_1   0.500000 1.000000 0.233225 0.176910
C134  C     C_1   1.000000 0.500000 0.233225 0.176910
C135  C     C_1   0.500000 0.000000 0.766775 0.176910
C136  C     C_1   1.000000 0.500000 0.766775 0.176910
C137  C     C_R   0.728250 0.464699 0.987162 0.481861
C138  C     C_R   0.464699 0.271750 0.987162 0.481861
C139  C     C_R   0.271750 0.535300 0.987162 0.481860
C140  C     C_R   0.535301 0.728250 0.987162 0.481860
C141  C     C_R   0.728250 0.535301 0.012838 0.481861
C142  C     C_R   0.464699 0.728250 0.012838 0.481861
C143  C     C_R   0.271750 0.464699 0.012838 0.481860
C144  C     C_R   0.535301 0.271750 0.012838 0.481860
C145  C     C_R   0.228250 0.964699 0.487162 0.481860
C146  C     C_R   0.964699 0.771750 0.487162 0.481860
C147  C     C_R   0.771750 0.964699 0.512838 0.481859
C148  C     C_R   0.035301 0.228250 0.487162 0.481861
C149  C     C_R   0.228250 0.035300 0.512838 0.481860
C150  C     C_R   0.964699 0.228250 0.512838 0.481861
C151  C     C_R   0.771750 0.035300 0.487162 0.481861
C152  C     C_R   0.035301 0.771750 0.512838 0.481860
C153  C     C_R   0.706595 0.500000 0.000000 -0.096938
C154  C     C_R   0.500000 0.293405 1.000000 -0.096938
C155  C     C_R   0.293405 0.500000 1.000000 -0.096938
C156  C     C_R   0.500000 0.706595 0.000000 -0.096938
C157  C     C_R   0.206595 1.000000 0.500000 -0.096938
C158  C     C_R   0.000000 0.793405 0.500000 -0.096938
C159  C     C_R   0.793405 1.000000 0.500000 -0.096938
C160  C     C_R   1.000000 0.206595 0.500000 -0.096938
H1    H     H_    0.066861 0.501354 0.618915 0.196886
H2    H     H_    0.501354 0.933139 0.618915 0.196886
H3    H     H_    0.933139 0.498646 0.618915 0.196886
H4    H     H_    0.498646 0.066861 0.618915 0.196887
H5    H     H_    0.066861 0.498646 0.381085 0.196886
H6    H     H_    0.501354 0.066861 0.381085 0.196886
H7    H     H_    0.933139 0.501354 0.381085 0.196887
H8    H     H_    0.498646 0.933139 0.381085 0.196887
H9    H     H_    0.433139 0.998646 0.118915 0.196886
H10   H     H_    0.998646 0.566861 0.118915 0.196887
H11   H     H_    0.566861 0.001354 0.118915 0.196886
H12   H     H_    0.001354 0.433139 0.118915 0.196887
H13   H     H_    0.433139 0.001354 0.881085 0.196887
H14   H     H_    0.998646 0.433139 0.881085 0.196887
H15   H     H_    0.566861 0.998646 0.881085 0.196886
H16   H     H_    0.001354 0.566861 0.881085 0.196886
H17   H     H_    0.788729 0.438526 0.975827 0.176135
H18   H     H_    0.438526 0.211271 0.975827 0.176136
H19   H     H_    0.211271 0.561474 0.975827 0.176135
H20   H     H_    0.561474 0.788729 0.975827 0.176135
H21   H     H_    0.788729 0.561474 0.024173 0.176135
H22   H     H_    0.438526 0.788729 0.024173 0.176136
H23   H     H_    0.211271 0.438526 0.024173 0.176135
H24   H     H_    0.561474 0.211271 0.024173 0.176135
H25   H     H_    0.288729 0.938526 0.475827 0.176135
H26   H     H_    0.938526 0.711271 0.475827 0.176136
H27   H     H_    0.711271 0.938526 0.524173 0.176135
H28   H     H_    0.061474 0.288729 0.475827 0.176135
H29   H     H_    0.288729 0.061474 0.524173 0.176135
H30   H     H_    0.938526 0.288729 0.524173 0.176135
H31   H     H_    0.711271 0.061474 0.475827 0.176135
H32   H     H_    0.061474 0.711271 0.524172 0.176135
O1    O     O_R   0.939070 0.534350 0.999910 -0.610721
O2    O     O_R   0.534350 0.060930 0.999910 -0.610722
O3    O     O_R   0.060930 0.465650 0.999910 -0.610721
O4    O     O_R   0.465650 0.939070 0.999910 -0.610721
O5    O     O_R   0.939070 0.465650 0.000090 -0.610721
O6    O     O_R   0.534350 0.939070 0.000090 -0.610722
O7    O     O_R   0.060930 0.534350 0.000090 -0.610722
O8    O     O_R   0.465650 0.060930 0.000090 -0.610721
O9    O     O_R   0.439070 0.034350 0.499910 -0.610721
O10   O     O_R   0.034350 0.560930 0.499910 -0.610722
O11   O     O_R   0.560930 0.965650 0.499910 -0.610721
O12   O     O_R   0.965650 0.439070 0.499910 -0.610721
O13   O     O_R   0.439070 0.965650 0.500090 -0.610721
O14   O     O_R   0.034350 0.439070 0.500090 -0.610722
O15   O     O_R   0.560930 0.034350 0.500090 -0.610722
O16   O     O_R   0.965650 0.560930 0.500090 -0.610721
O17   O     O_R   0.000060 0.534350 0.944480 -0.620951
O18   O     O_R   0.534350 0.999940 0.944480 -0.620952
O19   O     O_R   0.999940 0.465650 0.944480 -0.620952
O20   O     O_R   0.465650 0.000060 0.944480 -0.620951
O21   O     O_R   0.000060 0.465650 0.055520 -0.620951
O22   O     O_R   0.534350 0.000060 0.055520 -0.620952
O23   O     O_R   0.999940 0.534350 0.055520 -0.620952
O24   O     O_R   0.465650 0.999940 0.055520 -0.620951
O25   O     O_R   0.500060 0.034350 0.444480 -0.620951
O26   O     O_R   0.034350 0.499940 0.444480 -0.620952
O27   O     O_R   0.499940 0.965650 0.444480 -0.620952
O28   O     O_R   0.965650 0.500060 0.444480 -0.620951
O29   O     O_R   0.500060 0.965650 0.555520 -0.620951
O30   O     O_R   0.034350 0.500060 0.555520 -0.620952
O31   O     O_R   0.499940 0.034350 0.555520 -0.620952
O32   O     O_R   0.965650 0.499940 0.555520 -0.620951
O33   O     O_R   0.500090 0.438950 0.968600 -0.609269
O34   O     O_R   0.438950 0.499910 0.968600 -0.609269
O35   O     O_R   0.499910 0.561050 0.968600 -0.609269
O36   O     O_R   0.561050 0.500090 0.968600 -0.609269
O37   O     O_R   0.500090 0.561050 0.031400 -0.609269
O38   O     O_R   0.438950 0.500090 0.031400 -0.609269
O39   O     O_R   0.499910 0.438950 0.031400 -0.609269
O40   O     O_R   0.561050 0.499910 0.031400 -0.609269
O41   O     O_R   0.000090 0.938950 0.468600 -0.609269
O42   O     O_R   0.938950 0.999910 0.468600 -0.609269
O43   O     O_R   0.999910 0.061050 0.468600 -0.609269
O44   O     O_R   0.061050 0.000090 0.468600 -0.609269
O45   O     O_R   0.000090 0.061050 0.531400 -0.609269
O46   O     O_R   0.938950 0.000090 0.531400 -0.609268
O47   O     O_R   0.999910 0.938950 0.531400 -0.609269
O48   O     O_R   0.061050 0.999910 0.531400 -0.609269
Zn1   Zn    Zn3+2 0.000000 0.545900 0.000000 1.000619
Zn2   Zn    Zn3+2 0.545900 0.000000 0.000000 1.000619
Zn3   Zn    Zn3+2 0.000000 0.454100 0.000000 1.000620
Zn4   Zn    Zn3+2 0.454100 0.000000 0.000000 1.000620
Zn5   Zn    Zn3+2 0.500000 0.045900 0.500000 1.000619
Zn6   Zn    Zn3+2 0.045900 0.500000 0.500000 1.000619
Zn7   Zn    Zn3+2 0.500000 0.954100 0.500000 1.000620
Zn8   Zn    Zn3+2 0.954100 0.500000 0.500000 1.000620
Zn9   Zn    Zn3+2 0.500000 0.500000 0.958130 1.012046
Zn10  Zn    Zn3+2 0.500000 0.500000 0.041870 1.012046
Zn11  Zn    Zn3+2 0.000000 0.000000 0.458130 1.012046
Zn12  Zn    Zn3+2 0.000000 0.000000 0.541870 1.012046
C161  C     C_2   0.079704 0.502655 0.692846 0.915444
O49   O     O_2   0.110796 0.489532 0.676837 -0.613396
O50   O     O_R   0.083571 0.519976 0.728732 -0.779815
H33   H     H_    0.113272 0.519319 0.738435 0.356979
C162  C     C_2   0.502655 0.920296 0.692846 0.915445
O51   O     O_2   0.489532 0.889204 0.676837 -0.613396
O52   O     O_R   0.519976 0.916429 0.728732 -0.779815
H34   H     H_    0.519319 0.886728 0.738435 0.356979
C163  C     C_2   0.920296 0.497345 0.692846 0.915446
O53   O     O_2   0.889204 0.510468 0.676837 -0.613397
O54   O     O_R   0.916429 0.480024 0.728732 -0.779815
H35   H     H_    0.886728 0.480680 0.738435 0.356979
C164  C     C_2   0.497345 0.079704 0.692846 0.915445
O55   O     O_2   0.510467 0.110796 0.676837 -0.613397
O56   O     O_R   0.480024 0.083571 0.728732 -0.779814
H36   H     H_    0.480681 0.113272 0.738435 0.356978
C165  C     C_2   0.079704 0.497345 0.307154 0.915444
O57   O     O_2   0.110796 0.510468 0.323163 -0.613396
O58   O     O_R   0.083571 0.480024 0.271268 -0.779815
H37   H     H_    0.113272 0.480681 0.261565 0.356979
C166  C     C_2   0.502655 0.079704 0.307154 0.915445
O59   O     O_2   0.489532 0.110796 0.323163 -0.613396
O60   O     O_R   0.519976 0.083571 0.271268 -0.779816
H38   H     H_    0.519319 0.113272 0.261565 0.356980
C167  C     C_2   0.920296 0.502655 0.307154 0.915445
O61   O     O_2   0.889204 0.489532 0.323163 -0.613396
O62   O     O_R   0.916428 0.519976 0.271268 -0.779815
H39   H     H_    0.886728 0.519320 0.261565 0.356979
C168  C     C_2   0.497345 0.920296 0.307154 0.915445
O63   O     O_2   0.510467 0.889204 0.323163 -0.613397
O64   O     O_R   0.480024 0.916428 0.271268 -0.779814
H40   H     H_    0.480681 0.886728 0.261565 0.356978
C169  C     C_2   0.420296 0.997345 0.192846 0.915446
O65   O     O_2   0.389204 0.010467 0.176837 -0.613397
O66   O     O_R   0.416429 0.980024 0.228732 -0.779815
H41   H     H_    0.386728 0.980680 0.238435 0.356979
C170  C     C_2   0.997345 0.579704 0.192846 0.915445
O67   O     O_2   0.010467 0.610796 0.176837 -0.613397
O68   O     O_R   0.980024 0.583571 0.228732 -0.779814
H42   H     H_    0.980681 0.613272 0.238435 0.356978
C171  C     C_2   0.579704 0.002655 0.192846 0.915444
O69   O     O_2   0.610796 0.989532 0.176837 -0.613396
O70   O     O_R   0.583571 0.019976 0.228732 -0.779815
H43   H     H_    0.613272 0.019319 0.238435 0.356979
C172  C     C_2   0.002655 0.420296 0.192846 0.915445
O71   O     O_2   0.989532 0.389204 0.176837 -0.613396
O72   O     O_R   0.019976 0.416429 0.228732 -0.779815
H44   H     H_    0.019319 0.386728 0.238435 0.356979
C173  C     C_2   0.420296 0.002655 0.807154 0.915445
O73   O     O_2   0.389204 0.989533 0.823163 -0.613396
O74   O     O_R   0.416428 0.019976 0.771268 -0.779815
H45   H     H_    0.386728 0.019319 0.761565 0.356979
C174  C     C_2   0.997345 0.420296 0.807154 0.915445
O75   O     O_2   0.010467 0.389204 0.823163 -0.613397
O76   O     O_R   0.980024 0.416429 0.771268 -0.779814
H46   H     H_    0.980681 0.386728 0.761565 0.356978
C175  C     C_2   0.579704 0.997345 0.807154 0.915444
O77   O     O_2   0.610796 0.010468 0.823163 -0.613396
O78   O     O_R   0.583571 0.980024 0.771268 -0.779815
H47   H     H_    0.613272 0.980681 0.761565 0.356979
C176  C     C_2   0.002655 0.579704 0.807154 0.915445
O79   O     O_2   0.989532 0.610796 0.823163 -0.613396
O80   O     O_R   0.019976 0.583571 0.771268 -0.779816
H48   H     H_    0.019319 0.613272 0.761565 0.356980
O81   O     O_3   0.706765 0.430851 0.972911 -0.587890
C177  C     C_3   0.706082 0.399258 0.000428 -0.284731
H49   H     H_    0.691020 0.410279 0.026817 0.162718
H50   H     H_    0.737988 0.387358 0.006347 0.164369
H51   H     H_    0.687348 0.372788 0.989618 0.190223
O82   O     O_3   0.430851 0.293235 0.972911 -0.587890
C178  C     C_3   0.399258 0.293918 0.000428 -0.284730
H52   H     H_    0.410279 0.308981 0.026817 0.162718
H53   H     H_    0.387358 0.262013 0.006348 0.164369
H54   H     H_    0.372788 0.312652 0.989618 0.190223
O83   O     O_3   0.293235 0.569149 0.972910 -0.587889
C179  C     C_3   0.293918 0.600742 0.000428 -0.284729
H55   H     H_    0.308980 0.589721 0.026817 0.162717
H56   H     H_    0.262012 0.612642 0.006347 0.164368
H57   H     H_    0.312652 0.627212 0.989618 0.190223
O84   O     O_3   0.569149 0.706765 0.972911 -0.587889
C180  C     C_3   0.600742 0.706082 0.000428 -0.284727
H58   H     H_    0.589721 0.691020 0.026818 0.162717
H59   H     H_    0.612642 0.737988 0.006347 0.164368
H60   H     H_    0.627212 0.687348 0.989618 0.190223
O85   O     O_3   0.706765 0.569149 0.027089 -0.587890
C181  C     C_3   0.706082 0.600742 0.999572 -0.284730
H61   H     H_    0.691019 0.589721 0.973182 0.162718
H62   H     H_    0.737987 0.612642 0.993652 0.164369
H63   H     H_    0.687348 0.627212 0.010382 0.190223
O86   O     O_3   0.430851 0.706765 0.027089 -0.587890
C182  C     C_3   0.399258 0.706082 0.999572 -0.284730
H64   H     H_    0.410279 0.691019 0.973182 0.162718
H65   H     H_    0.387358 0.737988 0.993653 0.164369
H66   H     H_    0.372788 0.687348 0.010382 0.190223
O87   O     O_3   0.293235 0.430851 0.027089 -0.587890
C183  C     C_3   0.293918 0.399258 0.999572 -0.284727
H67   H     H_    0.308981 0.410279 0.973182 0.162717
H68   H     H_    0.262012 0.387358 0.993653 0.164368
H69   H     H_    0.312652 0.372788 0.010382 0.190223
O88   O     O_3   0.569149 0.293235 0.027089 -0.587889
C184  C     C_3   0.600742 0.293918 0.999572 -0.284732
H70   H     H_    0.589721 0.308980 0.973182 0.162718
H71   H     H_    0.612642 0.262012 0.993653 0.164369
H72   H     H_    0.627212 0.312652 0.010382 0.190224
O89   O     O_3   0.206764 0.930851 0.472910 -0.587889
C185  C     C_3   0.206082 0.899258 0.500428 -0.284730
H73   H     H_    0.191019 0.910279 0.526817 0.162718
H74   H     H_    0.237988 0.887358 0.506347 0.164369
H75   H     H_    0.187348 0.872788 0.489618 0.190223
O90   O     O_3   0.930850 0.793235 0.472911 -0.587890
C186  C     C_3   0.899258 0.793918 0.500429 -0.284730
H76   H     H_    0.910280 0.808981 0.526818 0.162718
H77   H     H_    0.887358 0.762013 0.506349 0.164369
H78   H     H_    0.872788 0.812652 0.489619 0.190223
O91   O     O_3   0.793235 0.930851 0.527090 -0.587889
C187  C     C_3   0.793918 0.899258 0.499572 -0.284730
H79   H     H_    0.808980 0.910279 0.473183 0.162718
H80   H     H_    0.762012 0.887358 0.493653 0.164369
H81   H     H_    0.812652 0.872788 0.510382 0.190223
O92   O     O_3   0.069150 0.206764 0.472911 -0.587889
C188  C     C_3   0.100742 0.206082 0.500429 -0.284729
H82   H     H_    0.089721 0.191020 0.526818 0.162717
H83   H     H_    0.112642 0.237988 0.506348 0.164368
H84   H     H_    0.127212 0.187348 0.489619 0.190222
O93   O     O_3   0.206764 0.069149 0.527090 -0.587889
C189  C     C_3   0.206082 0.100742 0.499572 -0.284731
H85   H     H_    0.191019 0.089721 0.473183 0.162718
H86   H     H_    0.237987 0.112642 0.493653 0.164369
H87   H     H_    0.187348 0.127212 0.510382 0.190223
O94   O     O_3   0.930850 0.206765 0.527089 -0.587890
C190  C     C_3   0.899258 0.206082 0.499571 -0.284728
H88   H     H_    0.910279 0.191019 0.473182 0.162717
H89   H     H_    0.887358 0.237987 0.493652 0.164368
H90   H     H_    0.872788 0.187348 0.510381 0.190223
O95   O     O_3   0.793235 0.069149 0.472910 -0.587890
C191  C     C_3   0.793918 0.100742 0.500428 -0.284729
H91   H     H_    0.808980 0.089721 0.526817 0.162718
H92   H     H_    0.762012 0.112642 0.506347 0.164368
H93   H     H_    0.812652 0.127212 0.489618 0.190223
O96   O     O_3   0.069150 0.793235 0.527089 -0.587889
C192  C     C_3   0.100742 0.793918 0.499571 -0.284732
H94   H     H_    0.089721 0.808980 0.473182 0.162718
H95   H     H_    0.112642 0.762012 0.493652 0.164369
H96   H     H_    0.127212 0.812652 0.510380 0.190224

loop_
_geom_bond_atom_site_label_1
_geom_bond_atom_site_label_2
_ccdc_geom_bond_type
C89   C169  S    
O89   C185  S    
C147  O91   S    
C10   H24   S    
C78   C115  S    
C7    C55   S    
C8    C56   S    
O85   C181  S    
O20   Zn4   S    
C107  H11   S    
C180  H58   S    
O6    Zn2   S    
C18   H32   S    
C105  H9    S    
O25   Zn5   S    
C59   C66   S    
C109  H13   S    
C98   C114  A    
O58   H37   S    
O92   C188  S    
C185  H75   S    
C148  C160  A    
C7    O11   A    
C104  C116  A    
O68   H42   S    
C39   C159  S    
C138  C154  A    
C110  H14   S    
O28   Zn8   S    
C151  O95   S    
C106  C118  A    
C82   C98   A    
C6    C54   S    
C18   C152  A    
C41   C49   T    
C187  H79   S    
C184  H71   S    
C15   C139  A    
O9    Zn5   S    
C178  H52   S    
C84   C100  A    
C91   C107  A    
C8    O12   A    
O18   Zn2   S    
C188  H84   S    
C25   C41   S    
C112  C120  A    
O86   C182  S    
C89   C125  A    
O29   Zn7   S    
C173  O73   D    
C21   C29   A    
C28   C44   S    
C3    O3    A    
C72   O44   A    
C29   C45   S    
C23   C31   A    
C1    O1    A    
C145  C157  A    
C15   C27   A    
O74   H45   S    
C36   C156  S    
C11   C27   A    
O88   C184  S    
C90   C126  A    
C137  C153  A    
C69   O47   A    
C140  C156  A    
C87   C103  A    
C22   C148  A    
C138  O82   S    
C101  C115  A    
O95   C191  S    
C163  O54   S    
O36   Zn9   S    
C180  H60   S    
C4    O4    A    
C9    C141  A    
C91   C125  A    
C177  H51   S    
O46   Zn12  S    
C16   C138  A    
O13   Zn7   S    
C68   O36   A    
C192  H94   S    
C92   C172  S    
O22   Zn2   S    
C188  H83   S    
C169  O66   S    
C77   O25   A    
C75   O23   A    
C183  H67   S    
C85   C123  A    
C22   H28   S    
C67   O37   A    
C34   C58   T    
C142  C156  A    
C189  H85   S    
C11   C143  A    
C82   C122  A    
C187  H81   S    
C14   H20   S    
C19   H31   S    
C38   C62   T    
O34   Zn9   S    
C103  H7    S    
C15   H19   S    
C109  C119  A    
C88   C124  A    
C93   C127  A    
C22   C32   A    
C73   O17   A    
C35   C155  S    
C5    O9    A    
C161  O49   D    
C33   C153  S    
C176  O80   S    
O90   C186  S    
C90   C170  S    
C143  O87   S    
C124  C132  S    
C111  C119  A    
C162  O51   D    
C37   C157  S    
C69   O41   A    
C177  H50   S    
C2    C50   S    
C92   C108  A    
C60   C67   S    
C191  H91   S    
C174  O76   S    
C19   C151  A    
C139  C155  A    
O8    Zn4   S    
C6    O16   A    
O35   Zn9   S    
C44   C52   T    
C4    O6    A    
C45   C53   T    
C102  H6    S    
C167  O61   D    
C144  C154  A    
C106  H10   S    
C98   H2    S    
C137  O81   S    
O15   Zn5   S    
C88   C104  A    
C16   H18   S    
C175  O78   S    
C192  H96   S    
C139  O83   S    
C86   C166  S    
C141  O85   S    
C100  C114  A    
O84   C180  S    
C7    O15   A    
O17   Zn1   S    
C77   O27   A    
C75   O21   A    
C183  H69   S    
C178  H53   S    
C151  C159  A    
O16   Zn8   S    
C171  O69   D    
C27   C43   S    
C58   C65   S    
C143  C155  A    
C67   O35   A    
C186  H76   S    
C170  O67   D    
C10   C144  A    
C185  H74   S    
C164  O56   S    
C126  C134  S    
C42   C50   T    
C99   H3    S    
C112  H16   S    
C14   C140  A    
C34   C154  S    
C181  H62   S    
C108  H12   S    
C86   C124  A    
C186  H78   S    
C83   C163  S    
C57   C68   S    
C86   C102  A    
C26   C42   S    
C20   C32   A    
O3    Zn3   S    
O47   Zn12  S    
O1    Zn1   S    
C73   O19   A    
C1    O5    A    
C179  H55   S    
O42   Zn11  S    
O56   H36   S    
C146  O90   S    
C79   O31   A    
C146  C158  A    
C168  O64   S    
C181  H63   S    
C97   H1    S    
C81   C161  S    
C182  H65   S    
C190  H90   S    
C87   C123  A    
C141  C153  A    
C191  H93   S    
C166  O60   S    
C20   C150  A    
C140  O84   S    
C9    H21   S    
C80   O30   A    
C76   O22   A    
O11   Zn7   S    
C80   C113  S    
C89   C105  A    
O64   H40   S    
C83   C99   A    
C70   O46   A    
O52   H34   S    
C93   C109  A    
O24   Zn4   S    
C150  O94   S    
O94   C190  S    
C17   C29   A    
O60   H38   S    
C182  H64   S    
C131  C134  T    
C19   C31   A    
C187  H80   S    
C184  H70   S    
C9    C25   A    
O54   H35   S    
O31   Zn5   S    
C142  O86   S    
C150  C160  A    
C12   C28   A    
O14   Zn6   S    
C127  C135  S    
C128  C136  S    
C20   H30   S    
C96   C128  A    
C24   H26   S    
C64   C71   S    
C85   C165  S    
C95   C175  S    
C78   O28   A    
O32   Zn8   S    
C12   H22   S    
O33   Zn9   S    
O62   H39   S    
O45   Zn12  S    
C46   C54   T    
C173  O74   S    
O82   C178  S    
O80   H48   S    
C73   C120  S    
C31   C47   S    
C165  O57   D    
C32   C48   S    
C105  C117  A    
C75   C118  S    
C179  H57   S    
C30   C46   S    
C79   O29   A    
C180  H59   S    
C16   C26   A    
O10   Zn6   S    
C152  C158  A    
C65   O39   A    
O76   H46   S    
O19   Zn3   S    
C38   C158  S    
O70   H43   S    
C3    C51   S    
C23   C147  A    
C94   C110  A    
C62   C69   S    
C74   O20   A    
C2    O2    A    
C21   C145  A    
C103  C115  A    
O72   H44   S    
C169  O65   D    
C80   O32   A    
C96   C112  A    
C76   O24   A    
O66   H41   S    
C66   O34   A    
C183  H68   S    
C100  H4    S    
C172  O72   S    
C101  H5    S    
C90   C106  A    
C61   C72   S    
C130  C135  T    
C74   O18   A    
O48   Zn12  S    
C111  H15   S    
C189  H86   S    
C71   O45   A    
O87   C183  S    
C184  H72   S    
O7    Zn1   S    
C5    C53   S    
C148  O92   S    
C144  O88   S    
O5    Zn3   S    
C123  C131  S    
C40   C160  S    
C121  C129  S    
O96   C192  S    
C92   C126  A    
C99   C113  A    
C21   H25   S    
C94   C128  A    
C76   C117  S    
C189  H87   S    
O83   C179  S    
C24   C146  A    
C78   O26   A    
O30   Zn6   S    
C43   C51   T    
C176  O79   D    
C163  O53   D    
C13   H17   S    
C12   C142  A    
C95   C127  A    
C191  H92   S    
C174  O75   D    
C81   C121  A    
C149  C157  A    
C107  C117  A    
C23   H27   S    
O78   H47   S    
C172  O71   D    
O91   C187  S    
O43   Zn11  S    
C147  C159  A    
C88   C168  S    
C152  O96   S    
C175  O77   D    
C74   C119  S    
C192  H95   S    
O4    Zn4   S    
C2    O8    A    
O26   Zn6   S    
C93   C173  S    
C6    O10   A    
C149  O93   S    
C84   C122  A    
C87   C167  S    
C132  C133  T    
C94   C174  S    
C3    O7    A    
C72   O48   A    
C18   C30   A    
C77   C116  S    
C164  O55   D    
O37   Zn10  S    
C10   C26   A    
C82   C162  S    
C186  H77   S    
C13   C25   A    
C185  H73   S    
C4    C52   S    
C35   C59   T    
O23   Zn1   S    
C65   O33   A    
C108  C118  A    
O21   Zn3   S    
C11   H23   S    
C179  H56   S    
C110  C120  A    
C161  O50   S    
C145  O89   S    
C17   H29   S    
C168  O63   D    
C91   C171  S    
C162  O52   S    
C13   C137  A    
C8    O14   A    
C190  H89   S    
C177  H49   S    
C104  H8    S    
C129  C136  T    
C63   C70   S    
C166  O59   D    
C83   C121  A    
O93   C189  S    
O12   Zn8   S    
C71   O43   A    
C167  O62   S    
C182  H66   S    
O40   Zn10  S    
O44   Zn11  S    
C97   C113  A    
O50   H33   S    
C85   C101  A    
C47   C55   T    
C125  C133  S    
C48   C56   T    
C33   C57   T    
O2    Zn2   S    
C17   C149  A    
C36   C60   T    
C37   C61   T    
C39   C63   T    
C66   O38   A    
C40   C64   T    
C70   O42   A    
C178  H54   S    
C165  O58   S    
C171  O70   S    
C95   C111  A    
C188  H82   S    
C81   C97   A    
C170  O68   S    
C84   C164  S    
O27   Zn7   S    
O81   C177  S    
C24   C30   A    
C102  C116  A    
C5    O13   A    
O41   Zn11  S    
C68   O40   A    
C181  H61   S    
C79   C114  S    
C14   C28   A    
O38   Zn10  S    
O39   Zn10  S    
C1    C49   S    
C96   C176  S    
C122  C130  S    
C190  H88   S    
