data_mof_unit_68162.cif
_audit_creation_date              2013-03-05T16:02:16-0500
_audit_creation_method            fapswitch 2.2
_symmetry_space_group_name_H-M    P1
_symmetry_Int_Tables_number       1
_space_group_crystal_system       triclinic
_cell_length_a                    22.336251
_cell_length_b                    7.401292
_cell_length_c                    14.584654
_cell_angle_alpha                 90.170859
_cell_angle_beta                  104.69197
_cell_angle_gamma                 90.232324
_cell_volume                      2332.21895218

loop_
_atom_site_label
_atom_site_type_symbol
_atom_site_description
_atom_site_fract_x
_atom_site_fract_y
_atom_site_fract_z
_atom_type_partial_charge
O1    O     O_R   0.835850 0.638310 0.002120 -0.550055
O2    O     O_R   0.164150 0.361690 0.997880 -0.565656
O3    O     O_R   0.664150 0.138310 0.997880 -0.568051
O4    O     O_R   0.335850 0.861690 0.002120 -0.542031
O5    O     O_R   0.717530 0.306070 0.861970 -0.541955
O6    O     O_R   0.282470 0.693930 0.138030 -0.537729
O7    O     O_R   0.782470 0.806070 0.138030 -0.549909
O8    O     O_R   0.217530 0.193930 0.861970 -0.540570
C1    C     C_R   0.703370 0.476632 0.826771 0.991390
C2    C     C_R   0.301583 0.525306 0.169513 1.023887
C3    C     C_R   0.796412 0.974869 0.174494 1.004295
C4    C     C_R   0.198602 0.024088 0.830708 1.005669
O9    O     O_R   0.838690 0.308440 0.993250 -0.598062
O10   O     O_R   0.161310 0.691560 0.006750 -0.604952
O11   O     O_R   0.661310 0.808440 0.006750 -0.597406
O12   O     O_R   0.338690 0.191560 0.993250 -0.616473
O13   O     O_R   0.786170 0.140510 0.130090 -0.522953
O14   O     O_R   0.213830 0.859490 0.869910 -0.543274
O15   O     O_R   0.713830 0.640510 0.869910 -0.536243
O16   O     O_R   0.286170 0.359490 0.130090 -0.542346
C5    C     C_R   0.864704 0.476526 0.996830 1.008045
C6    C     C_R   0.133970 0.522461 0.989715 1.047882
C7    C     C_R   0.634798 0.976262 0.999383 1.033551
C8    C     C_R   0.365875 0.023136 0.008001 1.043727
O17   O     O_3   0.732630 0.472520 0.044740 -0.300615
O18   O     O_3   0.267370 0.527480 0.955260 -0.309451
O19   O     O_3   0.767370 0.972520 0.955260 -0.298196
O20   O     O_3   0.232630 0.027480 0.044740 -0.315736
V1    V     V_3+5 0.753220 0.196740 0.991700 1.260107
V2    V     V_3+5 0.246780 0.803260 0.008300 1.269900
V3    V     V_3+5 0.746780 0.696740 0.008300 1.255243
V4    V     V_3+5 0.253220 0.303260 0.991700 1.259606
C9    C     C_R   0.522017 0.981289 0.818180 0.576887
C10   C     C_R   0.478568 0.015154 0.193772 0.610242
C11   C     C_R   0.976611 0.504769 0.176510 0.553018
C12   C     C_R   0.020827 0.494693 0.801355 0.581752
C13   C     C_R   0.469663 0.970602 0.740421 -0.258652
C14   C     C_R   0.529067 0.017252 0.271977 -0.296700
C15   C     C_R   0.028377 0.488644 0.255072 -0.270064
C16   C     C_R   0.969772 0.478246 0.723548 -0.331605
C17   C     C_R   0.411077 0.937129 0.750801 0.532616
C18   C     C_R   0.588342 0.004079 0.264653 0.496445
C19   C     C_R   0.086794 0.450357 0.245631 0.535453
C20   C     C_R   0.912151 0.430815 0.731764 0.591471
C21   C     C_R   0.401737 0.946253 0.840842 -0.462696
C22   C     C_R   0.599438 0.985579 0.174943 -0.446569
C23   C     C_R   0.096675 0.454661 0.155969 -0.458517
C24   C     C_R   0.901997 0.419601 0.822537 -0.474060
C25   C     C_R   0.451088 0.978412 0.923094 0.024748
C26   C     C_R   0.550161 0.990101 0.089963 0.041958
C27   C     C_R   0.047966 0.483965 0.073035 0.017239
C28   C     C_R   0.949957 0.462418 0.906235 0.026974
C29   C     C_R   0.514548 0.980976 0.914268 -0.064546
C30   C     C_R   0.486366 0.004758 0.097742 0.027087
C31   C     C_R   0.984560 0.491646 0.081115 -0.075927
C32   C     C_R   0.013448 0.488207 0.897913 0.034567
C33   C     C_R   0.435741 0.006643 0.011581 -0.148575
C34   C     C_R   0.565442 0.984217 0.999724 -0.197227
C35   C     C_R   0.063796 0.504207 0.984529 -0.132736
C36   C     C_R   0.933996 0.481642 0.995745 -0.194431
H1    H     H_    0.474365 0.980381 0.668735 0.241586
H2    H     H_    0.522543 0.025629 0.342629 0.244766
H3    H     H_    0.024356 0.509745 0.326398 0.244222
H4    H     H_    0.975411 0.485168 0.652202 0.243689
H5    H     H_    0.354302 0.930586 0.844161 0.183720
H6    H     H_    0.647344 0.976011 0.172987 0.128225
H7    H     H_    0.144048 0.435396 0.153376 0.186483
H8    H     H_    0.855758 0.383907 0.826426 0.155383
C37   C     C_R   0.160706 0.014684 0.733760 -0.212833
C38   C     C_R   0.824520 0.966697 0.279789 -0.276473
C39   C     C_R   0.341116 0.519871 0.266157 -0.220740
C40   C     C_R   0.675636 0.487562 0.723714 -0.266247
C41   C     C_R   0.165641 0.000050 0.572601 -0.002067
C42   C     C_R   0.808902 0.867537 0.431884 0.043026
C43   C     C_R   0.337332 0.482706 0.426690 -0.008658
C44   C     C_R   0.694851 0.528681 0.569271 -0.026703
C45   C     C_R   0.192860 0.037495 0.665745 -0.183363
C46   C     C_R   0.787267 0.893813 0.334189 -0.158970
C47   C     C_R   0.309713 0.531243 0.335410 -0.202797
C48   C     C_R   0.715558 0.527900 0.667330 -0.163585
C49   C     C_R   0.095120 0.988175 0.709015 0.603917
C50   C     C_R   0.888896 0.985761 0.323812 0.605926
C51   C     C_R   0.406936 0.500023 0.289456 0.605017
C52   C     C_R   0.611055 0.473383 0.681418 0.564532
C53   C     C_R   0.064573 0.958848 0.609693 -0.069458
C54   C     C_R   0.912317 0.938589 0.422982 -0.080396
C55   C     C_R   0.438667 0.466739 0.388468 -0.061780
C56   C     C_R   0.590133 0.462095 0.579150 -0.105501
C57   C     C_R   0.103251 0.953599 0.544472 -0.059283
C58   C     C_R   0.870686 0.895464 0.478135 -0.031201
C59   C     C_R   0.400166 0.442283 0.453238 -0.057550
C60   C     C_R   0.632960 0.494084 0.523988 -0.029931
C61   C     C_R   0.998822 0.931952 0.568765 0.113241
C62   C     C_R   0.976270 0.928539 0.468839 0.047149
C63   C     C_R   0.505133 0.459693 0.430697 0.063370
C64   C     C_R   0.527346 0.429457 0.529373 0.052379
C65   C     C_R   0.017178 0.870057 0.418727 -0.132524
C66   C     C_R   0.955871 0.882641 0.619468 -0.218581
C67   C     C_R   0.487333 0.343564 0.572970 -0.121395
C68   C     C_R   0.550706 0.462030 0.380857 -0.255843
C69   C     C_R   0.079312 0.895390 0.451347 0.530387
C70   C     C_R   0.892130 0.872434 0.577843 0.632997
C71   C     C_R   0.425040 0.371967 0.543848 0.534748
C72   C     C_R   0.613856 0.487718 0.424018 0.674171
H9    H     H_    0.739951 0.861857 0.299858 0.173412
H10   H     H_    0.240642 0.077824 0.687425 0.199985
H11   H     H_    0.763776 0.557599 0.699948 0.184309
H12   H     H_    0.261763 0.566872 0.315204 0.212241
H13   H     H_    0.193974 0.006500 0.522530 0.183935
H14   H     H_    0.778272 0.817281 0.471898 0.197486
H15   H     H_    0.308533 0.474444 0.475852 0.177202
H16   H     H_    0.727520 0.557519 0.528156 0.225604
H17   H     H_    0.001387 0.796900 0.354194 0.220495
H18   H     H_    0.970870 0.833079 0.689250 0.196439
H19   H     H_    0.504454 0.258234 0.631898 0.218616
H20   H     H_    0.539619 0.414138 0.311398 0.209069
S1    S     S_3+6 0.646448 0.032521 0.371541 -0.105967
O21   O     O_2   0.699476 0.143303 0.356579 -0.275157
O22   O     O_2   0.619936 0.122542 0.444634 -0.336363
O23   O     O_3   0.671481 0.832671 0.416511 -0.622760
H21   H     H_    0.678521 0.848967 0.485843 0.367796
S2    S     S_3+6 0.348667 0.892668 0.649737 -0.097847
O24   O     O_2   0.317358 0.061617 0.607203 -0.288369
O25   O     O_2   0.372393 0.799820 0.574358 -0.322421
O26   O     O_3   0.294833 0.765336 0.681355 -0.613156
H22   H     H_    0.263776 0.737421 0.621249 0.377532
S3    S     S_3+6 0.858436 0.366035 0.623875 -0.083116
O27   O     O_2   0.837627 0.522252 0.559731 -0.291186
O28   O     O_2   0.892093 0.244660 0.571866 -0.320297
O29   O     O_3   0.795770 0.259824 0.640542 -0.615484
H23   H     H_    0.775509 0.205134 0.578214 0.400576
S4    S     S_3+6 0.149063 0.408809 0.346973 -0.101832
O30   O     O_2   0.182453 0.577149 0.387675 -0.282981
O31   O     O_2   0.125309 0.321728 0.423865 -0.317242
O32   O     O_3   0.201330 0.277350 0.314813 -0.625896
H24   H     H_    0.232615 0.250900 0.374663 0.369234
S5    S     S_3+6 0.591379 0.031052 0.784267 -0.013889
O33   O     O_2   0.610174 0.210919 0.825970 -0.337570
O34   O     O_2   0.643935 0.906030 0.820715 -0.222035
O35   O     O_3   0.581124 0.037463 0.666021 -0.547223
H25   H     H_    0.621736 0.074868 0.656446 0.374410
S6    S     S_3+6 0.410027 0.030705 0.230900 -0.041323
O36   O     O_2   0.373705 0.179968 0.179410 -0.327025
O37   O     O_2   0.374225 0.862448 0.207495 -0.264498
O38   O     O_3   0.421094 0.067908 0.347999 -0.564668
H26   H     H_    0.379036 0.068952 0.358727 0.386369
S7    S     S_3+6 0.909349 0.587160 0.206903 -0.020521
O39   O     O_2   0.900716 0.770473 0.163864 -0.346583
O40   O     O_2   0.850930 0.480455 0.170826 -0.217484
O41   O     O_3   0.919304 0.598487 0.324983 -0.566330
H27   H     H_    0.878304 0.572505 0.336583 0.389069
S8    S     S_3+6 0.089049 0.522594 0.762224 -0.034608
O42   O     O_2   0.128884 0.662632 0.818612 -0.310257
O43   O     O_2   0.124288 0.352778 0.772421 -0.268548
O44   O     O_3   0.074163 0.579577 0.647118 -0.575522
H28   H     H_    0.114641 0.573595 0.631064 0.390051
O45   O     O_3   0.116475 0.827568 0.397526 -0.636673
C73   C     C_3   0.125832 0.953668 0.330311 0.314256
H29   H     H_    0.174817 0.993582 0.353920 0.162922
H30   H     H_    0.094991 0.072135 0.322666 0.190853
C74   C     C_3   0.116294 0.866519 0.232649 -0.335583
H31   H     H_    0.153960 0.768726 0.233584 0.218653
H32   H     H_    0.070964 0.797673 0.214175 0.228781
C75   C     C_3   0.115135 0.003501 0.154767 -0.799769
H33   H     H_    0.076160 0.098296 0.149411 0.279197
H34   H     H_    0.107215 0.931150 0.086218 0.256680
H35   H     H_    0.159631 0.078186 0.167934 0.293420
O46   O     O_3   0.851045 0.825624 0.632308 -0.664442
C76   C     C_3   0.856802 0.936619 0.713682 0.209514
H36   H     H_    0.809585 0.980021 0.714738 0.178759
H37   H     H_    0.886293 0.056318 0.714514 0.207392
C77   C     C_3   0.881372 0.835767 0.806074 -0.405860
H38   H     H_    0.845920 0.737153 0.815688 0.198305
H39   H     H_    0.924195 0.766362 0.803728 0.240345
C78   C     C_3   0.896958 0.964380 0.890831 -0.766861
H40   H     H_    0.937335 0.050410 0.888794 0.300495
H41   H     H_    0.908811 0.886571 0.957835 0.264901
H42   H     H_    0.856982 0.052510 0.889762 0.262351
O47   O     O_3   0.388855 0.306836 0.600302 -0.635447
C79   C     C_3   0.379055 0.440901 0.664060 0.325766
H43   H     H_    0.332737 0.496507 0.633997 0.159139
H44   H     H_    0.414497 0.549685 0.676868 0.188189
C80   C     C_3   0.378645 0.358305 0.759827 -0.324395
H45   H     H_    0.336658 0.273583 0.753461 0.212940
H46   H     H_    0.420045 0.274834 0.783611 0.236687
C81   C     C_3   0.382175 0.498808 0.837266 -0.789407
H47   H     H_    0.423481 0.586358 0.843968 0.278224
H48   H     H_    0.387508 0.428385 0.905533 0.253476
H49   H     H_    0.339417 0.580350 0.823411 0.297099
O48   O     O_3   0.659023 0.472561 0.372957 -0.599021
C82   C     C_3   0.642381 0.551335 0.281306 0.297593
H50   H     H_    0.683594 0.621607 0.270276 0.124302
H51   H     H_    0.605908 0.654066 0.273985 0.146552
C83   C     C_3   0.624886 0.409233 0.202971 -0.337377
H52   H     H_    0.665860 0.325718 0.201592 0.236724
H53   H     H_    0.588402 0.323081 0.215794 0.235222
C84   C     C_3   0.599331 0.491842 0.106040 -0.852268
H54   H     H_    0.560310 0.584277 0.105500 0.310299
H55   H     H_    0.582910 0.383616 0.052640 0.269077
H56   H     H_    0.636784 0.566480 0.087326 0.277168
S9    S     S_3+6 0.937015 0.107019 0.264837 -0.038243
O49   O     O_2   0.963455 0.254719 0.333173 -0.266327
O50   O     O_2   0.989163 0.003657 0.243333 -0.389869
O51   O     O_3   0.899785 0.186883 0.159599 -0.493528
H57   H     H_    0.908852 0.102684 0.111958 0.366651
S10   S     S_3+6 0.055043 0.021999 0.800956 -0.067975
O52   O     O_2   0.997784 0.127637 0.761860 -0.355065
O53   O     O_2   0.036181 0.850561 0.839314 -0.386483
O54   O     O_3   0.096722 0.133364 0.895165 -0.509639
H58   H     H_    0.115197 0.039219 0.941572 0.358169
S11   S     S_3+6 0.558050 0.542503 0.749216 -0.044709
O55   O     O_2   0.518694 0.679848 0.688080 -0.315632
O56   O     O_2   0.515872 0.398333 0.768636 -0.374027
O57   O     O_3   0.591482 0.628750 0.856116 -0.495030
H59   H     H_    0.596124 0.526545 0.900946 0.362828
S12   S     S_3+6 0.444444 0.533101 0.194478 -0.066167
O58   O     O_2   0.495214 0.666929 0.225838 -0.377370
O59   O     O_2   0.472734 0.365897 0.167628 -0.388596
O60   O     O_3   0.398059 0.609095 0.093830 -0.497235
H60   H     H_    0.383537 0.500125 0.055340 0.361556

loop_
_geom_bond_atom_site_label_1
_geom_bond_atom_site_label_2
_geom_bond_distance
_ccdc_geom_bond_type
O17   V3    1.795148 S    
C7    C34   1.551767 S    
C51   C55   1.460377 A    
C4    C37   1.453420 S    
C56   C64   1.425464 A    
C20   S3    1.782852 S    
O1    C5    1.373340 A    
O45   C73   1.408382 S    
C55   C59   1.441001 A    
O19   V1    1.794587 S    
C63   C64   1.417052 A    
O13   V1    2.010641 S    
S9    O49   1.492255 D    
O3    C7    1.367424 A    
S7    O39   1.489229 D    
C68   H20   1.040720 S    
S12   O60   1.668162 S    
C68   C72   1.403100 A    
O15   V3    2.006910 S    
C39   C47   1.370608 A    
C74   H31   1.109532 S    
S9    O50   1.493806 D    
C3    C38   1.505976 S    
O32   H24   0.990600 S    
C78   H41   1.109083 S    
C27   C31   1.451947 A    
O23   H21   0.990058 S    
O7    C3    1.359964 A    
S5    O34   1.487308 D    
C48   H11   1.082661 S    
C26   C30   1.462290 A    
C43   C47   1.367486 A    
C46   H9    1.073534 S    
O9    V1    2.072141 S    
C19   S4    1.782439 S    
S7    O40   1.498034 D    
S12   O59   1.487630 D    
C22   H6    1.080228 S    
C80   H46   1.095590 S    
C67   H19   1.059353 S    
C77   H38   1.109807 S    
O4    C8    1.359650 A    
S10   O53   1.489931 D    
C66   H18   1.054934 S    
C83   C84   1.515545 S    
C38   C46   1.395216 A    
C45   H10   1.074162 S    
C64   C67   1.375962 A    
O1    V3    2.061775 S    
C25   C33   1.431804 A    
O2    V4    2.061777 S    
C76   H36   1.107554 S    
C84   H55   1.109825 S    
C58   C70   1.421976 A    
C28   C36   1.444631 A    
C73   C74   1.526354 S    
C37   C45   1.374663 A    
C1    O15   1.356531 A    
C3    O13   1.380792 A    
C56   C60   1.417057 A    
C2    O16   1.359128 A    
C8    C33   1.553442 S    
C55   C63   1.457092 A    
O2    C6    1.360564 A    
C1    C40   1.475904 S    
O14   V2    2.010641 S    
C54   C62   1.417712 A    
C16   C20   1.367061 A    
O5    V1    2.029648 S    
C79   C80   1.528457 S    
C44   H16   1.076607 S    
C2    C39   1.461983 S    
O11   C7    1.370956 A    
C83   H52   1.110822 S    
C69   O45   1.374300 S    
O12   C8    1.382162 A    
C10   C14   1.385876 A    
C31   C36   1.454913 A    
C81   H48   1.104811 S    
C9    C29   1.452722 A    
S9    O51   1.660924 S    
C76   H37   1.100033 S    
S6    O38   1.684092 S    
C75   H33   1.107698 S    
C53   C61   1.450874 A    
S3    O28   1.496048 D    
O10   V2    2.072139 S    
O20   V4    2.271211 S    
C23   H7    1.078381 S    
C74   H32   1.101828 S    
C79   H44   1.108482 S    
C51   S12   1.808250 S    
C78   H42   1.104856 S    
C39   C51   1.430757 A    
O17   V1    2.270416 S    
S5    O35   1.681999 S    
C52   S11   1.799116 S    
O7    V3    2.022560 S    
C11   C31   1.449583 A    
C82   H50   1.102490 S    
C26   C34   1.441591 A    
C52   C56   1.447566 A    
C12   C16   1.394520 A    
S7    O41   1.681373 S    
O35   H25   0.990697 S    
C5    C36   1.552118 S    
C67   C71   1.365172 A    
C54   C58   1.411425 A    
S1    O23   1.660470 S    
C9    S5    1.779239 S    
C6    C35   1.555260 S    
C53   C57   1.438618 A    
S10   O52   1.487618 D    
C12   S8    1.769083 S    
C23   C27   1.424688 A    
C62   C65   1.377128 A    
C66   C70   1.400615 A    
O19   V3    2.271210 S    
O6    V2    2.029649 S    
C9    C13   1.409230 A    
O8    V4    2.022559 S    
C17   S2    1.781933 S    
C84   H56   1.091990 S    
C11   C15   1.412062 A    
C80   H45   1.109988 S    
C82   H51   1.102094 S    
O48   C82   1.421000 S    
O5    C1    1.371830 A    
C12   C32   1.459711 A    
C65   C69   1.360157 A    
S11   O55   1.488690 D    
S8    O44   1.681949 S    
C21   C25   1.426976 A    
O8    C4    1.364287 A    
C72   O48   1.402320 S    
O54   H58   0.988626 S    
O9    C5    1.366160 A    
C61   C62   1.416209 A    
C11   S7    1.780211 S    
C17   C21   1.382447 A    
S12   O58   1.483687 D    
O11   V3    2.078360 S    
C40   C52   1.421039 A    
C44   C60   1.394918 A    
O46   C76   1.419805 S    
S11   O56   1.495120 D    
S8    O43   1.473472 D    
O18   V2    2.270415 S    
C18   C22   1.398485 A    
O26   H22   0.990787 S    
C76   C77   1.519316 S    
S6    O37   1.468926 D    
C80   C81   1.519993 S    
C27   C35   1.430371 A    
C65   H17   1.063222 S    
S3    O27   1.489390 D    
C83   H53   1.086030 S    
O38   H26   0.990792 S    
O60   H60   0.986726 S    
C74   C75   1.520167 S    
C79   H43   1.098372 S    
O16   V4    2.006911 S    
S10   O54   1.664978 S    
C10   S6    1.752684 S    
C70   O46   1.400729 S    
C57   C69   1.393730 A    
C63   C68   1.392889 A    
C75   H35   1.108293 S    
C44   C48   1.387020 A    
C59   C71   1.399989 A    
C24   H8    1.080407 S    
O6    C2    1.363446 A    
C50   S9    1.779366 S    
C13   H1    1.079564 S    
C29   C34   1.458480 A    
C77   C78   1.525586 S    
C18   S1    1.768765 S    
C41   H13   1.081884 S    
O18   V4    1.795147 S    
C43   C59   1.391986 A    
O12   V4    2.078362 S    
C15   H3    1.077565 S    
S5    O33   1.476323 D    
C22   C26   1.434309 A    
C43   H15   1.079598 S    
C16   H4    1.080746 S    
C32   C35   1.466968 A    
O10   C6    1.384207 A    
S2    O26   1.679702 S    
S1    O22   1.500060 D    
O29   H23   0.991284 S    
C81   H47   1.108931 S    
S3    O29   1.673648 S    
C41   C57   1.390594 A    
O20   V2    1.794587 S    
C40   C48   1.389890 A    
C78   H40   1.108496 S    
C50   C54   1.451976 A    
S1    O21   1.499046 D    
C21   H5    1.078625 S    
C73   H30   1.105566 S    
C10   C30   1.456379 A    
C42   C58   1.388120 A    
C73   H29   1.099389 S    
C19   C23   1.380702 A    
C81   H49   1.106649 S    
S4    O32   1.677455 S    
C25   C29   1.455487 A    
O57   H59   0.989784 S    
C75   H34   1.106304 S    
C77   H39   1.095632 S    
C47   H12   1.070566 S    
S4    O30   1.491454 D    
C71   O47   1.378516 S    
C13   C17   1.376517 A    
C84   H54   1.108673 S    
C38   C50   1.424526 A    
O4    V2    2.058501 S    
C82   C83   1.525509 S    
C37   C49   1.429660 A    
C60   C72   1.412089 A    
O47   C79   1.413035 S    
C14   C18   1.358883 A    
C20   C24   1.401372 A    
C24   C28   1.438666 A    
S11   O57   1.671986 S    
O51   H57   0.990946 S    
C15   C19   1.376854 A    
S4    O31   1.502623 D    
C42   C46   1.398104 A    
C4    O14   1.354830 A    
O44   H28   0.990899 S    
S2    O24   1.493038 D    
C41   C45   1.367240 A    
S6    O36   1.464837 D    
C49   S10   1.808526 S    
O3    V1    2.058503 S    
S8    O42   1.469192 D    
C42   H14   1.071801 S    
S2    O25   1.501883 D    
C61   C66   1.399658 A    
C49   C53   1.451417 A    
C28   C32   1.465451 A    
O41   H27   0.990775 S    
C14   H2    1.078294 S    
C30   C33   1.461996 A    
