data_mof_unit_36910.cif
_audit_creation_date              2012-12-11T14:07:50-0500
_audit_creation_method            fapswitch 2.2
_symmetry_space_group_name_H-M    P1
_symmetry_Int_Tables_number       1
_space_group_crystal_system       triclinic
_cell_length_a                    19.686677
_cell_length_b                    16.972705
_cell_length_c                    15.422461
_cell_angle_alpha                 90.242853
_cell_angle_beta                  53.53324
_cell_angle_gamma                 89.804262
_cell_volume                      4144.06420439

loop_
_atom_site_label
_atom_site_type_symbol
_atom_type_description
_atom_site_fract_x
_atom_site_fract_y
_atom_site_fract_z
_atom_type_partial_charge
C1    C     C_R   0.338457 0.173039 0.053590 -0.135764
C2    C     C_R   0.380824 0.800965 0.987533 -0.021497
C3    C     C_R   0.838451 0.673000 0.053651 -0.134048
C4    C     C_R   0.877563 0.301672 0.992214 -0.074781
C5    C     C_R   0.633221 0.894230 0.105379 -0.121450
C6    C     C_R   0.669406 0.082649 0.050771 -0.083459
C7    C     C_R   0.133110 0.394197 0.105515 -0.105934
C8    C     C_R   0.169736 0.582698 0.050112 -0.097972
C9    C     C_R   0.710319 0.146907 0.982207 0.175763
C10   C     C_R   0.650212 0.815146 0.073752 0.178164
C11   C     C_R   0.210792 0.646866 0.981042 0.171542
C12   C     C_R   0.149981 0.315072 0.074050 0.182546
C13   C     C_R   0.692456 0.862373 0.679085 0.189925
C14   C     C_R   0.614335 0.184186 0.697393 0.193027
C15   C     C_R   0.192977 0.362984 0.679401 0.184347
C16   C     C_R   0.102946 0.684640 0.701001 0.250228
C17   C     C_3   0.379708 0.229213 0.469288 1.216938
C18   C     C_3   0.183115 0.863432 0.513359 1.228353
C19   C     C_3   0.881308 0.730695 0.468066 1.202480
C20   C     C_3   0.740988 0.360393 0.523358 1.154653
C21   C     C_3   0.332095 0.287919 0.565479 0.448474
C22   C     C_3   0.131414 0.820102 0.622971 0.458141
C23   C     C_3   0.832583 0.788937 0.564813 0.468902
C24   C     C_3   0.680113 0.315681 0.628165 0.459540
C25   C     C_3   0.345866 0.326323 0.373048 0.259312
C26   C     C_3   0.306062 0.775175 0.470598 0.146705
C27   C     C_3   0.845503 0.826416 0.372578 0.253735
C28   C     C_3   0.796365 0.231864 0.413597 0.245517
C29   C     C_3   0.754192 0.706107 0.468272 0.119022
C30   C     C_3   0.664578 0.301287 0.453664 0.161812
C31   C     C_3   0.252606 0.207095 0.468889 0.122274
C32   C     C_3   0.218347 0.735984 0.405659 0.233354
C33   C     C_3   0.345684 0.237365 0.399508 -0.309957
C34   C     C_3   0.257918 0.808426 0.425870 -0.299966
C35   C     C_3   0.846850 0.737677 0.398640 -0.296625
C36   C     C_3   0.754909 0.313983 0.425015 -0.265089
C37   C     C_3   0.752519 0.819241 0.577099 -0.068491
C38   C     C_3   0.661659 0.233684 0.601985 -0.107441
C39   C     C_3   0.252521 0.319549 0.577541 -0.061123
C40   C     C_3   0.154391 0.731051 0.602751 -0.084306
C41   C     C_3   0.783642 0.872079 0.477691 -0.647064
C42   C     C_3   0.746743 0.190346 0.521561 -0.607751
C43   C     C_3   0.284583 0.372486 0.477944 -0.635858
C44   C     C_3   0.247449 0.718829 0.562763 -0.534759
C45   C     C_R   0.353837 0.824919 0.220437 0.768634
C46   C     C_R   0.401832 0.200122 0.206828 0.738234
C47   C     C_R   0.853201 0.325226 0.219753 0.781924
C48   C     C_R   0.902572 0.700316 0.206271 0.738303
C49   C     C_3   0.702407 0.748894 0.576832 -0.416165
C50   C     C_3   0.614126 0.245160 0.551015 -0.396495
C51   C     C_3   0.201391 0.250102 0.577310 -0.419072
C52   C     C_3   0.145233 0.703088 0.513963 -0.483066
C53   C     C_2   0.284529 0.685492 0.960681 -0.360630
C54   C     C_2   0.191512 0.259086 0.099783 -0.320681
C55   C     C_2   0.783469 0.185556 0.962939 -0.351643
C56   C     C_2   0.691790 0.759196 0.099421 -0.352185
C57   C     C_2   0.817051 0.249266 0.899749 0.748503
C58   C     C_2   0.706333 0.683693 0.064757 0.782063
C59   C     C_2   0.318411 0.749062 0.896998 0.751413
C60   C     C_2   0.206213 0.183628 0.064906 0.791118
C61   C     C_R   0.368236 0.887762 0.893216 -0.028973
C62   C     C_R   0.327660 0.085428 0.955729 -0.000250
C63   C     C_R   0.867334 0.387742 0.894508 -0.027468
C64   C     C_R   0.827678 0.585437 0.955702 0.005159
C65   C     C_R   0.408512 0.108244 0.302754 -0.181770
C66   C     C_R   0.364374 0.915928 0.316334 -0.102541
C67   C     C_R   0.910006 0.608816 0.301759 -0.209617
C68   C     C_R   0.859103 0.421757 0.313824 -0.065608
C69   C     C_R   0.284896 0.145887 0.031088 -0.081997
C70   C     C_R   0.353075 0.810493 0.925534 -0.106378
C71   C     C_R   0.784921 0.645877 0.031084 -0.073299
C72   C     C_R   0.850461 0.311002 0.929371 -0.085197
C73   C     C_R   0.318043 0.851525 0.324650 -0.035309
C74   C     C_R   0.392927 0.187131 0.301650 0.040899
C75   C     C_R   0.812194 0.357380 0.323014 -0.042535
C76   C     C_R   0.894623 0.687703 0.300507 0.048936
C77   C     C_R   0.659402 0.178670 0.956491 -0.017504
C78   C     C_R   0.624006 0.799680 0.010436 -0.055234
C79   C     C_R   0.159685 0.678382 0.955476 -0.017910
C80   C     C_R   0.123815 0.299630 0.010685 -0.048849
C81   C     C_R   0.650765 0.828651 0.780927 -0.094776
C82   C     C_R   0.602920 0.198771 0.792782 -0.096529
C83   C     C_R   0.151033 0.329046 0.781150 -0.098543
C84   C     C_R   0.097204 0.699515 0.793277 -0.133793
C85   C     C_R   0.593289 0.107048 0.696785 -0.155970
C86   C     C_R   0.642328 0.923478 0.686711 -0.137533
C87   C     C_R   0.086861 0.606189 0.700562 -0.146912
C88   C     C_R   0.142754 0.424001 0.686972 -0.144454
H1    H     H_    0.327498 0.219907 0.107751 0.179249
H2    H     H_    0.396057 0.745164 0.005832 0.167051
H3    H     H_    0.827481 0.719815 0.107899 0.177914
H4    H     H_    0.890722 0.246114 0.013297 0.177655
H5    H     H_    0.373954 0.338265 0.549995 0.091586
H6    H     H_    0.147344 0.844672 0.675791 0.089078
H7    H     H_    0.873540 0.839965 0.549851 0.111928
H8    H     H_    0.710537 0.309310 0.669760 0.093711
H9    H     H_    0.812904 0.926729 0.481390 0.232660
H10   H     H_    0.783254 0.188573 0.555551 0.250483
H11   H     H_    0.314632 0.426559 0.481548 0.232629
H12   H     H_    0.253777 0.727385 0.629208 0.237904
H13   H     H_    0.753953 0.642120 0.484165 0.205010
H14   H     H_    0.631113 0.359119 0.477278 0.189306
H15   H     H_    0.251337 0.142994 0.484924 0.207348
H16   H     H_    0.192163 0.755124 0.362034 0.220098
H17   H     H_    0.686742 0.706500 0.641135 0.211915
H18   H     H_    0.549761 0.269793 0.611447 0.233631
H19   H     H_    0.185011 0.207546 0.641762 0.211704
H20   H     H_    0.083785 0.723749 0.533527 0.257031
H21   H     H_    0.641181 0.769617 0.595757 0.231069
H22   H     H_    0.606262 0.187001 0.524653 0.221116
H23   H     H_    0.140519 0.271795 0.596037 0.231415
H24   H     H_    0.145741 0.638441 0.505547 0.215884
H25   H     H_    0.322317 0.333601 0.323704 0.215711
H26   H     H_    0.363423 0.742143 0.405951 0.195681
H27   H     H_    0.821670 0.832849 0.323437 0.211961
H28   H     H_    0.792944 0.194025 0.357447 0.212320
H29   H     H_    0.729418 0.890070 0.477324 0.224536
H30   H     H_    0.737394 0.128035 0.508047 0.206955
H31   H     H_    0.230745 0.391507 0.477315 0.228639
H32   H     H_    0.267535 0.656858 0.534766 0.234776
H33   H     H_    0.298026 0.671370 0.017573 0.153580
H34   H     H_    0.225442 0.286033 0.127264 0.129826
H35   H     H_    0.796229 0.171516 0.020542 0.149329
H36   H     H_    0.725804 0.786167 0.126767 0.135966
H37   H     H_    0.364602 0.913860 0.832194 0.157796
H38   H     H_    0.305487 0.050447 0.918511 0.151602
H39   H     H_    0.864349 0.413129 0.832612 0.155433
H40   H     H_    0.805531 0.550492 0.918425 0.151613
H41   H     H_    0.414287 0.077491 0.359093 0.221313
H42   H     H_    0.355952 0.952565 0.379203 0.230515
H43   H     H_    0.916544 0.578367 0.357644 0.225451
H44   H     H_    0.849064 0.460824 0.375655 0.221978
H45   H     H_    0.668073 0.231310 0.912248 0.173803
H46   H     H_    0.619692 0.743990 0.980361 0.188865
H47   H     H_    0.168507 0.730439 0.910123 0.176813
H48   H     H_    0.119378 0.243925 0.980753 0.188957
H49   H     H_    0.668378 0.776408 0.802980 0.183307
H50   H     H_    0.604103 0.254677 0.825581 0.156686
H51   H     H_    0.168546 0.276774 0.803259 0.183006
H52   H     H_    0.102115 0.756001 0.821746 0.137641
H53   H     H_    0.587927 0.078714 0.638185 0.120141
H54   H     H_    0.652767 0.960850 0.623674 0.116605
H55   H     H_    0.074838 0.575452 0.649651 0.120698
H56   H     H_    0.153514 0.461819 0.624063 0.124151
H57   H     H_    0.637531 0.921443 0.165478 0.131025
H58   H     H_    0.690775 0.048768 0.089610 0.127796
H59   H     H_    0.137444 0.421450 0.165572 0.134918
H60   H     H_    0.191378 0.548800 0.088625 0.131024
N1    N     N_R   0.408680 0.130160 0.995800 -0.037479
N2    N     N_R   0.408680 0.869840 0.995800 -0.046015
N3    N     N_R   0.908680 0.630160 0.995800 -0.036771
N4    N     N_R   0.908680 0.369840 0.995800 -0.055191
N5    N     N_R   0.421680 0.867580 0.153120 -0.124430
N6    N     N_R   0.421680 0.132420 0.153120 -0.113274
N7    N     N_R   0.921680 0.367580 0.153120 -0.119271
N8    N     N_R   0.921680 0.632420 0.153120 -0.114334
N9    N     N_R   0.403730 0.921770 0.935950 -0.067125
N10   N     N_R   0.403730 0.078230 0.935950 -0.062565
N11   N     N_R   0.903730 0.421770 0.935950 -0.068104
N12   N     N_R   0.903730 0.578230 0.935950 -0.062863
N13   N     N_R   0.426630 0.075970 0.212960 -0.089686
N14   N     N_R   0.426630 0.924030 0.212960 -0.101127
N15   N     N_R   0.926630 0.575970 0.212960 -0.094807
N16   N     N_R   0.926630 0.424030 0.212960 -0.094923
N17   N     N_R   0.591320 0.134600 0.004200 -0.072696
N18   N     N_R   0.591320 0.865400 0.004200 -0.074291
N19   N     N_R   0.091320 0.634600 0.004200 -0.070955
N20   N     N_R   0.091320 0.365400 0.004200 -0.074568
N21   N     N_R   0.578320 0.867660 0.846880 -0.071895
N22   N     N_R   0.578320 0.132340 0.846880 -0.058779
N23   N     N_R   0.078320 0.367660 0.846880 -0.068307
N24   N     N_R   0.078320 0.632340 0.846880 -0.054723
N25   N     N_R   0.573370 0.074390 0.787040 -0.050002
N26   N     N_R   0.573370 0.925610 0.787040 -0.053052
N27   N     N_R   0.073370 0.574390 0.787040 -0.055527
N28   N     N_R   0.073370 0.425610 0.787040 -0.052029
N29   N     N_R   0.596270 0.927870 0.064040 -0.053180
N30   N     N_R   0.596270 0.072130 0.064040 -0.059476
N31   N     N_R   0.096270 0.427870 0.064040 -0.055807
N32   N     N_R   0.096270 0.572130 0.064040 -0.058683
Ni1   Ni    Ni4+2 0.500000 0.131190 0.000000 0.301784
Ni2   Ni    Ni4+2 0.500000 0.868810 0.000000 0.252655
Ni3   Ni    Ni4+2 1.000000 0.631190 0.000000 0.296645
Ni4   Ni    Ni4+2 0.000000 0.368810 0.000000 0.256883
Ni5   Ni    Ni4+2 0.488650 0.000000 0.862740 0.233290
Ni6   Ni    Ni4+2 0.988650 0.500000 0.862740 0.230665
Ni7   Ni    Ni4+2 0.511350 0.000000 0.137260 0.243256
Ni8   Ni    Ni4+2 0.011350 0.500000 0.137260 0.249110
F1    F     F_    0.366250 0.153752 0.510570 -0.660884
F2    F     F_    0.131795 0.881213 0.481988 -0.623130
F3    F     F_    0.869466 0.655175 0.508647 -0.660581
F4    F     F_    0.707987 0.435049 0.532482 -0.657541
F5    F     F_    0.812873 0.752426 0.657288 -0.640401
F6    F     F_    0.605368 0.357842 0.696236 -0.634237
F7    F     F_    0.311968 0.251412 0.658149 -0.654910
F8    F     F_    0.045510 0.831568 0.675012 -0.613010
Br1   Br    Br    0.458063 0.374084 0.289284 -0.319925
Br2   Br    Br    0.348489 0.852676 0.522474 -0.439679
Br3   Br    Br    0.956853 0.875857 0.288671 -0.322610
Br4   Br    Br    0.916347 0.234642 0.354911 -0.374032
Br5   Br    Br    0.697443 0.713793 0.398437 -0.527769
Br6   Br    Br    0.658814 0.263101 0.338559 -0.356819
Br7   Br    Br    0.196348 0.216470 0.398587 -0.489637
Br8   Br    Br    0.298104 0.647094 0.323897 -0.449168
F9    F     F_    0.323705 0.769573 0.189055 -0.707574
F10   F     F_    0.413697 0.270768 0.159246 -0.697619
F11   F     F_    0.840616 0.253473 0.193458 -0.703998
F12   F     F_    0.914629 0.770804 0.158254 -0.701461
F13   F     F_    0.808507 0.263764 0.819977 -0.687342
F14   F     F_    0.657961 0.645844 0.041882 -0.677101
F15   F     F_    0.308623 0.764072 0.818430 -0.684737
F16   F     F_    0.157888 0.145767 0.041963 -0.671420
F17   F     F_    0.465694 0.243004 0.407865 -0.638934
F18   F     F_    0.210810 0.934183 0.526652 -0.675755
F19   F     F_    0.967066 0.746022 0.406592 -0.651390
F20   F     F_    0.816592 0.368900 0.510668 -0.676197

loop_
_geom_bond_atom_site_label_1
_geom_bond_atom_site_label_2
_ccdc_geom_bond_type
C61   C70   A    
C2    N2    A    
C39   C51   S    
C82   N22   A    
C1    H1    S    
N2    N9    A    
C48   C76   A    
N6    N13   A    
C19   C23   S    
N18   Ni2   S    
N12   Ni6   S    
C25   C43   S    
C6    C9    A    
C83   H51   S    
C53   C59   D    
C26   C44   S    
N5    Ni2   S    
N2    Ni2   S    
C54   C60   D    
C68   C75   A    
C81   H49   S    
N25   Ni5   S    
C28   Br4   S    
C17   C33   S    
C48   F12   S    
C37   C41   S    
C56   H36   S    
N11   Ni6   S    
C3    H3    S    
N9    Ni5   S    
C38   C42   S    
C61   N9    A    
C24   H8    S    
N26   Ni5   S    
N14   Ni7   S    
C6    H58   S    
C58   C71   S    
C52   H24   S    
C77   N17   A    
N6    Ni1   S    
C13   C81   A    
C16   C84   A    
C66   N14   A    
C45   C73   A    
C64   C71   A    
C68   H44   S    
C27   C41   S    
C32   C52   S    
N32   Ni8   S    
C26   C34   S    
N19   Ni3   S    
C20   C24   S    
N8    N15   A    
C23   H7    S    
N20   Ni4   S    
C83   N23   A    
C13   C86   A    
C16   C87   A    
C85   N25   A    
N21   N26   A    
C31   C33   S    
C1    N1    A    
C9    C55   S    
C81   N21   A    
N4    Ni4   S    
C28   H28   S    
N1    N10   A    
C48   N8    A    
C13   C37   S    
C11   C53   S    
N24   N27   A    
C53   H33   S    
C68   N16   A    
N19   N32   A    
C30   C50   S    
N4    N11   A    
C12   C54   S    
C6    N30   A    
C84   H52   S    
N1    Ni1   S    
N17   N30   A    
C22   H6    S    
C22   F8    S    
C8    H60   S    
C77   H45   S    
C79   H47   S    
C50   H22   S    
C17   F17   S    
N8    Ni3   S    
C59   F15   S    
C55   H35   S    
C33   C74   S    
C58   F14   S    
C10   C78   A    
C7    C12   A    
C4    N4    A    
C57   F13   S    
C35   C76   S    
C78   N18   A    
C5    H57   S    
C61   H37   S    
C29   H13   S    
C66   H42   S    
N23   Ni4   S    
C29   Br5   S    
C85   H53   S    
C62   H38   S    
N7    Ni4   S    
C42   H30   S    
C20   C36   S    
C29   C49   S    
N31   Ni8   S    
C34   C73   S    
C17   F1    S    
C40   C52   S    
C66   C73   A    
C7    H59   S    
C1    C69   A    
C65   C74   A    
C47   N7    A    
C62   C69   A    
N15   Ni8   S    
C86   N26   A    
C32   C34   S    
C32   Br8   S    
C3    C71   A    
C26   H26   S    
C87   H55   S    
C63   N11   A    
C36   C75   S    
C25   H25   S    
C65   H41   S    
C14   C38   S    
C37   C49   S    
C8    N32   A    
C32   H16   S    
C24   C38   S    
C21   C39   S    
C24   F6    S    
C22   C40   S    
C27   C35   S    
C23   F5    S    
C62   N10   A    
C7    N31   A    
N18   N29   A    
C9    C77   A    
C21   F7    S    
N28   Ni6   S    
C60   F16   S    
C46   C74   A    
C15   C39   S    
C11   C79   A    
C30   H14   S    
C51   H23   S    
N30   Ni7   S    
C46   N6    A    
C16   C40   S    
C5    N29   A    
C55   C57   D    
N22   Ni1   S    
N13   Ni7   S    
C41   H9    S    
C45   N5    A    
C14   C82   A    
C65   N13   A    
N10   Ni5   S    
C20   F20   S    
C4    C72   A    
C10   C56   S    
C86   H54   S    
C49   H21   S    
C46   F10   S    
C18   F18   S    
C18   F2    S    
C45   F9    S    
C2    H2    S    
C18   C22   S    
C31   Br7   S    
C67   H43   S    
C14   C85   A    
C31   C51   S    
C84   N24   A    
N29   Ni7   S    
C80   N20   A    
C20   F4    S    
C49   H17   S    
C27   Br3   S    
N3    Ni3   S    
C38   C50   S    
C30   C36   S    
N7    N16   A    
N20   N31   A    
C87   N27   A    
N23   N28   A    
C29   C35   S    
C3    N3    A    
C64   N12   A    
C80   H48   S    
C47   F11   S    
N5    N14   A    
C79   N19   A    
N3    N12   A    
C42   H10   S    
C43   H31   S    
N17   Ni1   S    
C5    C10   A    
C82   H50   S    
C23   C37   S    
C43   H11   S    
N27   Ni6   S    
C44   H12   S    
N24   Ni3   S    
C21   H5    S    
C60   C69   S    
C18   C34   S    
C8    C11   A    
C15   C83   A    
C12   C80   A    
C28   C42   S    
C56   C58   D    
C19   F19   S    
N16   Ni8   S    
C57   C72   S    
C54   H34   S    
C26   Br2   S    
C17   C21   S    
N21   Ni2   S    
C19   F3    S    
C25   Br1   S    
C59   C70   S    
C47   C75   A    
C78   H46   S    
C67   N15   A    
C88   N28   A    
C40   C44   S    
C30   Br6   S    
C63   C72   A    
C28   C36   S    
C51   H19   S    
C39   C43   S    
C25   C33   S    
C50   H18   S    
C44   H32   S    
C52   H20   S    
C19   C35   S    
C67   C76   A    
C41   H29   S    
C64   H40   S    
C2    C70   A    
C88   H56   S    
C63   H39   S    
C31   H15   S    
C15   C88   A    
C4    H4    S    
N22   N25   A    
C27   H27   S    
