data_mof_unit_67480.cif
_audit_creation_date              2013-03-05T15:40:59-0500
_audit_creation_method            fapswitch 2.2
_symmetry_space_group_name_H-M    P1
_symmetry_Int_Tables_number       1
_space_group_crystal_system       triclinic
_cell_length_a                    11.007408
_cell_length_b                    8.729649
_cell_length_c                    7.770419
_cell_angle_alpha                 102.064396
_cell_angle_beta                  96.502955
_cell_angle_gamma                 94.019888
_cell_volume                      722.089802953

loop_
_atom_site_label
_atom_site_type_symbol
_atom_site_description
_atom_site_fract_x
_atom_site_fract_y
_atom_site_fract_z
_atom_type_partial_charge
O1    O     O_R   0.509140 0.286130 0.619770 -0.574438
O2    O     O_R   0.485380 0.256770 0.308360 -0.523880
C1    C     C_R   0.497574 0.202479 0.455625 0.820452
O3    O     O_R   0.329570 0.514650 0.655700 -0.533727
O4    O     O_R   0.305810 0.485300 0.344290 -0.525950
C2    C     C_R   0.260629 0.492581 0.498710 0.901567
Cu1   Cu    Cu3+1 0.514070 0.517380 0.684380 1.202518
Cu2   Cu    Cu3+1 0.485930 0.482620 0.315620 1.209668
O5    O     O_R   0.514620 0.743230 0.691640 -0.523392
O6    O     O_R   0.490860 0.713870 0.380230 -0.566372
O7    O     O_R   0.694190 0.514700 0.655710 -0.537271
O8    O     O_R   0.670430 0.485350 0.344300 -0.531227
C3    C     C_R   0.506610 0.798377 0.544094 0.820150
C4    C     C_R   0.738748 0.498263 0.501636 0.911091
C5    C     C_3   0.083203 0.456922 0.681800 0.454825
C6    C     C_3   0.941164 0.462019 0.683768 0.050064
H1    H     H_    0.901038 0.346509 0.698634 0.225466
C7    C     C_3   0.080502 0.659665 0.482707 0.322118
C8    C     C_3   0.048045 0.353871 0.343868 0.426470
C9    C     C_3   0.121651 0.490249 0.499915 -0.468481
C10   C     C_3   0.877215 0.496103 0.504828 -0.459152
C11   C     C_3   0.937319 0.663531 0.490427 0.441036
C12   C     C_3   0.904565 0.352679 0.351844 0.479202
C13   C     C_2   0.480007 0.036215 0.434885 0.081043
C14   C     C_2   0.529813 0.965159 0.561218 0.073162
N1    N     N_2   0.464720 0.456420 0.038520 0.072933
N2    N     N_2   0.535280 0.543580 0.961480 0.068712
Cl1   Cl    Cl    0.168340 0.589466 0.874353 -0.337847
Cl2   Cl    Cl    0.819930 0.341823 0.135609 -0.359808
Br1   Br    Br    0.127610 0.726516 0.276146 -0.140181
Br2   Br    Br    0.851177 0.742089 0.302079 -0.151284
Br3   Br    Br    0.365162 0.939547 0.228589 -0.180858
Br4   Br    Br    0.657947 0.067022 0.750316 -0.196596
Br5   Br    Br    0.405546 0.251100 0.919408 -0.133174
Br6   Br    Br    0.591941 0.749961 0.075488 -0.118047
Br7   Br    Br    0.123818 0.249931 0.716671 -0.186450
Br8   Br    Br    0.898395 0.588296 0.903726 -0.125738
Br9   Br    Br    0.182355 0.835711 0.650834 -0.174050
Cl3   Cl    Cl    0.904910 0.820755 0.664705 -0.318035
Br10  Br    Br    0.088667 0.363718 0.115195 -0.154508
Cl4   Cl    Cl    0.102531 0.161443 0.324891 -0.323340
Cl5   Cl    Cl    0.840197 0.169471 0.394243 -0.416670

loop_
_geom_bond_atom_site_label_1
_geom_bond_atom_site_label_2
_geom_bond_distance
_ccdc_geom_bond_type
O4    Cu2   2.021255 S    
C8    C12   1.586946 S    
C13   Br3   1.925033 S    
C6    C10   1.580492 S    
C7    Br1   1.929595 S    
C2    C9    1.529604 S    
C8    C9    1.607130 S    
C6    Br8   1.955885 S    
Cu2   O8    2.015720 S    
O2    C1    1.323977 A    
C7    Br9   1.978101 S    
Cu1   Cu2   2.796599 S    
O1    Cu1   1.971060 S    
C10   C11   1.592490 S    
Cu1   O7    2.021255 S    
C3    C14   1.435935 S    
N1    N2    1.324158 D    
O4    C2    1.341219 A    
C12   Cl5   1.811825 S    
O3    Cu1   2.015721 S    
C11   Cl3   1.801680 S    
C12   Cl2   1.807358 S    
C4    C10   1.523060 S    
Cu2   O6    1.971060 S    
C1    C13   1.423307 S    
O8    C4    1.339830 A    
C7    C9    1.604115 S    
C10   C12   1.607207 S    
C5    C9    1.597297 S    
O7    C4    1.328741 A    
C11   Br2   1.925543 S    
Cu2   N1    2.101381 S    
C5    Cl1   1.806203 S    
C5    C6    1.568941 S    
C5    Br7   1.956751 S    
Cu1   N2    2.101381 S    
C13   C14   1.352519 D    
O3    C2    1.331416 A    
C8    Br10  1.898177 S    
Cu1   O5    1.960139 S    
O5    C3    1.329570 A    
N2    Br6   1.862738 S    
C7    C11   1.586429 S    
N1    Br5   1.870770 S    
O2    Cu2   1.960140 S    
C8    Cl4   1.805829 S    
C14   Br4   1.935872 S    
C6    H1    1.105905 S    
O1    C1    1.318007 A    
O6    C3    1.317182 A    
