data_mof_unit_61516.cif
_audit_creation_date              2012-12-10T18:42:18-0500
_audit_creation_method            fapswitch 2.2
_symmetry_space_group_name_H-M    P1
_symmetry_Int_Tables_number       1
_space_group_crystal_system       triclinic
_cell_length_a                    21.353785
_cell_length_b                    21.353776
_cell_length_c                    55.687788
_cell_angle_alpha                 89.983958
_cell_angle_beta                  90.119268
_cell_angle_gamma                 90.026344
_cell_volume                      25392.6783859

loop_
_atom_site_label
_atom_site_type_symbol
_atom_type_description
_atom_site_fract_x
_atom_site_fract_y
_atom_site_fract_z
_atom_type_partial_charge
C1    C     C_R   0.121461 0.999880 0.500049 1.001378
C2    C     C_3   0.729130 0.985951 0.477361 -0.422434
C3    C     C_R   0.579524 0.918284 0.699630 -0.155652
C4    C     C_R   0.595420 0.062002 0.199276 -0.156988
C5    C     C_R   0.085988 0.573740 0.199361 -0.157532
C6    C     C_R   0.405625 0.937464 0.199137 -0.157021
C7    C     C_R   0.913209 0.426378 0.199192 -0.157554
C8    C     C_R   0.037733 0.457142 0.686619 -0.020137
C9    C     C_R   0.457218 0.036011 0.686638 -0.019041
C10   C     C_R   0.963457 0.543541 0.686542 -0.020129
C11   C     C_R   0.538107 0.956288 0.686843 -0.022066
C12   C     C_R   0.547719 0.031609 0.186578 -0.019887
C13   C     C_3   0.013829 0.729309 0.477401 -0.420093
C14   C     C_R   0.042874 0.537175 0.186622 -0.020334
C15   C     C_R   0.453315 0.967876 0.186510 -0.019878
C16   C     C_R   0.956416 0.462889 0.186538 -0.020314
C17   C     C_R   0.000592 0.500347 0.699268 -0.056912
C18   C     C_R   0.494690 0.993282 0.699435 -0.055331
C19   C     C_R   0.500518 0.999741 0.199251 -0.057084
C20   C     C_R   0.999602 0.500054 0.199267 -0.056941
C21   C     C_R   0.524953 0.948958 0.414127 -0.322611
C22   C     C_R   0.054838 0.486332 0.413924 -0.320611
C23   C     C_R   0.475303 0.051077 0.414053 -0.322529
C24   C     C_3   0.270586 0.013075 0.477368 -0.422606
C25   C     C_R   0.944616 0.513714 0.413922 -0.320743
C26   C     C_R   0.986400 0.444925 0.913904 -0.320746
C27   C     C_R   0.551547 0.014002 0.913141 -0.323701
C28   C     C_R   0.013784 0.555172 0.913942 -0.320518
C29   C     C_R   0.444483 0.976404 0.914758 -0.319091
C30   C     C_R   0.036431 0.457414 0.661459 0.518032
C31   C     C_R   0.460212 0.037432 0.661488 0.517772
C32   C     C_R   0.964718 0.543202 0.661385 0.518177
C33   C     C_R   0.540602 0.959971 0.661710 0.516286
C34   C     C_R   0.546516 0.031535 0.161415 0.517182
C35   C     C_3   0.487103 0.770740 0.977288 -0.420582
C36   C     C_R   0.042650 0.535854 0.161464 0.518013
C37   C     C_R   0.454483 0.968003 0.161349 0.517121
C38   C     C_R   0.956807 0.464128 0.161378 0.517999
C39   C     C_R   0.539665 0.042122 0.262628 -0.004430
C40   C     C_R   0.031412 0.548095 0.262565 -0.004529
C41   C     C_R   0.461291 0.957457 0.262578 -0.004425
C42   C     C_R   0.967398 0.452211 0.262518 -0.004551
C43   C     C_R   0.048437 0.468344 0.762593 -0.004606
C44   C     C_R   0.442637 0.023280 0.762759 0.001316
C45   C     C_R   0.952559 0.532276 0.762491 -0.004548
C46   C     C_3   0.229144 0.484368 0.977512 -0.419705
C47   C     C_R   0.520349 0.937705 0.762689 -0.006233
C48   C     C_R   0.500455 0.999814 0.275295 -0.059078
C49   C     C_R   0.999384 0.500163 0.275242 -0.060671
C50   C     C_R   0.000466 0.500287 0.775243 -0.060608
C51   C     C_R   0.482398 0.981135 0.775347 -0.057684
C52   C     C_R   0.945048 0.487386 0.611068 -0.092196
C53   C     C_R   0.486305 0.944768 0.611075 -0.092597
C54   C     C_R   0.055720 0.512887 0.611066 -0.091526
C55   C     C_R   0.516645 0.054189 0.611185 -0.088771
C56   C     C_R   0.448821 0.023768 0.110917 -0.088728
C57   C     C_3   0.512828 0.229301 0.977320 -0.421542
C58   C     C_R   0.012580 0.444642 0.111087 -0.091913
C59   C     C_R   0.551896 0.976087 0.110929 -0.088642
C60   C     C_R   0.987131 0.555302 0.111048 -0.091990
C61   C     C_R   0.430804 0.909035 0.275428 0.295435
C62   C     C_R   0.945570 0.399165 0.275260 0.295737
C63   C     C_R   0.570122 0.090580 0.275508 0.295484
C64   C     C_R   0.053163 0.601177 0.275326 0.295671
C65   C     C_R   0.899464 0.554001 0.775184 0.295172
C66   C     C_R   0.547548 0.887058 0.775670 0.304678
C67   C     C_R   0.101470 0.446581 0.775403 0.295840
C68   C     C_3   0.770581 0.513842 0.977436 -0.419971
C69   C     C_R   0.397031 0.056717 0.776102 0.295958
C70   C     C_R   0.426789 0.911985 0.300720 0.387768
C71   C     C_R   0.942868 0.400357 0.300610 0.387332
C72   C     C_R   0.574027 0.087732 0.300812 0.387772
C73   C     C_R   0.055808 0.600019 0.300681 0.387341
C74   C     C_R   0.900572 0.556623 0.800538 0.387187
C75   C     C_R   0.546670 0.886844 0.801082 0.400810
C76   C     C_R   0.100231 0.443858 0.800754 0.387391
C77   C     C_R   0.404919 0.064716 0.801097 0.385411
C78   C     C_R   0.462367 0.956865 0.313426 -0.101018
C79   C     C_3   0.944272 0.229531 0.493540 0.390805
C80   C     C_R   0.970712 0.450378 0.313348 -0.100343
C81   C     C_R   0.538375 0.042921 0.313476 -0.101067
C82   C     C_R   0.027996 0.549977 0.313384 -0.100293
C83   C     C_R   0.950566 0.528807 0.813313 -0.100331
C84   C     C_R   0.519331 0.937229 0.813564 -0.109323
C85   C     C_R   0.050163 0.471611 0.813420 -0.100387
C86   C     C_R   0.448287 0.026922 0.813534 -0.097072
C87   C     C_R   0.500400 0.999866 0.300718 -0.211392
C88   C     C_R   0.999359 0.500175 0.300647 -0.210051
C89   C     C_R   0.000399 0.500236 0.800648 -0.209989
C90   C     C_3   0.770373 0.944250 0.493643 0.389248
C91   C     C_R   0.483327 0.981687 0.800799 -0.212424
C92   C     C_R   0.538642 0.040552 0.338776 0.664559
C93   C     C_R   0.026985 0.548712 0.338693 0.663713
C94   C     C_R   0.461973 0.959351 0.338723 0.664519
C95   C     C_R   0.971779 0.451608 0.338659 0.663702
C96   C     C_R   0.048845 0.472592 0.838729 0.663871
C97   C     C_R   0.455610 0.030886 0.838644 0.665268
C98   C     C_R   0.951743 0.527712 0.838624 0.663552
C99   C     C_R   0.523308 0.942188 0.838786 0.663549
C100  C     C_R   0.000201 0.500035 0.573378 -0.043013
C101  C     C_3   0.055726 0.770474 0.493642 0.390795
C102  C     C_R   0.500690 0.999857 0.573415 -0.038491
C103  C     C_R   0.500197 0.999992 0.073282 -0.034253
C104  C     C_R   0.999951 0.499981 0.073378 -0.042895
C105  C     C_3   0.014461 0.229191 0.522677 -0.419810
C106  C     C_3   0.770938 0.014799 0.522587 -0.422661
C107  C     C_3   0.985537 0.770770 0.522667 -0.419352
C108  C     C_3   0.229332 0.986229 0.522793 -0.422395
C109  C     C_3   0.513459 0.729189 0.022765 -0.423537
C110  C     C_3   0.270932 0.516484 0.022416 -0.419249
C111  C     C_3   0.486594 0.270777 0.022767 -0.422952
C112  C     C_R   0.000118 0.121461 0.500025 1.001083
C113  C     C_3   0.229550 0.055488 0.493377 0.388689
C114  C     C_3   0.729333 0.485405 0.022720 -0.419803
C115  C     C_3   0.957987 0.270240 0.515480 0.385464
C116  C     C_3   0.729797 0.958244 0.515548 0.385627
C117  C     C_3   0.042007 0.729726 0.515557 0.385235
C118  C     C_3   0.270394 0.042463 0.515364 0.385831
C119  C     C_3   0.457297 0.770234 0.015215 0.385417
C120  C     C_3   0.229793 0.459439 0.015978 0.385489
C121  C     C_3   0.542733 0.229737 0.015284 0.384950
C122  C     C_3   0.770401 0.541894 0.015580 0.385443
C123  C     C_3   0.000224 0.311315 0.499828 -0.175075
C124  C     C_3   0.444521 0.729533 0.993192 0.388649
C125  C     C_3   0.688683 0.000295 0.499787 -0.173674
C126  C     C_3   0.999768 0.688685 0.499836 -0.175219
C127  C     C_3   0.311314 0.999722 0.499875 -0.173620
C128  C     C_3   0.500201 0.811316 0.999834 -0.173749
C129  C     C_3   0.188684 0.500327 0.999774 -0.175662
C130  C     C_3   0.499788 0.188685 0.999848 -0.173926
C131  C     C_3   0.811314 0.499703 0.999870 -0.175044
C132  C     C_3   0.056447 0.270179 0.506507 0.389014
C133  C     C_3   0.729913 0.056592 0.506307 0.388584
C134  C     C_3   0.943548 0.729814 0.506428 0.389346
C135  C     C_3   0.270383 0.443866 0.994235 0.391619
C136  C     C_3   0.270170 0.943725 0.506786 0.388600
C137  C     C_3   0.556130 0.770181 0.006863 0.387641
C138  C     C_3   0.229910 0.557081 0.005694 0.389167
C139  C     C_3   0.443879 0.229812 0.006812 0.388337
C140  C     C_3   0.770168 0.443466 0.006493 0.389116
C141  C     C_3   0.042729 0.229572 0.484586 0.396313
C142  C     C_3   0.770394 0.042597 0.484420 0.399512
C143  C     C_3   0.957270 0.770459 0.484531 0.396508
C144  C     C_3   0.229421 0.956754 0.484817 0.399450
C145  C     C_3   0.543352 0.729577 0.984858 0.399741
C146  C     C_3   0.555454 0.270474 0.993277 0.388529
C147  C     C_3   0.270396 0.541506 0.983968 0.396361
C148  C     C_3   0.456602 0.270453 0.984824 0.399944
C149  C     C_3   0.729417 0.457265 0.984595 0.396274
C150  C     C_3   0.729551 0.555689 0.993664 0.390966
C151  C     C_3   0.000449 0.188592 0.500209 -0.166113
C152  C     C_3   0.811407 0.000501 0.500155 -0.164819
C153  C     C_3   0.999553 0.811407 0.500224 -0.166303
C154  C     C_3   0.188594 0.999537 0.500276 -0.165447
C155  C     C_3   0.500409 0.688594 0.000211 -0.164638
C156  C     C_R   0.878539 0.000134 0.500006 1.001050
C157  C     C_3   0.311409 0.500569 0.000149 -0.166090
C158  C     C_3   0.499589 0.311407 0.000230 -0.164728
C159  C     C_3   0.688594 0.499502 0.000275 -0.166492
C160  C     C_R   0.500236 0.000006 0.376417 0.198072
C161  C     C_R   0.999533 0.500078 0.376283 0.206170
C162  C     C_R   0.000198 0.500091 0.876284 0.206235
C163  C     C_R   0.495067 0.991220 0.876304 0.202332
C164  C     C_R   0.525834 0.948894 0.388949 0.450172
C165  C     C_R   0.054982 0.485942 0.388742 0.446212
C166  C     C_R   0.474574 0.051131 0.388871 0.450197
C167  C     C_R   0.999885 0.878539 0.500030 1.001844
C168  C     C_R   0.944210 0.514170 0.388740 0.446400
C169  C     C_R   0.986048 0.444678 0.888722 0.446328
C170  C     C_R   0.549865 0.011777 0.887917 0.449634
C171  C     C_R   0.014279 0.555475 0.888762 0.446441
C172  C     C_R   0.442408 0.972989 0.889653 0.445912
C173  C     C_R   0.000442 0.500181 0.623658 0.293385
C174  C     C_R   0.501577 0.999363 0.623756 0.292149
C175  C     C_R   0.500405 0.999891 0.123551 0.289867
C176  C     C_R   0.999825 0.499971 0.123657 0.293504
C177  C     C_R   0.944809 0.487590 0.586068 -0.185320
C178  C     C_R   0.621461 0.499868 0.000049 1.001374
C179  C     C_R   0.486203 0.944864 0.586070 -0.186762
C180  C     C_R   0.055720 0.512539 0.586066 -0.185275
C181  C     C_R   0.515843 0.054576 0.586160 -0.188036
C182  C     C_R   0.448430 0.023268 0.085919 -0.189497
C183  C     C_R   0.012368 0.444528 0.086085 -0.184831
C184  C     C_R   0.552079 0.976686 0.085930 -0.189634
C185  C     C_R   0.987469 0.555428 0.086048 -0.185503
C186  C     C_R   0.000061 0.500002 0.547038 0.890892
C187  C     C_R   0.500167 0.999985 0.547051 0.888905
C188  C     C_R   0.500060 0.000002 0.047005 0.886789
C189  C     C_R   0.500106 0.621462 0.000025 1.000398
C190  C     C_R   0.999998 0.499993 0.047038 0.891370
C191  C     C_R   0.000045 0.378550 0.500039 0.967355
C192  C     C_R   0.621450 0.000069 0.500023 0.965330
C193  C     C_R   0.999954 0.621450 0.500040 0.967459
C194  C     C_R   0.378551 0.999934 0.500057 0.965490
C195  C     C_R   0.500041 0.878551 0.000046 0.964541
C196  C     C_R   0.121450 0.500075 0.000011 0.968105
C197  C     C_R   0.499958 0.121450 0.000051 0.965556
C198  C     C_R   0.878551 0.499930 0.000052 0.967374
C199  C     C_R   0.999939 0.500000 0.452918 0.895357
C200  C     C_R   0.378539 0.500158 0.000005 1.001106
C201  C     C_R   0.500008 0.000007 0.452957 0.892837
C202  C     C_R   0.499853 0.999538 0.952915 0.893556
C203  C     C_R   0.000004 0.500009 0.952918 0.895499
C204  C     C_R   0.500083 0.000015 0.426675 -0.106390
C205  C     C_R   0.999795 0.500012 0.426563 -0.112818
C206  C     C_R   0.000056 0.500035 0.926563 -0.112809
C207  C     C_R   0.498817 0.996815 0.926572 -0.109746
C208  C     C_R   0.042835 0.461547 0.737324 0.090423
C209  C     C_R   0.447694 0.028199 0.737340 0.086796
C210  C     C_R   0.958270 0.539133 0.737236 0.090440
C211  C     C_R   0.499896 0.378539 0.000031 1.001705
C212  C     C_R   0.527880 0.945172 0.737433 0.090507
C213  C     C_R   0.545022 0.036078 0.237320 0.089512
C214  C     C_R   0.038304 0.542407 0.237313 0.090237
C215  C     C_R   0.455988 0.963433 0.237257 0.089558
C216  C     C_R   0.960646 0.457835 0.237245 0.090204
C217  C     C_R   0.000570 0.500346 0.724674 0.039220
C218  C     C_R   0.489597 0.988420 0.724821 0.039225
C219  C     C_R   0.500512 0.999747 0.224682 0.039114
C220  C     C_R   0.999517 0.500099 0.224673 0.039163
C221  C     C_R   0.076641 0.416016 0.724306 -0.116682
C222  C     C_3   0.986166 0.270731 0.477368 -0.419743
C223  C     C_R   0.416384 0.075413 0.724092 -0.127134
C224  C     C_R   0.924518 0.584691 0.724148 -0.116450
C225  C     C_R   0.575802 0.914389 0.724471 -0.123678
C226  C     C_R   0.594543 0.063555 0.224230 -0.117338
C227  C     C_R   0.083914 0.576173 0.224307 -0.116484
C228  C     C_R   0.406490 0.935923 0.224091 -0.117408
C229  C     C_R   0.915113 0.424036 0.224145 -0.116461
C230  C     C_R   0.074272 0.414024 0.699354 -0.157452
C231  C     C_R   0.419101 0.077591 0.699208 -0.160756
C232  C     C_R   0.926927 0.586684 0.699201 -0.157527
H1    H     H_    0.544591 0.909712 0.423910 0.172755
H2    H     H_    0.391362 0.113281 0.732481 0.215331
H3    H     H_    0.255365 0.859043 0.516620 0.355299
H4    H     H_    0.640704 0.755396 0.016893 0.355020
H5    H     H_    0.244897 0.642812 0.014050 0.356684
H6    H     H_    0.359329 0.244591 0.016735 0.355782
H7    H     H_    0.755341 0.358451 0.015890 0.356158
H8    H     H_    0.107488 0.243327 0.461436 0.351877
H9    H     H_    0.756593 0.107075 0.461098 0.355529
H10   H     H_    0.892513 0.756750 0.461276 0.351849
H11   H     H_    0.242937 0.891232 0.461936 0.355538
H12   H     H_    0.609115 0.743326 0.962128 0.355745
H13   H     H_    0.897807 0.620911 0.732971 0.206810
H14   H     H_    0.256572 0.604222 0.959950 0.352019
H15   H     H_    0.390765 0.256751 0.962019 0.355487
H16   H     H_    0.742942 0.392577 0.961368 0.351900
H17   H     H_    0.613325 0.889347 0.733148 0.199215
H18   H     H_    0.634466 0.084604 0.233011 0.207845
H19   H     H_    0.120122 0.602904 0.233194 0.207296
H20   H     H_    0.366565 0.914872 0.232811 0.207807
H21   H     H_    0.878837 0.397348 0.232958 0.207348
H22   H     H_    0.902227 0.477174 0.620692 0.155644
H23   H     H_    0.474179 0.902311 0.620638 0.156398
H24   H     H_    0.098630 0.523160 0.620688 0.156064
H25   H     H_    0.097504 0.475359 0.423603 0.178181
H26   H     H_    0.528886 0.096500 0.620830 0.156328
H27   H     H_    0.409046 0.042746 0.120499 0.157403
H28   H     H_    0.022778 0.401780 0.120725 0.155691
H29   H     H_    0.591744 0.957060 0.120519 0.157474
H30   H     H_    0.976884 0.598162 0.120655 0.155660
H31   H     H_    0.901469 0.477514 0.576699 0.178285
H32   H     H_    0.474108 0.902140 0.576663 0.176025
H33   H     H_    0.098966 0.522570 0.576693 0.178409
H34   H     H_    0.527583 0.097460 0.576805 0.175282
H35   H     H_    0.408123 0.041870 0.076479 0.173744
H36   H     H_    0.455612 0.090327 0.423778 0.172769
H37   H     H_    0.022423 0.401242 0.076729 0.178241
H38   H     H_    0.592303 0.958113 0.076497 0.173719
H39   H     H_    0.977455 0.598719 0.076664 0.178319
H40   H     H_    0.025936 0.211852 0.540958 0.205437
H41   H     H_    0.788380 0.026497 0.540836 0.204290
H42   H     H_    0.974065 0.788079 0.540931 0.205525
H43   H     H_    0.212105 0.975348 0.541121 0.204632
H44   H     H_    0.524149 0.711855 0.041116 0.204106
H45   H     H_    0.288381 0.529504 0.040532 0.205253
H46   H     H_    0.475954 0.288083 0.041105 0.204184
H47   H     H_    0.902052 0.524665 0.423600 0.178168
H48   H     H_    0.712102 0.473880 0.040989 0.205349
H49   H     H_    0.974802 0.288389 0.459123 0.196533
H50   H     H_    0.711352 0.974361 0.459150 0.192465
H51   H     H_    0.025191 0.711685 0.459173 0.196591
H52   H     H_    0.288131 0.023858 0.459077 0.192444
H53   H     H_    0.476515 0.788414 0.958977 0.193883
H54   H     H_    0.211386 0.471466 0.959429 0.197056
H55   H     H_    0.523368 0.211668 0.959020 0.193325
H56   H     H_    0.788115 0.525261 0.959201 0.196632
H57   H     H_    0.353921 0.857559 0.302709 0.347441
H58   H     H_    0.975414 0.402290 0.923567 0.178022
H59   H     H_    0.879845 0.334792 0.302813 0.348403
H60   H     H_    0.646910 0.142133 0.302920 0.347499
H61   H     H_    0.118766 0.665644 0.302980 0.348410
H62   H     H_    0.834980 0.619557 0.802724 0.348540
H63   H     H_    0.561211 0.797490 0.804958 0.356345
H64   H     H_    0.165823 0.380928 0.803071 0.348294
H65   H     H_    0.355117 0.140841 0.802499 0.346391
H66   H     H_    0.859109 0.242935 0.483994 0.357821
H67   H     H_    0.756825 0.858984 0.484316 0.355645
H68   H     H_    0.140882 0.757072 0.484226 0.357867
H69   H     H_    0.593539 0.029919 0.922231 0.174924
H70   H     H_    0.242991 0.140331 0.483482 0.355657
H71   H     H_    0.359774 0.742938 0.983113 0.355811
H72   H     H_    0.256851 0.357955 0.985816 0.357640
H73   H     H_    0.640171 0.257070 0.983300 0.355877
H74   H     H_    0.742995 0.640872 0.984208 0.357797
H75   H     H_    0.101431 0.378675 0.690101 0.199484
H76   H     H_    0.392651 0.113496 0.689907 0.199879
H77   H     H_    0.899784 0.622033 0.689891 0.199293
H78   H     H_    0.616071 0.892363 0.690539 0.199128
H79   H     H_    0.633825 0.084583 0.189993 0.199460
H80   H     H_    0.024724 0.597786 0.923636 0.178286
H81   H     H_    0.121388 0.600882 0.190115 0.199647
H82   H     H_    0.367224 0.914878 0.189796 0.199465
H83   H     H_    0.877866 0.399211 0.189875 0.199643
H84   H     H_    0.567467 0.867991 0.387539 0.346247
H85   H     H_    0.142987 0.462923 0.387205 0.346068
H86   H     H_    0.432957 0.132035 0.387336 0.346251
H87   H     H_    0.856189 0.537190 0.387200 0.346059
H88   H     H_    0.963031 0.356646 0.887150 0.345768
H89   H     H_    0.635081 0.042875 0.885027 0.345416
H90   H     H_    0.037305 0.643510 0.887255 0.346096
H91   H     H_    0.403854 0.962338 0.925060 0.176185
H92   H     H_    0.357088 0.940948 0.889561 0.346589
H93   H     H_    0.412136 0.819616 0.274197 0.362995
H94   H     H_    0.941082 0.308023 0.273447 0.362366
H95   H     H_    0.588828 0.179988 0.274249 0.363004
H96   H     H_    0.057594 0.692317 0.273480 0.362345
H97   H     H_    0.808328 0.558390 0.773248 0.362918
H98   H     H_    0.607489 0.819854 0.771814 0.347094
H99   H     H_    0.192616 0.442210 0.773679 0.363017
H100  H     H_    0.308170 0.078133 0.777164 0.363931
H101  H     H_    0.893409 0.256213 0.538679 0.347620
H102  H     H_    0.103344 0.379798 0.733183 0.207028
H103  H     H_    0.743886 0.893947 0.538919 0.350228
H104  H     H_    0.106585 0.743700 0.538862 0.347874
H105  H     H_    0.256581 0.107794 0.538298 0.350054
H106  H     H_    0.391717 0.756171 0.037995 0.349845
H107  H     H_    0.243837 0.396887 0.040040 0.348080
H108  H     H_    0.608373 0.243752 0.038144 0.349917
H109  H     H_    0.756621 0.606395 0.038860 0.347662
H110  H     H_    0.141433 0.255366 0.516001 0.356178
H111  H     H_    0.744871 0.141688 0.515572 0.355482
H112  H     H_    0.858562 0.744622 0.515785 0.356598
N1    N     N_R   0.500279 0.999976 0.350650 -0.348210
N2    N     N_R   0.999414 0.500141 0.350544 -0.346446
N3    N     N_R   0.000261 0.500126 0.850544 -0.346469
N4    N     N_R   0.492383 0.988832 0.850562 -0.346585
N5    N     N_R   0.000548 0.500279 0.649392 -0.356869
N6    N     N_R   0.500943 0.999101 0.649527 -0.356325
N7    N     N_R   0.500480 0.999797 0.149319 -0.356184
N8    N     N_R   0.999765 0.499975 0.149391 -0.356877
O1    O     O_R   0.093040 0.000030 0.479890 -0.572021
O2    O     O_R   0.999940 0.093010 0.520110 -0.653609
O3    O     O_3   0.293932 0.088180 0.530915 -0.722475
O4    O     O_3   0.411408 0.793600 0.030668 -0.722272
O5    O     O_3   0.206413 0.415592 0.032308 -0.730372
O6    O     O_3   0.588661 0.206338 0.030790 -0.722381
O7    O     O_3   0.793960 0.587056 0.031364 -0.729549
O8    O     O_3   0.115616 0.293026 0.512789 -0.713230
O9    O     O_3   0.707165 0.115841 0.512432 -0.715985
O10   O     O_3   0.884375 0.706964 0.512614 -0.713187
O11   O     O_3   0.293020 0.884763 0.513299 -0.716082
O12   O     O_3   0.615015 0.793047 0.013520 -0.717345
O13   O     O_R   0.906990 0.999940 0.520110 -0.653162
O14   O     O_3   0.207184 0.616765 0.011180 -0.712830
O15   O     O_3   0.385008 0.206942 0.013396 -0.717274
O16   O     O_3   0.793002 0.384274 0.012699 -0.713228
O17   O     O_3   0.087982 0.205997 0.468906 -0.687984
O18   O     O_3   0.793940 0.087648 0.468616 -0.686079
O19   O     O_3   0.912016 0.794066 0.468781 -0.688287
O20   O     O_3   0.205681 0.911013 0.469321 -0.685882
O21   O     O_3   0.589261 0.705997 0.969463 -0.685135
O22   O     O_3   0.293925 0.585413 0.967693 -0.687619
O23   O     O_3   0.410651 0.294066 0.969375 -0.686263
O24   O     O_R   0.000060 0.906990 0.520110 -0.653353
O25   O     O_3   0.705684 0.412065 0.968866 -0.687686
O26   O     O_R   0.593010 0.500060 0.020110 -0.653713
O27   O     O_R   0.499940 0.593010 0.020110 -0.653708
O28   O     O_R   0.406990 0.499940 0.020110 -0.653145
O29   O     O_R   0.500060 0.406990 0.020110 -0.653298
O30   O     O_2   0.576710 0.078372 0.351612 -0.445043
O31   O     O_2   0.052709 0.595713 0.351567 -0.447192
O32   O     O_2   0.423836 0.921591 0.351502 -0.445172
O33   O     O_R   0.999970 0.093040 0.479890 -0.571497
O34   O     O_2   0.946079 0.404591 0.351500 -0.447066
O35   O     O_2   0.095817 0.446893 0.851638 -0.446865
O36   O     O_2   0.426314 0.076173 0.851240 -0.448608
O37   O     O_2   0.904698 0.553353 0.851430 -0.446961
O38   O     O_2   0.557955 0.901144 0.851579 -0.445767
O39   O     O_R   0.947490 0.500060 0.535600 -0.614489
O40   O     O_R   0.499940 0.947490 0.535600 -0.613845
O41   O     O_R   0.052510 0.499940 0.535600 -0.614613
O42   O     O_R   0.500060 0.052510 0.535600 -0.613721
O43   O     O_R   0.447490 0.000060 0.035600 -0.612034
O44   O     O_R   0.906960 0.999970 0.479890 -0.572212
O45   O     O_R   0.999940 0.447490 0.035600 -0.614482
O46   O     O_R   0.552510 0.999940 0.035600 -0.612270
O47   O     O_R   0.000060 0.552510 0.035600 -0.614896
O48   O     O_R   0.947490 0.407010 0.499980 -0.601198
O49   O     O_R   0.592990 0.947490 0.499980 -0.602854
O50   O     O_R   0.052510 0.592990 0.499980 -0.601339
O51   O     O_R   0.407010 0.052510 0.499980 -0.602068
O52   O     O_R   0.447490 0.907010 0.999980 -0.601403
O53   O     O_R   0.092990 0.447490 0.999980 -0.602694
O54   O     O_R   0.552510 0.092990 0.999980 -0.600920
O55   O     O_R   0.000030 0.906960 0.479890 -0.571664
O56   O     O_R   0.907010 0.552510 0.999980 -0.601388
O57   O     O_R   0.052520 0.407020 0.499960 -0.584658
O58   O     O_R   0.592980 0.052520 0.499960 -0.583669
O59   O     O_R   0.947480 0.592980 0.499960 -0.584584
O60   O     O_R   0.407020 0.947480 0.499960 -0.584033
O61   O     O_R   0.552520 0.907020 0.999960 -0.585091
O62   O     O_R   0.092980 0.552520 0.999960 -0.583666
O63   O     O_R   0.447480 0.092980 0.999960 -0.584751
O64   O     O_R   0.907020 0.447480 0.999960 -0.584696
O65   O     O_R   0.947480 0.500000 0.464360 -0.631006
O66   O     O_R   0.593040 0.500030 0.979890 -0.571093
O67   O     O_R   0.500000 0.947480 0.464360 -0.628417
O68   O     O_R   0.052520 0.500000 0.464360 -0.630817
O69   O     O_R   0.500000 0.052520 0.464360 -0.628250
O70   O     O_R   0.447480 0.000000 0.964360 -0.630517
O71   O     O_R   0.000000 0.447480 0.964360 -0.631063
O72   O     O_R   0.552520 0.000000 0.964360 -0.628816
O73   O     O_R   0.000000 0.552520 0.964360 -0.630715
O74   O     O_2   0.070394 0.414960 0.649135 -0.546605
O75   O     O_2   0.422098 0.076162 0.649079 -0.546648
O76   O     O_2   0.930741 0.585628 0.648990 -0.546501
O77   O     O_R   0.499970 0.593040 0.979890 -0.571615
O78   O     O_2   0.582451 0.924912 0.649538 -0.545635
O79   O     O_2   0.590552 0.063563 0.149129 -0.546949
O80   O     O_2   0.085156 0.569811 0.149147 -0.546454
O81   O     O_2   0.410435 0.935991 0.148999 -0.546920
O82   O     O_2   0.914383 0.430130 0.148976 -0.546491
O83   O     O_3   0.389187 0.870547 0.313190 -0.684580
O84   O     O_3   0.913176 0.352938 0.313093 -0.684845
O85   O     O_3   0.611594 0.129203 0.313333 -0.684519
O86   O     O_3   0.085428 0.647481 0.313203 -0.684870
O87   O     O_3   0.853103 0.586216 0.812991 -0.684279
O88   O     O_R   0.406960 0.499970 0.979890 -0.571175
O89   O     O_3   0.569803 0.836546 0.813968 -0.686834
O90   O     O_3   0.147640 0.414224 0.813307 -0.684397
O91   O     O_3   0.368599 0.107139 0.813612 -0.684331
O92   O     O_3   0.885416 0.205722 0.487364 -0.713907
O93   O     O_3   0.794085 0.885316 0.487624 -0.715568
O94   O     O_3   0.114586 0.794284 0.487562 -0.712651
O95   O     O_3   0.205770 0.114153 0.486971 -0.714335
O96   O     O_3   0.385936 0.705723 0.986646 -0.716205
O97   O     O_3   0.294105 0.384519 0.988848 -0.714418
O98   O     O_3   0.614026 0.294283 0.986804 -0.714129
O99   O     O_R   0.500030 0.406960 0.979890 -0.572338
O100  O     O_3   0.705773 0.614574 0.987562 -0.712263
O101  O     O_3   0.551627 0.899971 0.376130 -0.725900
O102  O     O_3   0.108254 0.471675 0.375843 -0.729931
O103  O     O_3   0.448858 0.100048 0.375975 -0.725854
O104  O     O_3   0.890806 0.528475 0.375839 -0.729746
O105  O     O_3   0.971797 0.391341 0.875801 -0.730349
O106  O     O_3   0.600565 0.029750 0.874199 -0.728727
O107  O     O_3   0.028603 0.608840 0.875882 -0.729619
O108  O     O_3   0.389819 0.951837 0.877661 -0.726913
O109  O     O_3   0.410990 0.856164 0.263238 -0.779204
O110  O     O_R   0.093010 0.000060 0.520110 -0.653355
O111  O     O_3   0.933298 0.344442 0.262825 -0.779250
O112  O     O_3   0.590010 0.143397 0.263322 -0.779232
O113  O     O_3   0.065429 0.655887 0.262889 -0.779209
O114  O     O_3   0.844781 0.566252 0.762686 -0.778928
O115  O     O_3   0.569443 0.835298 0.763480 -0.773040
O116  O     O_3   0.156218 0.434387 0.763029 -0.778540
O117  O     O_3   0.341983 0.075141 0.765057 -0.781044
O118  O     O_3   0.912771 0.293631 0.531216 -0.729425
O119  O     O_3   0.706447 0.913227 0.531410 -0.723176
O120  O     O_3   0.087221 0.706299 0.531364 -0.729278
Zn1   Zn    Zn3+2 0.000000 0.000000 0.473150 1.144446
Zn2   Zn    Zn3+2 0.999970 0.429870 0.999980 1.041316
Zn3   Zn    Zn3+2 0.570130 0.999970 0.999980 1.044250
Zn4   Zn    Zn3+2 0.000030 0.570130 0.999980 1.042739
Zn5   Zn    Zn3+2 0.500000 0.500000 0.973150 1.146238
Zn6   Zn    Zn3+2 0.000000 1.000000 0.526860 0.982101
Zn7   Zn    Zn3+2 0.500000 0.500000 0.026860 0.981741
Zn8   Zn    Zn3+2 0.929870 0.500030 0.499980 1.042380
Zn9   Zn    Zn3+2 0.499970 0.929870 0.499980 1.043739
Zn10  Zn    Zn3+2 0.070130 0.499970 0.499980 1.042351
Zn11  Zn    Zn3+2 0.500030 0.070130 0.499980 1.044372
Zn12  Zn    Zn3+2 0.429870 0.000030 0.999980 1.043756

loop_
_geom_bond_atom_site_label_1
_geom_bond_atom_site_label_2
_ccdc_geom_bond_type
O60   Zn9   S    
C71   O84   S    
H57   O83   S    
C28   C206  A    
C41   C61   A    
C74   C83   A    
C25   H47   S    
O77   Zn5   S    
C46   C129  S    
C213  C219  A    
C111  C139  S    
C67   O116  S    
C161  N2    S    
O39   Zn8   S    
C65   O114  S    
C96   O35   S    
C132  O8    S    
C35   C124  S    
C36   O80   S    
C85   C96   A    
O69   Zn11  S    
C201  O69   A    
C215  C228  A    
C35   C145  S    
C2    C90   S    
C175  N7    S    
C131  C140  S    
C155  C189  S    
C134  C143  S    
H74   O100  S    
C106  C133  S    
C162  C171  A    
C152  C156  S    
C92   O30   S    
C24   C127  S    
C84   C91   A    
C90   C116  S    
C4    C12   A    
C31   N6    A    
C37   O81   S    
C117  C126  S    
H70   O95   S    
H7    O16   S    
C173  N5    S    
C119  C128  S    
H103  O119  S    
C232  H77   S    
C43   C208  A    
C29   H91   S    
C137  O12   S    
C122  O7    S    
C102  C181  A    
C26   C206  A    
C31   O75   S    
C222  H49   S    
O29   Zn7   S    
C22   H25   S    
C105  C151  S    
C115  C123  S    
C150  C159  S    
C190  O45   A    
C167  O24   A    
C46   H54   S    
H97   O114  S    
C110  C138  S    
C127  C136  S    
C90   C152  S    
H6    O15   S    
C98   N3    A    
H62   O87   S    
H11   O20   S    
C147  O22   S    
C58   H28   S    
C58   C183  A    
C68   C131  S    
O41   Zn10  S    
H112  O10   S    
O28   Zn7   S    
C11   C33   A    
C16   C20   A    
C10   C232  A    
C48   C87   A    
C193  O59   A    
C194  O60   A    
C163  C172  A    
C98   O37   S    
C110  C157  S    
H84   O101  S    
C212  C225  A    
C72   O85   S    
C60   C176  A    
C146  O98   S    
C160  C164  A    
C37   N7    A    
C79   C222  S    
C227  H19   S    
H66   O92   S    
C208  C217  A    
C30   O74   S    
C193  O50   A    
C142  O18   S    
H106  O4    S    
C26   H58   S    
C174  N6    S    
H85   O102  S    
H86   O103  S    
C199  O65   A    
C8    C17   A    
C156  O44   A    
O58   Zn11  S    
C55   H26   S    
C120  C135  S    
C202  O72   A    
C177  H31   S    
C97   N4    A    
C8    C30   A    
C80   C88   A    
C214  C220  A    
C126  C193  S    
C75   O89   S    
C162  C169  A    
O49   Zn9   S    
C45   C50   A    
C78   C94   A    
C116  O119  S    
O56   Zn4   S    
O53   Zn2   S    
C144  C154  S    
C1    C154  S    
C143  O19   S    
O48   Zn8   S    
C3    C11   A    
C181  H34   S    
H63   O89   S    
C140  O16   S    
C104  C183  A    
H16   O25   S    
C126  C134  S    
O70   Zn12  S    
C40   C214  A    
O68   Zn10  S    
C176  N8    S    
C76   C85   A    
C161  C165  A    
O13   Zn6   S    
C78   C87   A    
C117  O120  S    
C191  O48   A    
C93   O31   S    
C11   C18   A    
C135  C157  S    
C79   C115  S    
C123  C132  S    
C36   N8    A    
C69   C77   A    
C199  C205  S    
C121  C130  S    
C189  O27   A    
C108  H43   S    
C33   O78   S    
H104  O120  S    
C133  C142  S    
C111  C158  S    
C107  C134  S    
C4    H79   S    
C14   C36   A    
C77   O91   S    
C64   O113  S    
C197  O54   A    
C40   C49   A    
O65   Zn8   S    
C62   O111  S    
O61   Zn3   S    
C198  O56   A    
C191  O57   A    
C44   C209  A    
C163  C170  A    
C52   C177  A    
C15   C37   A    
C168  O104  S    
O47   Zn4   S    
C81   C92   A    
C97   O36   S    
C83   C98   A    
C221  C230  A    
C64   C73   A    
C35   H53   S    
C213  C226  A    
C114  C140  S    
C42   C62   A    
O71   Zn2   S    
C5    H81   S    
C110  H45   S    
C51   C91   A    
C105  H40   S    
C73   O86   S    
O59   Zn8   S    
C106  H41   S    
C109  C155  S    
C53   C179  A    
C186  O41   A    
C94   N1    A    
C25   C168  A    
C171  O107  S    
C83   C89   A    
C21   H1    S    
C139  C148  S    
C195  O52   A    
C39   C213  A    
C169  O105  S    
C120  C129  S    
C60   H30   S    
C57   C130  S    
C202  O70   A    
C121  O6    S    
C38   N8    A    
O99   Zn5   S    
C162  N3    S    
H105  O3    S    
C66   O115  S    
O27   Zn7   S    
C65   C74   A    
C5    C227  A    
H4    O12   S    
C38   O82   S    
C182  H35   S    
C163  N4    S    
C216  C229  A    
C80   C95   A    
C214  C227  A    
C107  C153  S    
C30   N5    A    
C94   O32   S    
C202  C207  S    
C45   C65   A    
C2    C142  S    
C3    H78   S    
C118  C127  S    
C188  O43   A    
C1    O1    A    
C18   C218  A    
C122  C131  S    
C132  C141  S    
C68   C149  S    
C203  O71   A    
C105  C115  S    
C216  C220  A    
C93   N2    A    
H109  O7    S    
H14   O22   S    
C43   C50   A    
C146  C158  S    
C192  O49   A    
C102  C187  S    
C29   C207  A    
H98   O115  S    
C116  C125  S    
C157  C200  S    
C184  H38   S    
C230  H75   S    
C82   C88   A    
C62   C71   A    
C113  O95   S    
C109  H44   S    
C68   C150  S    
C2    C125  S    
C192  O58   A    
C9    C18   A    
O73   Zn4   S    
C108  C154  S    
H67   O93   S    
O62   Zn4   S    
H9    O18   S    
C124  C155  S    
C82   C93   A    
C121  C146  S    
C74   O87   S    
C159  C178  S    
C165  O102  S    
C139  O15   S    
C140  C149  S    
C115  O118  S    
C194  O51   A    
C100  C180  A    
C61   C70   A    
C203  O73   A    
C60   C185  A    
C183  H37   S    
C54   H24   S    
H72   O97   S    
C135  O97   S    
C96   N3    A    
C128  C195  S    
C113  C154  S    
O40   Zn9   S    
C57   H55   S    
C2    H50   S    
C15   C19   A    
C150  O100  S    
C210  C217  A    
C196  O62   A    
C122  C150  S    
C137  C145  S    
C70   C78   A    
C119  O4    S    
C138  O14   S    
C86   C91   A    
C118  O3    S    
C143  C153  S    
H64   O90   S    
C130  C139  S    
H59   O84   S    
C164  O101  S    
C142  C152  S    
H71   O96   S    
C52   H22   S    
H68   O94   S    
C46   C135  S    
H100  O117  S    
C148  O23   S    
O64   Zn2   S    
C6    C228  A    
O54   Zn3   S    
O55   Zn1   S    
C4    C226  A    
C130  C197  S    
C47   C66   A    
C72   C81   A    
C178  O26   A    
C21   C164  A    
C57   C146  S    
C153  C167  S    
C49   C88   A    
C158  C211  S    
C25   C205  A    
C221  H102  S    
C223  C231  A    
H101  O118  S    
C105  C132  S    
O88   Zn5   S    
C203  C206  S    
H99   O116  S    
C103  C184  A    
C14   C20   A    
C131  C198  S    
C210  C224  A    
C85   C89   A    
C13   H51   S    
C47   C51   A    
H5    O14   S    
C106  C116  S    
O43   Zn12  S    
C90   O93   S    
C55   C174  A    
C104  C185  A    
C223  H2    S    
C215  C219  A    
O45   Zn2   S    
C179  H32   S    
C6    H82   S    
C50   C89   A    
H96   O113  S    
H111  O9    S    
O66   Zn5   S    
C145  O21   S    
C33   N6    A    
C28   H80   S    
C44   C69   A    
O63   Zn12  S    
C27   C170  A    
C5    C14   A    
C81   C87   A    
C211  O29   A    
C13   C126  S    
C144  O20   S    
H8    O17   S    
C209  C223  A    
C70   O83   S    
C56   H27   S    
C112  O2    A    
C12   C34   A    
C73   C82   A    
C129  C196  S    
C99   N4    A    
C109  C119  S    
C7    C229  A    
C226  H18   S    
O24   Zn6   S    
H107  O5    S    
C134  O10   S    
C84   C99   A    
C103  C188  S    
C95   O34   S    
C112  O33   A    
C178  O66   A    
C23   C204  A    
C160  N1    S    
C101  C117  S    
C59   H29   S    
C32   O76   S    
C136  C144  S    
C24   C144  S    
C41   C215  A    
C66   C75   A    
O2    Zn6   S    
C12   C19   A    
C7    H83   S    
C125  C192  S    
C13   C143  S    
C35   C128  S    
C75   C84   A    
C42   C216  A    
C185  H39   S    
C187  O40   A    
C63   C72   A    
C199  O68   A    
C57   C148  S    
H60   O85   S    
C53   H23   S    
O67   Zn9   S    
C107  C117  S    
C39   C48   A    
C228  H20   S    
C76   O90   S    
H88   O105  S    
C156  O13   A    
H92   O108  S    
C103  C182  A    
H108  O6    S    
O52   Zn12  S    
C124  O96   S    
H110  O8    S    
C180  H33   S    
C189  O77   A    
C119  C124  S    
C1    O110  A    
H65   O91   S    
C212  C218  A    
C209  C218  A    
C54   C173  A    
C108  C136  S    
C59   C175  A    
C63   O112  S    
C224  C232  A    
C149  O25   S    
C92   N1    A    
H73   O98   S    
C10   C17   A    
C23   H36   S    
H87   O104  S    
C208  C221  A    
C109  C137  S    
C86   C97   A    
C107  H42   S    
H3    O11   S    
O33   Zn1   S    
C187  O42   A    
C6    C15   A    
C68   H56   S    
C22   C165  A    
C8    C230  A    
C141  O17   S    
C129  C138  S    
C24   H52   S    
C26   C169  A    
C111  C121  S    
C3    C225  A    
C114  H48   S    
C141  C222  S    
H10   O19   S    
C24   C113  S    
C29   C172  A    
C133  O9    S    
C47   C212  A    
C102  C179  A    
C20   C220  A    
C21   C204  A    
C59   C184  A    
C100  C177  A    
C170  O106  S    
C71   C80   A    
C53   C174  A    
O46   Zn3   S    
C123  C222  S    
C112  C151  S    
H89   O106  S    
C56   C175  A    
C111  H46   S    
C108  C118  S    
O57   Zn10  S    
H12   O21   S    
C127  C194  S    
C110  C120  S    
O51   Zn11  S    
O50   Zn10  S    
H94   O111  S    
C22   C205  A    
C61   O109  S    
C200  O88   A    
C114  C122  S    
C120  O5    S    
C100  C186  S    
C128  C137  S    
C136  O11   S    
C46   C147  S    
C10   C32   A    
C186  O39   A    
C23   C166  A    
O44   Zn1   S    
C28   C171  A    
C160  C166  A    
C101  C153  S    
C138  C147  S    
C104  C190  S    
C55   C181  A    
C201  O67   A    
C148  C158  S    
C200  O28   A    
C149  C159  S    
C44   C51   A    
C43   C67   A    
H95   O112  S    
C197  O63   A    
C77   C86   A    
C198  O64   A    
O26   Zn7   S    
C211  O99   A    
C201  C204  S    
O1    Zn1   S    
C106  C152  S    
C19   C219  A    
H90   O107  S    
C13   C101  S    
C147  C157  S    
C17   C217  A    
C141  C151  S    
C79   C151  S    
C231  H76   S    
C125  C133  S    
C172  O108  S    
H15   O23   S    
C166  O103  S    
C7    C16   A    
C225  H17   S    
C34   O79   S    
C58   C176  A    
C229  H21   S    
C196  O53   A    
C39   C63   A    
H93   O109  S    
C45   C210  A    
C40   C64   A    
C190  O47   A    
C9    C231  A    
C27   H69   S    
C32   N5    A    
C56   C182  A    
O110  Zn6   S    
H61   O86   S    
C41   C48   A    
C54   C180  A    
C27   C207  A    
O72   Zn3   S    
O42   Zn11  S    
C114  C159  S    
C161  C168  A    
C79   O92   S    
C9    C31   A    
C42   C49   A    
C113  C118  S    
C145  C155  S    
C167  O55   A    
C224  H13   S    
C95   N2    A    
C69   O117  S    
C34   N7    A    
C195  O61   A    
C101  O94   S    
C67   C76   A    
C188  O46   A    
C123  C191  S    
C52   C173  A    
C99   O38   S    
C16   C38   A    
