data_mof_unit_49557.cif
_audit_creation_date              2012-12-10T16:59:21-0500
_audit_creation_method            fapswitch 2.2
_symmetry_space_group_name_H-M    P1
_symmetry_Int_Tables_number       1
_space_group_crystal_system       triclinic
_cell_length_a                    12.943569
_cell_length_b                    13.149876
_cell_length_c                    17.633733
_cell_angle_alpha                 110.456795
_cell_angle_beta                  73.752877
_cell_angle_gamma                 91.768307
_cell_volume                      2692.30740496

loop_
_atom_site_label
_atom_site_type_symbol
_atom_type_description
_atom_site_fract_x
_atom_site_fract_y
_atom_site_fract_z
_atom_type_partial_charge
C1    C     C_R   0.215424 0.540454 0.531758 0.841306
C2    C     C_R   0.562909 0.371754 0.893924 -0.266507
C3    C     C_R   0.625678 0.314253 0.920680 0.089646
C4    C     C_R   0.783115 0.460188 0.471269 0.845321
C5    C     C_R   0.607764 0.339654 0.008478 0.103767
C6    C     C_R   0.515840 0.409122 0.065983 0.080221
C7    C     C_R   0.679328 0.299133 0.040425 -0.250595
C8    C     C_R   0.662682 0.327922 0.127610 0.091329
C9    C     C_R   0.502960 0.441245 0.153208 -0.294020
C10   C     C_2   0.897335 0.461594 0.470614 -0.336639
C11   C     C_2   0.926440 0.459779 0.537587 -0.198122
C12   C     C_R   0.320537 0.644875 0.867718 -0.253559
C13   C     C_2   0.096941 0.544693 0.546246 -0.364573
C14   C     C_2   0.041450 0.453357 0.535194 0.128493
C15   C     C_2   0.545737 0.897355 0.537250 0.005110
C16   C     C_R   0.469717 0.215993 0.474979 0.830598
C17   C     C_2   0.477570 0.948586 0.514818 -0.213188
C18   C     C_2   0.452168 0.100478 0.466340 -0.036149
C19   C     C_2   0.487939 0.061757 0.516892 -0.210025
C20   C     C_R   0.530740 0.782626 0.525461 0.822160
C21   C     C_R   0.551163 0.432920 0.275805 0.797338
C22   C     C_R   0.448906 0.566081 0.724159 0.797130
C23   C     C_R   0.482982 0.546754 0.852389 0.071196
C24   C     C_R   0.417634 0.586089 0.815714 -0.088898
C25   C     C_R   0.573593 0.400053 0.184093 -0.030528
C26   C     C_R   0.282842 0.654254 0.952546 0.216260
C27   C     C_3   0.157855 0.590831 0.103647 -0.382938
C28   C     C_3   0.083428 0.528233 0.051670 -0.338758
C29   C     C_3   0.965776 0.571434 0.095945 -0.911031
C30   C     C_3   0.094254 0.343721 0.521849 -0.329666
C31   C     C_3   0.013814 0.260809 0.540263 -0.377942
C32   C     C_3   0.072353 0.155202 0.529060 -0.904161
C33   C     C_3   0.396846 0.025035 0.403422 -0.435659
C34   C     C_R   0.431897 0.525528 0.927780 -0.018051
C35   C     C_3   0.370470 0.068336 0.340006 -0.298417
C36   C     C_3   0.326505 0.980319 0.276319 -0.933628
C37   C     C_3   0.638186 0.953223 0.569269 -0.439829
C38   C     C_3   0.709011 0.879829 0.589174 -0.337898
C39   C     C_3   0.795632 0.942963 0.625514 -0.901581
C40   C     C_3   0.742306 0.282165 0.158247 -0.431054
C41   C     C_3   0.839093 0.351961 0.161736 -0.319658
C42   C     C_3   0.917308 0.311396 0.197352 -0.881308
C43   C     C_3   0.714312 0.232707 0.853529 -0.430260
C44   C     C_3   0.819792 0.287532 0.833889 -0.341339
C45   C     C_R   0.329448 0.581416 0.980675 0.031203
C46   C     C_3   0.908028 0.207154 0.763396 -0.894533
C47   C     C_3   0.202922 0.749946 0.009388 -0.938803
C48   C     C_3   0.605805 0.548051 0.820238 -0.431166
C49   C     C_3   0.640175 0.659880 0.816894 -0.334429
C50   C     C_3   0.762795 0.662707 0.792544 -0.897326
C51   C     C_3   0.273835 0.437313 0.143191 -0.940371
C52   C     C_R   0.481450 0.452017 0.952016 0.004084
C53   C     C_R   0.444026 0.452573 0.034835 0.034466
C54   C     C_R   0.334776 0.489296 0.080409 0.142171
C55   C     C_R   0.277158 0.556861 0.055298 0.078774
H1    H     H_    0.750197 0.246650 0.998420 0.146405
H2    H     H_    0.940179 0.565614 0.159780 0.265839
H3    H     H_    0.955026 0.657746 0.102230 0.264394
H4    H     H_    0.913588 0.522729 0.058343 0.248454
H5    H     H_    0.106631 0.534409 0.987977 0.231305
H6    H     H_    0.091023 0.440617 0.042933 0.219607
H7    H     H_    0.134117 0.576960 0.164377 0.203113
H8    H     H_    0.140536 0.679480 0.126791 0.202792
H9    H     H_    0.123398 0.116722 0.462813 0.265352
H10   H     H_    0.123794 0.171327 0.572371 0.264685
H11   H     H_    0.012323 0.097641 0.543809 0.251579
H12   H     H_    0.866202 0.451715 0.591712 0.161696
H13   H     H_    0.960832 0.295673 0.606315 0.225419
H14   H     H_    0.962718 0.241478 0.496488 0.237788
H15   H     H_    0.145605 0.308202 0.455343 0.216104
H16   H     H_    0.146533 0.357035 0.564446 0.186875
H17   H     H_    0.387518 0.910298 0.239222 0.266329
H18   H     H_    0.251829 0.951526 0.309413 0.262170
H19   H     H_    0.306944 0.014148 0.232007 0.257938
H20   H     H_    0.307713 0.137276 0.373867 0.243476
H21   H     H_    0.444556 0.095650 0.304765 0.234535
H22   H     H_    0.450770 0.949410 0.365937 0.216731
H23   H     H_    0.054451 0.623277 0.564068 0.143884
H24   H     H_    0.320366 0.002796 0.439920 0.205301
H25   H     H_    0.847885 0.977498 0.580223 0.260860
H26   H     H_    0.757690 0.009926 0.686051 0.262540
H27   H     H_    0.846643 0.887523 0.637738 0.252573
H28   H     H_    0.658212 0.846495 0.635966 0.209650
H29   H     H_    0.749398 0.810990 0.530491 0.236961
H30   H     H_    0.690180 0.983438 0.520914 0.216112
H31   H     H_    0.603402 0.024199 0.628044 0.206809
H32   H     H_    0.876479 0.315741 0.262958 0.260171
H33   H     H_    0.948294 0.226067 0.157341 0.259079
H34   H     H_    0.957742 0.470181 0.416717 0.161135
H35   H     H_    0.986641 0.363277 0.198348 0.247350
H36   H     H_    0.882641 0.349598 0.097065 0.219335
H37   H     H_    0.810562 0.437730 0.202376 0.245169
H38   H     H_    0.703072 0.277662 0.221548 0.189228
H39   H     H_    0.770730 0.197258 0.114931 0.195699
H40   H     H_    0.924402 0.138210 0.782029 0.265367
H41   H     H_    0.883250 0.175240 0.704429 0.266469
H42   H     H_    0.983407 0.248885 0.750835 0.253620
H43   H     H_    0.805916 0.355988 0.813767 0.220782
H44   H     H_    0.847763 0.321023 0.891340 0.220085
H45   H     H_    0.528570 0.114595 0.560362 0.174078
H46   H     H_    0.726383 0.162940 0.872572 0.194789
H47   H     H_    0.689417 0.197006 0.794694 0.198162
H48   H     H_    0.205242 0.812423 0.979856 0.238583
H49   H     H_    0.119202 0.724960 0.021146 0.251052
H50   H     H_    0.224875 0.791826 0.068705 0.239323
H51   H     H_    0.795370 0.647815 0.840014 0.260853
H52   H     H_    0.799857 0.599976 0.729494 0.259090
H53   H     H_    0.784963 0.743890 0.789848 0.251853
H54   H     H_    0.610717 0.679320 0.769818 0.210764
H55   H     H_    0.605037 0.723915 0.879876 0.227974
H56   H     H_    0.414830 0.903082 0.490833 0.138593
H57   H     H_    0.645663 0.532205 0.863466 0.214760
H58   H     H_    0.637794 0.484011 0.756949 0.218182
H59   H     H_    0.320026 0.366211 0.140948 0.257852
H60   H     H_    0.251682 0.498039 0.208502 0.232571
H61   H     H_    0.199963 0.403258 0.127122 0.241794
H62   H     H_    0.439706 0.501947 0.198225 0.158578
H63   H     H_    0.275877 0.687959 0.843117 0.179190
H64   H     H_    0.578935 0.354026 0.826791 0.158281
O1    O     O_3   0.500000 0.500000 0.500000 -0.460352
O2    O     O_R   0.474570 0.394560 0.317400 -0.643714
O3    O     O_R   0.403380 0.624270 0.695980 -0.648593
O4    O     O_R   0.609140 0.497770 0.314440 -0.636842
O5    O     O_R   0.512900 0.483390 0.672170 -0.643379
O6    O     O_R   0.526170 0.271940 0.521690 -0.650519
O7    O     O_R   0.451880 0.756290 0.574830 -0.643254
O8    O     O_R   0.271960 0.460780 0.472050 -0.648376
O9    O     O_R   0.749980 0.510990 0.431420 -0.642684
O10   O     O_R   0.262540 0.611050 0.579000 -0.630193
O11   O     O_R   0.715520 0.417170 0.517520 -0.639003
O12   O     O_R   0.426070 0.262540 0.438550 -0.663734
O13   O     O_R   0.595870 0.709230 0.464930 -0.646307
Zn1   Zn    Zn3+2 0.562560 0.419520 0.551940 0.945443
Zn2   Zn    Zn3+2 0.419550 0.406100 0.433160 0.941952
Zn3   Zn    Zn3+2 0.611810 0.553570 0.428930 0.954793
Zn4   Zn    Zn3+2 0.406080 0.620810 0.585960 0.959712

loop_
_geom_bond_atom_site_label_1
_geom_bond_atom_site_label_2
_ccdc_geom_bond_type
C40   C41   S    
C38   H28   S    
C9    H62   S    
C41   C42   S    
C35   C36   S    
O8    Zn2   S    
C40   H38   S    
O12   Zn2   S    
C6    C9    A    
C30   H16   S    
C9    C25   A    
C7    C8    A    
C53   C54   A    
C49   H55   S    
C3    C43   S    
O5    Zn1   S    
C37   H30   S    
C28   C29   S    
C14   C30   S    
C18   C19   D    
C1    O10   A    
C5    C6    A    
C11   C14   S    
C27   C55   S    
O1    Zn1   S    
C16   O12   A    
C15   C37   S    
C26   C45   A    
C17   C19   S    
C13   H23   S    
C44   H43   S    
C46   H40   S    
C29   H4    S    
C10   H34   S    
C11   H12   S    
C47   H50   S    
C23   C24   A    
C23   C48   S    
O2    Zn2   S    
C16   O6    A    
C38   H29   S    
C28   H6    S    
O7    Zn4   S    
C13   C14   D    
C50   H53   S    
C8    C25   A    
C15   C20   S    
C7    H1    S    
C20   O13   A    
C17   H56   S    
C30   H15   S    
C44   C46   S    
C22   O3    A    
C28   H5    S    
C31   H13   S    
C35   H21   S    
C51   H59   S    
C47   H48   S    
C4    O9    A    
C32   H10   S    
C37   H31   S    
C38   C39   S    
C32   H9    S    
C36   H18   S    
O9    Zn3   S    
C5    C7    A    
C33   H24   S    
C4    O11   A    
C51   H60   S    
C12   C26   A    
O1    Zn4   S    
C21   O4    A    
C43   C44   S    
C43   H46   S    
C20   O7    A    
C37   C38   S    
C27   H7    S    
O10   Zn4   S    
C31   C32   S    
C2    H64   S    
C23   C34   A    
C35   H20   S    
C46   H41   S    
C34   C45   A    
O3    Zn4   S    
C2    C52   A    
C26   C47   S    
C12   H63   S    
C48   C49   S    
C41   H36   S    
C46   H42   S    
C29   H2    S    
C50   H52   S    
C22   C24   S    
O11   Zn1   S    
C1    C13   S    
C6    C53   A    
C4    C10   S    
C52   C53   A    
C32   H11   S    
O6    Zn1   S    
C15   C17   D    
C21   C25   S    
C54   C55   A    
C36   H19   S    
C47   H49   S    
C48   H57   S    
C44   H44   S    
C1    O8    A    
C39   H27   S    
C40   H39   S    
C3    C5    A    
C19   H45   S    
C22   O5    A    
C12   C24   A    
C34   C52   A    
C51   H61   S    
C51   C54   S    
C39   H25   S    
O1    Zn3   S    
C2    C3    A    
C49   H54   S    
C33   H22   S    
C30   C31   S    
O13   Zn3   S    
C33   C35   S    
C39   H26   S    
O1    Zn2   S    
C21   O2    A    
C18   C33   S    
C43   H47   S    
C10   C11   D    
C31   H14   S    
C41   H37   S    
C42   H33   S    
C29   H3    S    
C45   C55   A    
C16   C18   S    
C49   C50   S    
O4    Zn3   S    
C27   C28   S    
C50   H51   S    
C27   H8    S    
C42   H32   S    
C8    C40   S    
C42   H35   S    
C36   H17   S    
C48   H58   S    
