data_mof_unit_44255.cif
_audit_creation_date              2012-12-11T14:17:41-0500
_audit_creation_method            fapswitch 2.2
_symmetry_space_group_name_H-M    P1
_symmetry_Int_Tables_number       1
_space_group_crystal_system       triclinic
_cell_length_a                    6.943798
_cell_length_b                    13.787162
_cell_length_c                    20.493615
_cell_angle_alpha                 102.50307
_cell_angle_beta                  89.372837
_cell_angle_gamma                 91.275033
_cell_volume                      1914.92063068

loop_
_atom_site_label
_atom_site_type_symbol
_atom_type_description
_atom_site_fract_x
_atom_site_fract_y
_atom_site_fract_z
_atom_type_partial_charge
O1    O     O_R   0.506860 0.599390 0.449240 -0.546747
O2    O     O_R   0.180220 0.594600 0.586780 -0.557438
O3    O     O_R   0.004500 0.400610 0.550760 -0.540944
C1    C     C_R   0.349028 0.612514 0.614418 0.736423
O4    O     O_R   0.177490 0.611290 0.451970 -0.544452
O5    O     O_R   0.001750 0.417420 0.414990 -0.503567
C2    C     C_R   0.347801 0.635192 0.433131 0.809448
O6    O     O_R   0.509610 0.582580 0.585010 -0.526065
O7    O     O_3   0.337420 0.436370 0.488020 -0.338712
V1    V     V_3+5 0.064680 0.511800 0.502220 1.662977
O8    O     O_R   0.671710 0.405400 0.413220 -0.541106
C3    C     C_R   0.839798 0.385112 0.386325 0.841347
O9    O     O_R   0.674440 0.388710 0.548030 -0.501800
C4    C     C_R   0.841145 0.364617 0.566420 0.836513
V2    V     V_3+5 0.564010 0.488200 0.497780 1.724245
O10   O     O_3   0.841140 0.563630 0.511980 -0.393887
C5    C     C_R   0.968831 0.124386 0.613876 0.457416
C6    C     C_R   0.848015 0.284751 0.603181 -0.339116
C7    C     C_R   0.881231 0.304242 0.919739 0.642545
C8    C     C_R   0.875555 0.378617 0.883964 -0.149193
C9    C     C_R   0.851327 0.354946 0.815262 -0.088828
C10   C     C_R   0.827001 0.255575 0.780123 0.113097
C11   C     C_R   0.847181 0.176871 0.815403 -0.197899
C12   C     C_R   0.817341 0.232884 0.708928 -0.137100
C13   C     C_R   0.870524 0.138122 0.675446 -0.274096
C14   C     C_R   0.838041 0.060345 0.706734 0.724366
C15   C     C_R   0.852561 0.076713 0.776070 0.314324
C16   C     C_R   0.770868 0.300530 0.669041 0.396018
C17   C     C_R   0.952743 0.197578 0.575913 0.221370
C18   C     C_R   0.867932 0.203808 0.887044 -0.210279
H1    H     H_    0.860699 0.415465 0.789483 0.179797
H2    H     H_    0.892536 0.455638 0.909660 0.166209
C19   C     C_2   0.998831 0.288151 0.283574 0.672332
C20   C     C_2   0.842083 0.310429 0.322634 -0.340172
H3    H     H_    0.708335 0.269694 0.308285 0.174391
C21   C     C_2   0.993655 0.208124 0.221981 0.458450
C22   C     C_2   0.860931 0.199795 0.172630 0.044339
C23   C     C_2   0.228018 0.750821 0.796261 -0.185581
C24   C     C_2   0.364547 0.820970 0.818632 0.572104
H4    H     H_    0.111293 0.740258 0.829930 0.094094
C25   C     C_2   0.214446 0.692073 0.725847 -0.057189
C26   C     C_2   0.365259 0.672541 0.683415 -0.146198
H5    H     H_    0.073443 0.661183 0.709430 0.138969
H6    H     H_    0.509904 0.694260 0.700690 0.207484
C27   C     C_R   0.473289 0.877643 0.384754 0.402491
C28   C     C_R   0.364591 0.712154 0.393451 -0.238958
C29   C     C_R   0.307655 0.687307 0.071522 -0.269623
C30   C     C_R   0.285732 0.612602 0.107212 0.736957
C31   C     C_R   0.302507 0.634407 0.176696 -0.177924
C32   C     C_R   0.341163 0.732710 0.212694 0.025273
C33   C     C_R   0.364477 0.808471 0.175428 -0.049482
C34   C     C_R   0.362348 0.757785 0.284047 0.008979
C35   C     C_R   0.421286 0.856453 0.315924 -0.226944
C36   C     C_R   0.426915 0.930542 0.277826 0.727414
C37   C     C_R   0.400458 0.906524 0.209348 -0.206710
C38   C     C_R   0.329595 0.687711 0.324663 -0.250584
C39   C     C_R   0.438099 0.806011 0.423016 0.587419
C40   C     C_R   0.347960 0.785136 0.104751 -0.124178
H7    H     H_    0.277631 0.613140 0.304415 0.163750
H8    H     H_    0.293248 0.668827 0.017621 0.136110
H9    H     H_    0.287741 0.572267 0.200547 0.176695
H10   H     H_    0.409115 0.966598 0.182965 0.175306
O11   O     O_R   0.203230 0.917310 0.915020 -0.515501
O12   O     O_R   0.535500 0.888690 0.048040 -0.556413
O13   O     O_R   0.711080 0.082610 0.085000 -0.547504
C41   C     C_R   0.364563 0.862174 0.064821 0.676413
O14   O     O_R   0.532630 0.905370 0.913230 -0.515443
O15   O     O_R   0.708190 0.099410 0.949230 -0.535601
C42   C     C_R   0.364402 0.882009 0.887456 0.682820
O16   O     O_R   0.206120 0.900510 0.050790 -0.550511
O17   O     O_3   0.375360 0.063570 0.011990 -0.378161
V3    V     V_3+5 0.648170 0.988200 0.997780 1.609536
O18   O     O_R   0.038240 0.111390 0.951940 -0.512612
C43   C     C_R   0.871690 0.131864 0.930611 0.927458
O19   O     O_R   0.041120 0.094710 0.086750 -0.521132
C44   C     C_R   0.872264 0.118563 0.112246 0.755307
V4    V     V_3+5 0.148810 0.011930 0.002180 1.668082
O20   O     O_3   0.871750 0.936430 0.988010 -0.375815
S1    S     S_3+6 0.045557 0.177247 0.492480 0.187465
O21   O     O_2   0.234061 0.232958 0.493082 -0.242535
O22   O     O_2   0.076463 0.069299 0.462606 -0.191384
O23   O     O_3   0.891738 0.219405 0.443264 -0.521230
H11   H     H_    0.761969 0.203641 0.458937 0.345976
F1    F     F_    0.136810 0.140743 0.215376 -0.615057
S2    S     S_3+6 0.683648 0.290826 0.171338 0.062705
O24   O     O_2   0.505603 0.266373 0.207479 -0.279769
O25   O     O_2   0.756683 0.392965 0.204223 -0.311011
O26   O     O_3   0.626888 0.291098 0.091695 -0.430849
H12   H     H_    0.499079 0.257420 0.084107 0.372363
F2    F     F_    0.507268 0.841487 0.777458 -0.655120
F3    F     F_    0.478636 0.826225 0.489370 -0.588067
F4    F     F_    0.445807 0.028527 0.306078 -0.594174
S3    S     S_3+6 0.615054 0.984199 0.420642 0.195076
O27   O     O_2   0.490561 0.074118 0.434568 -0.227345
O28   O     O_2   0.705888 0.973997 0.484956 -0.210851
O29   O     O_3   0.791219 0.997605 0.365846 -0.466094
H13   H     H_    0.774577 0.063922 0.355757 0.395508
F5    F     F_    0.814214 0.967540 0.668141 -0.572520
F6    F     F_    0.248533 0.517790 0.074138 -0.602103
S4    S     S_3+6 0.154199 0.033729 0.597107 0.212901
O30   O     O_2   0.078282 0.940718 0.551446 -0.218563
O31   O     O_2   0.326241 0.073343 0.565350 -0.233698
O32   O     O_3   0.229133 0.005800 0.668446 -0.450504
H14   H     H_    0.326461 0.953803 0.654432 0.418439
S5    S     S_3+6 0.580072 0.386135 0.693818 -0.017116
O33   O     O_2   0.490538 0.375713 0.759141 -0.329584
O34   O     O_2   0.657102 0.490427 0.699936 -0.393510
O35   O     O_3   0.405965 0.363116 0.635736 -0.467689
H15   H     H_    0.302892 0.410342 0.653534 0.335204
F7    F     F_    0.903626 0.330467 0.987089 -0.608611
S6    S     S_3+6 0.972234 0.979973 0.801156 0.047167
O36   O     O_2   0.164831 0.022725 0.826436 -0.334913
O37   O     O_2   0.862569 0.942335 0.854205 -0.347483
O38   O     O_3   0.009964 0.882895 0.737212 -0.438820
H16   H     H_    0.894661 0.838915 0.736241 0.393622
F8    F     F_    0.172355 0.331905 0.303134 -0.592627

loop_
_geom_bond_atom_site_label_1
_geom_bond_atom_site_label_2
_ccdc_geom_bond_type
S3    O27   D    
C5    C17   A    
O18   C43   A    
C4    C6    S    
C7    C8    A    
C1    O6    A    
C27   S3    S    
O38   H16   S    
C35   C36   A    
C9    H1    S    
C27   C39   A    
C14   C15   A    
O13   C44   A    
C22   S2    S    
C21   C22   D    
O14   V3    S    
O5    C3    A    
C23   C24   D    
C18   C43   S    
C7    F7    S    
O15   C43   A    
V2    O10   S    
C37   H10   S    
C19   C21   S    
O35   H15   S    
C20   H3    S    
C25   C26   D    
V3    O20   S    
C29   H8    S    
O8    V2    S    
C40   C41   S    
O11   C42   A    
C32   C34   A    
O1    V2    S    
C11   C15   A    
O7    V1    S    
C24   F2    S    
V4    O20   S    
C27   C35   A    
S3    O28   D    
O9    C4    A    
O16   V4    S    
C25   H5    S    
C26   H6    S    
C8    H2    S    
C32   C33   A    
S2    O25   D    
S5    O35   S    
C31   H9    S    
C2    C28   S    
C6    C16   A    
C12   C13   A    
C23   C25   S    
O4    C2    A    
C13   C14   A    
S2    O24   D    
S4    O32   S    
O14   C42   A    
O12   C41   A    
O2    C1    A    
O19   C44   A    
C11   C18   A    
C36   F4    S    
S5    O34   D    
C29   C30   A    
C17   S1    S    
C16   S5    S    
O15   V3    S    
O29   H13   S    
S4    O31   D    
C19   C20   D    
C24   C42   S    
S6    O37   D    
C33   C40   A    
C8    C9    A    
O19   V4    S    
O3    C4    A    
C14   F5    S    
C30   C31   A    
C22   C44   S    
C31   C32   A    
S3    O29   S    
O9    V2    S    
C28   C39   A    
C10   C12   A    
C3    C20   S    
O2    V1    S    
O17   V4    S    
C34   C35   A    
S1    O22   D    
O11   V4    S    
S2    O26   S    
C30   F6    S    
C36   C37   A    
C19   F8    S    
C39   F3    S    
S6    O36   D    
O1    C2    A    
C12   C16   A    
O5    V1    S    
S1    O23   S    
O8    C3    A    
O6    V2    S    
O13   V3    S    
S5    O33   D    
C38   H7    S    
C5    C13   A    
O7    V2    S    
O17   V3    S    
O3    V1    S    
V1    O10   S    
C29   C40   A    
C23   H4    S    
C41   O16   A    
C1    C26   S    
C21   F1    S    
S4    O30   D    
S6    O38   S    
C33   C37   A    
O12   V3    S    
C5    S4    S    
C6    C17   A    
S1    O21   D    
O4    V1    S    
O26   H12   S    
O23   H11   S    
C28   C38   A    
O32   H14   S    
O18   V4    S    
C10   C11   A    
C9    C10   A    
C7    C18   A    
C15   S6    S    
C34   C38   A    
