data_mof_unit_45637.cif
_audit_creation_date              2012-10-26T20:38:30-0400
_audit_creation_method            fapswitch 2.2
_symmetry_space_group_name_H-M    P1
_symmetry_Int_Tables_number       1
_space_group_crystal_system       triclinic
_cell_length_a                    15.825627
_cell_length_b                    11.036365
_cell_length_c                    9.929525
_cell_angle_alpha                 110.666198
_cell_angle_beta                  99.512434
_cell_angle_gamma                 92.055653
_cell_volume                      1591.99772748

loop_
_atom_site_label
_atom_site_type_symbol
_atom_type_description
_atom_site_fract_x
_atom_site_fract_y
_atom_site_fract_z
_atom_type_partial_charge
C1    C     C_R   0.493357 0.254989 0.441037 0.544938
C2    C     C_3   0.021007 0.593592 0.452406 0.257816
C3    C     C_3   0.013175 0.380407 0.402804 -0.182535
C4    C     C_3   0.986655 0.618828 0.596172 -0.183095
C5    C     C_1   0.249794 0.500756 0.494946 -0.012774
C6    C     C_1   0.750151 0.498887 0.504781 -0.018342
C7    C     C_3   0.047057 0.521800 0.630761 0.257678
C8    C     C_3   0.952769 0.477419 0.368190 0.257607
C9    C     C_3   0.081824 0.498835 0.488759 0.007198
C10   C     C_3   0.918012 0.500415 0.510191 0.007963
C11   C     C_1   0.173691 0.500259 0.489746 0.006657
C12   C     C_R   0.504380 0.745343 0.558662 0.545015
C13   C     C_1   0.826204 0.499167 0.509582 0.005965
C14   C     C_2   0.476166 0.117640 0.408802 -0.099876
C15   C     C_2   0.512910 0.884177 0.588240 -0.085993
C16   C     C_3   0.016366 0.227971 0.604756 -0.006060
C17   C     C_3   0.990215 0.133585 0.674673 -0.392576
C18   C     C_3   0.983202 0.771352 0.394577 -0.005792
C19   C     C_3   0.008772 0.865269 0.323669 -0.392736
C20   C     C_3   0.935551 0.409691 0.116211 -0.013173
C21   C     C_3   0.876088 0.412082 0.980284 -0.375352
C22   C     C_3   0.065210 0.591970 0.883069 -0.012068
C23   C     C_2   0.517404 0.059182 0.494281 0.101711
C24   C     C_3   0.124361 0.588373 0.018673 -0.377486
C25   C     C_3   0.330700 0.849194 0.386713 -0.283067
C26   C     C_3   0.669059 0.145869 0.535910 -0.280554
C27   C     C_3   0.404617 0.299090 0.796381 0.010691
C28   C     C_3   0.329490 0.235701 0.669290 -0.347973
C29   C     C_3   0.600878 0.694130 0.205509 0.008374
C30   C     C_3   0.674593 0.752535 0.336472 -0.341582
C31   C     C_2   0.481667 0.930147 0.483328 0.119409
C32   C     C_2   0.513572 0.501284 0.078492 0.348993
C33   C     C_2   0.487695 0.495846 0.920480 0.348007
C34   C     C_R   0.339892 0.500382 0.499019 0.532793
C35   C     C_R   0.660088 0.499455 0.500923 0.525385
C36   C     C_3   0.978812 0.405664 0.546558 0.258657
Cu1   Cu    Cu3+1 0.514700 0.521810 0.644910 0.966455
Cu2   Cu    Cu3+1 0.485300 0.478190 0.355090 0.982048
H1    H     H_    0.025736 0.285688 0.324225 0.080302
H2    H     H_    0.039369 0.063891 0.672111 0.097914
H3    H     H_    0.985563 0.187335 0.790578 0.140662
H4    H     H_    0.975421 0.829680 0.507943 0.120994
H5    H     H_    0.920343 0.716376 0.330073 0.166401
H6    H     H_    0.012540 0.811165 0.207426 0.139640
H7    H     H_    0.959745 0.935266 0.327098 0.097803
H8    H     H_    0.072260 0.920153 0.383431 0.152214
H9    H     H_    0.947826 0.307058 0.098302 0.124436
H10   H     H_    0.997276 0.468730 0.131702 0.148272
H11   H     H_    0.864588 0.514003 0.993486 0.150285
H12   H     H_    0.974053 0.713523 0.674744 0.080379
H13   H     H_    0.905594 0.369141 0.882419 0.132385
H14   H     H_    0.813469 0.354745 0.962965 0.173876
H15   H     H_    0.002567 0.535615 0.868728 0.146319
H16   H     H_    0.054881 0.695157 0.900447 0.124556
H17   H     H_    0.187943 0.642491 0.034208 0.169295
H18   H     H_    0.095914 0.634089 0.117193 0.130692
H19   H     H_    0.133691 0.485958 0.006227 0.150655
H20   H     H_    0.422016 0.860034 0.260784 0.231877
H21   H     H_    0.288061 0.775500 0.290179 0.149307
H22   H     H_    0.306547 0.945817 0.404746 0.117598
H23   H     H_    0.554199 0.946403 0.690051 0.092975
H24   H     H_    0.328174 0.822043 0.483718 0.161417
H25   H     H_    0.590680 0.185302 0.696099 0.253854
H26   H     H_    0.679848 0.251899 0.559631 0.164224
H27   H     H_    0.659186 0.092713 0.415393 0.142780
H28   H     H_    0.727463 0.114933 0.588417 0.145151
H29   H     H_    0.393935 0.265437 0.885334 0.094818
H30   H     H_    0.464850 0.261703 0.762612 0.140215
H31   H     H_    0.338359 0.259925 0.572924 0.158508
H32   H     H_    0.325375 0.128414 0.638185 0.080975
H33   H     H_    0.268230 0.270278 0.702014 0.153296
H34   H     H_    0.420819 0.069209 0.323349 0.068803
H35   H     H_    0.540654 0.733330 0.236689 0.163322
H36   H     H_    0.615363 0.730054 0.120194 0.090332
H37   H     H_    0.735475 0.712737 0.307907 0.155410
H38   H     H_    0.682969 0.859831 0.368237 0.088165
H39   H     H_    0.660914 0.730451 0.431679 0.162192
H40   H     H_    0.600074 0.580208 0.914081 0.194370
H41   H     H_    0.399694 0.422240 0.086189 0.195993
H42   H     H_    0.079042 0.282932 0.670178 0.167855
H43   H     H_    0.024669 0.170004 0.491584 0.120481
H44   H     H_    0.927013 0.078410 0.613630 0.151241
N1    N     N_2   0.463210 0.445420 0.137360 -0.334985
N2    N     N_2   0.536790 0.554580 0.862640 -0.337316
N3    N     N_2   0.417662 0.851960 0.359720 -0.508696
N4    N     N_2   0.596033 0.118819 0.595378 -0.535679
O1    O     O_R   0.507840 0.332340 0.577400 -0.492149
O2    O     O_3   0.047953 0.687105 0.397197 -0.564905
O3    O     O_3   0.894761 0.460182 0.237133 -0.551223
O4    O     O_3   0.105126 0.538576 0.761593 -0.551164
O5    O     O_3   0.407059 0.436378 0.840031 -0.530607
O6    O     O_3   0.595521 0.556303 0.156923 -0.533994
O7    O     O_R   0.492160 0.667660 0.422600 -0.460800
O8    O     O_R   0.483020 0.295500 0.332650 -0.501183
O9    O     O_R   0.516980 0.704500 0.667350 -0.505654
O10   O     O_R   0.391490 0.518400 0.622350 -0.422872
O11   O     O_R   0.608510 0.481600 0.377650 -0.422877
O12   O     O_R   0.366660 0.481570 0.377600 -0.514693
O13   O     O_R   0.633340 0.518430 0.622400 -0.520285
O14   O     O_3   0.951679 0.312224 0.601711 -0.565478

loop_
_geom_bond_atom_site_label_1
_geom_bond_atom_site_label_2
_ccdc_geom_bond_type
C1    O1    A    
C31   N3    S    
Cu2   N1    S    
C7    C36   S    
C28   H31   S    
C21   H13   S    
Cu2   O12   S    
C21   H11   S    
C19   H8    S    
C22   H16   S    
C24   H17   S    
C29   C30   S    
C34   O10   A    
C5    C11   T    
C33   O5    S    
C29   H35   S    
C6    C35   S    
Cu1   O9    S    
C17   H44   S    
C26   H26   S    
C27   H30   S    
C30   H39   S    
C1    O8    A    
C23   N4    S    
Cu1   N2    S    
C2    O2    S    
C25   H22   S    
C3    H1    S    
Cu2   O11   S    
C35   O13   A    
C22   H15   S    
C15   H23   S    
C28   H32   S    
C26   H28   S    
C36   O14   S    
C3    C8    S    
C18   C19   S    
C16   O14   S    
C29   H36   S    
C4    C7    S    
C7    O4    S    
C18   O2    S    
Cu1   O10   S    
C4    H12   S    
C16   H42   S    
C17   H2    S    
C23   C31   S    
C14   C23   D    
C2    C4    S    
Cu1   Cu2   S    
C3    C9    S    
C30   H38   S    
C12   C15   S    
C26   N4    S    
C5    C34   S    
Cu2   O8    S    
C25   N3    S    
C22   O4    S    
C12   O9    A    
C27   O5    S    
C9    C11   S    
C20   H10   S    
H25   N4    S    
C22   C24   S    
C12   O7    A    
C28   H33   S    
C4    C10   S    
H20   N3    S    
Cu1   O13   S    
C19   H6    S    
C24   H19   S    
C7    C9    S    
C32   N1    D    
C26   H27   S    
C14   H34   S    
Cu1   O1    S    
C2    C8    S    
C10   C13   S    
C19   H7    S    
C15   C31   D    
C1    C14   S    
C24   H18   S    
C20   O3    S    
C32   C33   S    
C18   H4    S    
C18   H5    S    
C6    C13   T    
H41   N1    S    
C30   H37   S    
C32   O6    S    
C3    C36   S    
Cu2   O7    S    
C16   H43   S    
C34   O12   A    
C25   H24   S    
C21   H14   S    
C33   N2    D    
C17   H3    S    
C20   H9    S    
C27   H29   S    
H40   N2    S    
C20   C21   S    
C8    C10   S    
C27   C28   S    
C10   C36   S    
C8    O3    S    
C25   H21   S    
C35   O11   A    
C2    C9    S    
C29   O6    S    
C16   C17   S    
