data_mof_unit_30485.cif
_audit_creation_date              2013-03-05T16:07:18-0500
_audit_creation_method            fapswitch 2.2
_symmetry_space_group_name_H-M    P1
_symmetry_Int_Tables_number       1
_space_group_crystal_system       triclinic
_cell_length_a                    6.948165
_cell_length_b                    13.678066
_cell_length_c                    20.283943
_cell_angle_alpha                 103.383963
_cell_angle_beta                  90.492775
_cell_angle_gamma                 90.228409
_cell_volume                      1875.27374495

loop_
_atom_site_label
_atom_site_type_symbol
_atom_site_description
_atom_site_fract_x
_atom_site_fract_y
_atom_site_fract_z
_atom_type_partial_charge
O1    O     O_R   0.506770 0.599700 0.449550 -0.595349
O2    O     O_R   0.179980 0.595740 0.587960 -0.598229
O3    O     O_R   0.004580 0.400300 0.550450 -0.597912
C1    C     C_R   0.348450 0.616768 0.615403 0.937502
O4    O     O_R   0.177380 0.611700 0.452380 -0.593752
O5    O     O_R   0.001970 0.416370 0.413900 -0.590249
C2    C     C_R   0.345977 0.639238 0.437114 0.928884
O6    O     O_R   0.509390 0.583630 0.586100 -0.601487
O7    O     O_3   0.337530 0.435890 0.487530 -0.276613
V1    V     V_3+5 0.064660 0.511890 0.502310 1.152695
O8    O     O_R   0.671950 0.404260 0.412040 -0.601843
C3    C     C_R   0.840122 0.382609 0.384799 0.950665
O9    O     O_R   0.674540 0.388300 0.547620 -0.597187
C4    C     C_R   0.843883 0.362165 0.564366 0.925604
V2    V     V_3+5 0.564030 0.488110 0.497690 1.148542
O10   O     O_3   0.841030 0.564110 0.512470 -0.280498
C5    C     C_R   0.910291 0.117239 0.613315 -0.173320
H1    H     H_    0.882381 0.163313 0.519822 0.110389
H2    H     H_    0.989213 0.999416 0.696178 0.141208
H3    H     H_    0.937971 0.039877 0.587687 0.122319
C6    C     C_R   0.855058 0.288325 0.606142 -0.119794
C7    C     C_R   0.783842 0.310243 0.931843 -0.162498
C8    C     C_R   0.732917 0.381400 0.896093 -0.104609
C9    C     C_R   0.753907 0.360979 0.826047 -0.173434
C10   C     C_R   0.837421 0.270164 0.789888 0.098538
C11   C     C_R   0.881474 0.195744 0.826730 0.104152
C12   C     C_R   0.863978 0.247312 0.717842 0.062286
C13   C     C_R   0.906267 0.146330 0.684232 0.171378
C14   C     C_R   0.948201 0.075024 0.721482 -0.241666
C15   C     C_R   0.941772 0.100033 0.791609 -0.227133
C16   C     C_R   0.855651 0.320077 0.677575 -0.053330
C17   C     C_R   0.879219 0.187258 0.574602 -0.194579
C18   C     C_R   0.854390 0.216867 0.897805 -0.169502
H4    H     H_    0.759217 0.326141 0.985972 0.103565
H5    H     H_    0.691722 0.415211 0.801454 0.130601
H6    H     H_    0.669339 0.451545 0.922534 0.116161
H7    H     H_    0.978747 0.042306 0.817994 0.133588
C19   C     C_R   0.730538 0.264976 0.199342 0.095238
C20   C     C_R   0.870097 0.189995 0.181881 -0.199178
C21   C     C_R   0.016705 0.188619 0.230417 -0.156888
H8    H     H_    0.133436 0.135445 0.218721 0.129872
C22   C     C_R   0.007593 0.251599 0.296268 -0.152182
H9    H     H_    0.118499 0.245671 0.332929 0.127968
C23   C     C_R   0.850686 0.316911 0.315659 -0.259483
C24   C     C_R   0.719658 0.324967 0.264436 0.150107
C25   C     C_3   0.505251 0.328855 0.261285 0.091401
C26   C     C_3   0.518141 0.267459 0.188106 -0.503052
H10   H     H_    0.436030 0.287535 0.296031 0.135390
H11   H     H_    0.481028 0.309876 0.149149 0.199072
H12   H     H_    0.447081 0.193318 0.179891 0.188521
C27   C     C_R   0.494912 0.759584 0.702803 0.129334
C28   C     C_R   0.351497 0.686546 0.683168 -0.262037
C29   C     C_R   0.197442 0.687648 0.728364 -0.138211
H13   H     H_    0.079966 0.634614 0.714683 0.123914
C30   C     C_R   0.198661 0.753140 0.793272 -0.169953
H14   H     H_    0.083361 0.748156 0.827829 0.128626
C31   C     C_R   0.354788 0.818844 0.815005 -0.215614
C32   C     C_R   0.497536 0.823211 0.767239 0.129419
C33   C     C_3   0.711529 0.819213 0.772415 -0.497874
C34   C     C_3   0.708521 0.750036 0.701521 0.076649
H15   H     H_    0.758265 0.780807 0.812393 0.172781
H16   H     H_    0.779271 0.893797 0.775573 0.201140
H17   H     H_    0.756247 0.672126 0.700060 0.131194
C35   C     C_R   0.433013 0.891109 0.398368 -0.183203
H18   H     H_    0.489581 0.013378 0.320350 0.135426
H19   H     H_    0.477212 0.966427 0.424381 0.118378
C36   C     C_R   0.355814 0.720720 0.402097 -0.123527
C37   C     C_R   0.302094 0.696400 0.077641 -0.168753
C38   C     C_R   0.261546 0.624610 0.113600 -0.095656
C39   C     C_R   0.272685 0.648513 0.183783 -0.166274
C40   C     C_R   0.330678 0.745429 0.220671 0.061638
C41   C     C_R   0.375506 0.820448 0.183818 0.043454
C42   C     C_R   0.348602 0.768937 0.293048 0.093338
C43   C     C_R   0.405965 0.866641 0.327784 0.113971
C44   C     C_R   0.443978 0.939307 0.292241 -0.246494
C45   C     C_R   0.436822 0.917670 0.221619 0.201551
C46   C     C_R   0.317385 0.697809 0.332413 -0.261850
C47   C     C_R   0.411561 0.818690 0.436008 0.039538
C48   C     C_R   0.356406 0.793860 0.111076 -0.150842
H20   H     H_    0.268469 0.622713 0.310527 0.122286
H21   H     H_    0.286259 0.676344 0.022918 0.100613
H22   H     H_    0.233507 0.588687 0.207347 0.117156
H23   H     H_    0.217341 0.549836 0.086808 0.115180
O11   O     O_R   0.203450 0.916320 0.913910 -0.598643
O12   O     O_R   0.535520 0.888300 0.047620 -0.598954
O13   O     O_R   0.710860 0.083650 0.086100 -0.594347
C49   C     C_R   0.367536 0.866211 0.067801 0.949106
O14   O     O_R   0.532860 0.904250 0.912040 -0.595410
O15   O     O_R   0.708190 0.099710 0.949550 -0.588796
C50   C     C_R   0.363977 0.883345 0.884555 0.949542
O16   O     O_R   0.206120 0.900260 0.050460 -0.596202
O17   O     O_3   0.375280 0.064080 0.012470 -0.277316
V3    V     V_3+5 0.648180 0.988110 0.997690 1.150450
O18   O     O_R   0.038220 0.111740 0.952370 -0.597209
C51   C     C_R   0.868739 0.138268 0.935950 0.928029
O19   O     O_R   0.040880 0.095790 0.087940 -0.605208
C52   C     C_R   0.873140 0.118680 0.114692 0.941698
V4    V     V_3+5 0.148800 0.011950 0.002300 1.150290
O20   O     O_3   0.871820 0.935920 0.987530 -0.277088
C53   C     C_3   0.429355 0.434935 0.267861 -0.959592
H24   H     H_    0.273353 0.431355 0.255134 0.249400
H25   H     H_    0.449266 0.477924 0.320928 0.255639
H26   H     H_    0.506616 0.474447 0.233752 0.248016
C54   C     C_3   0.799058 0.796186 0.647143 -0.918452
H27   H     H_    0.738584 0.871667 0.648259 0.238398
H28   H     H_    0.957061 0.803281 0.655405 0.250126
H29   H     H_    0.770567 0.746917 0.596317 0.266129
N1    N     N_3   0.449294 0.847152 0.507848 -0.210288
H30   H     H_    0.431084 0.787032 0.530899 0.081301
H31   H     H_    0.346985 0.900763 0.529268 0.103948
C55   C     C_3   0.514075 0.998706 0.190420 -0.951506
H32   H     H_    0.401605 0.024085 0.159299 0.238412
H33   H     H_    0.562067 0.066339 0.228898 0.226602
H34   H     H_    0.644009 0.969602 0.161344 0.266258
N2    N     N_3   0.871415 0.425542 0.708132 -0.227491
H35   H     H_    0.997920 0.453105 0.691343 0.107842
H36   H     H_    0.754279 0.462521 0.692373 0.088144

loop_
_geom_bond_atom_site_label_1
_geom_bond_atom_site_label_2
_geom_bond_distance
_ccdc_geom_bond_type
C30   H14   1.081265 S    
C49   O16   1.292951 A    
C42   C43   1.412895 A    
C55   H32   1.106697 S    
C36   C46   1.398275 A    
C41   C45   1.433749 A    
C48   C49   1.469195 S    
O17   V4    1.715994 S    
C26   H11   1.112403 S    
C29   H13   1.080583 S    
C23   C24   1.399300 A    
C6    C16   1.413008 A    
O11   C50   1.301197 A    
C1    C28   1.480797 S    
C34   H17   1.111229 S    
C37   H21   1.084502 S    
C4    C6    1.462830 S    
C13   C14   1.395242 A    
C41   C48   1.440415 A    
O5    C3    1.297897 A    
C19   C20   1.401158 A    
C20   C52   1.481395 S    
O18   V4    2.028311 S    
V2    O10   2.169008 S    
V4    O20   2.169064 S    
C5    H3    1.084262 S    
N1    H30   1.043571 S    
C47   N1    1.440044 S    
C16   N2    1.435547 S    
O13   C52   1.301192 A    
O17   V3    2.155533 S    
C19   C24   1.386722 A    
O14   V3    2.005535 S    
O12   V3    2.036535 S    
C37   C38   1.381484 A    
N2    H36   1.045972 S    
O19   V4    2.000488 S    
C8    C9    1.392186 A    
C39   C40   1.418045 A    
O1    V2    2.032150 S    
O7    V1    2.155536 S    
V3    O20   1.706716 S    
C1    O6    1.303817 A    
C37   C48   1.397298 A    
C21   C22   1.414005 A    
C33   C34   1.527419 S    
O9    C4    1.296267 A    
O15   V3    2.037018 S    
O18   C51   1.296882 A    
C36   C47   1.408336 A    
C22   C23   1.412016 A    
C18   C51   1.465958 S    
C54   H28   1.109593 S    
C54   H27   1.111649 S    
C26   H12   1.102867 S    
C29   C30   1.410557 A    
C7    H4    1.083998 S    
C6    C17   1.393837 A    
C25   H10   1.111551 S    
C33   H15   1.110413 S    
C9    H5    1.075149 S    
C43   C44   1.382160 A    
O12   C49   1.297624 A    
C12   C16   1.427242 A    
C27   C28   1.396661 A    
C9    C10   1.417367 A    
C31   C50   1.481369 S    
C20   C21   1.413775 A    
C40   C42   1.432546 A    
C10   C11   1.427939 A    
C24   C25   1.492243 S    
C53   H26   1.111803 S    
C15   H7    1.082022 S    
C35   H19   1.084940 S    
O15   C51   1.290964 A    
O2    C1    1.294129 A    
C44   C45   1.394454 A    
C14   C15   1.385038 A    
C38   H23   1.083063 S    
O13   V3    2.002610 S    
C11   C18   1.417595 A    
O19   C52   1.298451 A    
C53   H25   1.107850 S    
C55   H33   1.111276 S    
C27   C32   1.392430 A    
C19   C26   1.493054 S    
O3    C4    1.291275 A    
C21   H8    1.082230 S    
O14   C50   1.296833 A    
C11   C15   1.405216 A    
O6    V2    1.999516 S    
O8    V2    2.000689 S    
C30   C31   1.406901 A    
H1    C17   1.083713 S    
C22   H9    1.082563 S    
O2    V1    2.005485 S    
C28   C29   1.413167 A    
O4    C2    1.291026 A    
C46   H20   1.072933 S    
C7    C18   1.396708 A    
C25   C53   1.522796 S    
C25   C26   1.530485 S    
C33   H16   1.109854 S    
C42   C46   1.411403 A    
O1    C2    1.291278 A    
C5    C13   1.401477 A    
C35   C47   1.391826 A    
O5    V1    2.002504 S    
O8    C3    1.302496 A    
C10   C12   1.435637 A    
H18   C44   1.085752 S    
O11   V4    1.999900 S    
O9    V2    2.028341 S    
C32   C33   1.491773 S    
O4    V1    2.036696 S    
C3    C23   1.482765 S    
O3    V1    2.037003 S    
V1    O10   1.706813 S    
C31   C32   1.403179 A    
C45   C55   1.497673 S    
C53   H24   1.110333 S    
N1    H31   1.045852 S    
C55   H34   1.106659 S    
O16   V4    2.033675 S    
O7    V2    1.716590 S    
C38   C39   1.386341 A    
C39   H22   1.074105 S    
C2    C36   1.455347 S    
C40   C41   1.437106 A    
C8    H6    1.082839 S    
C12   C13   1.424669 A    
C5    C17   1.388280 A    
C35   C43   1.403641 A    
C7    C8    1.386865 A    
C27   C34   1.490364 S    
C34   C54   1.530339 S    
C54   H29   1.109052 S    
N2    H35   1.045292 S    
H2    C14   1.083187 S    
