data_mof_unit_8645.cif
_audit_creation_date              2012-12-11T14:57:56-0500
_audit_creation_method            fapswitch 2.2
_symmetry_space_group_name_H-M    P1
_symmetry_Int_Tables_number       1
_space_group_crystal_system       triclinic
_cell_length_a                    6.945867
_cell_length_b                    16.639588
_cell_length_c                    17.157528
_cell_angle_alpha                 100.306804
_cell_angle_beta                  90.397326
_cell_angle_gamma                 91.637944
_cell_volume                      1950.0630201

loop_
_atom_site_label
_atom_site_type_symbol
_atom_type_description
_atom_site_fract_x
_atom_site_fract_y
_atom_site_fract_z
_atom_type_partial_charge
O1    O     O_R   0.506180 0.438940 0.579430 -0.497542
O2    O     O_R   0.170520 0.406230 0.413590 -0.540395
O3    O     O_R   0.005180 0.561060 0.420570 -0.506008
C1    C     C_R   0.337754 0.383785 0.384457 0.731694
O4    O     O_R   0.176140 0.429310 0.578370 -0.537844
O5    O     O_R   0.010830 0.584300 0.586530 -0.508300
C2    C     C_R   0.344100 0.413448 0.604716 0.828736
O6    O     O_R   0.500520 0.415700 0.413470 -0.537340
O7    O     O_3   0.340830 0.550820 0.502480 -0.347757
V1    V     V_3+5 0.064040 0.490570 0.499540 1.672950
O8    O     O_R   0.681400 0.593770 0.586410 -0.526724
C3    C     C_R   0.854510 0.621517 0.610042 0.844949
O9    O     O_R   0.675790 0.570690 0.421630 -0.537527
C4    C     C_R   0.844637 0.585192 0.394281 0.804199
V2    V     V_3+5 0.564650 0.509430 0.500460 1.670633
O10   O     O_3   0.837730 0.449180 0.497520 -0.367586
C5    C     C_R   0.906606 0.862607 0.167467 -0.173367
C6    C     C_R   0.856577 0.634089 0.330220 -0.149227
C7    C     C_R   0.945631 0.644637 0.195381 -0.041960
C8    C     C_R   0.911589 0.597382 0.253959 0.664246
C9    C     C_R   0.818868 0.717872 0.345115 -0.182423
C10   C     C_R   0.846939 0.765568 0.285644 0.039571
C11   C     C_R   0.917670 0.729594 0.210570 -0.005218
C12   C     C_R   0.955058 0.779159 0.152570 0.219570
C13   C     C_R   0.833715 0.896815 0.242190 0.249395
C14   C     C_R   0.807157 0.848909 0.300664 -0.019131
H1    H     H_    0.991034 0.613565 0.137969 0.217868
H2    H     H_    0.753305 0.876962 0.357939 0.192671
H3    H     H_    0.771091 0.746106 0.403391 0.169121
C15   C     C_R   0.966997 0.916509 0.732394 -0.181735
C16   C     C_R   0.003440 0.937956 0.659594 0.300007
C17   C     C_R   0.027205 0.877144 0.593544 0.290684
C18   C     C_R   0.009264 0.793969 0.600656 0.093186
C19   C     C_R   0.940632 0.770729 0.672648 -0.034092
C20   C     C_R   0.934996 0.834187 0.740625 -0.008060
C21   C     C_R   0.873994 0.689243 0.680020 -0.106851
C22   C     C_R   0.812352 0.673416 0.755570 -0.047828
C23   C     C_R   0.820305 0.737606 0.822915 -0.041847
C24   C     C_R   0.892320 0.816178 0.815991 -0.051048
C25   C     C_R   0.743845 0.594534 0.767038 0.594802
C26   C     C_R   0.677577 0.581963 0.840505 -0.140462
C27   C     C_R   0.679062 0.645671 0.904693 0.300577
C28   C     C_R   0.751506 0.722379 0.896491 -0.163982
H4    H     H_    0.956624 0.966191 0.782217 0.171442
H5    H     H_    0.625207 0.521760 0.847519 0.189259
H6    H     H_    0.750571 0.770023 0.948376 0.154356
C29   C     C_R   0.255975 0.215262 0.391044 -0.219572
C30   C     C_R   0.228269 0.133941 0.398949 -0.092305
C31   C     C_R   0.261569 0.071911 0.335349 0.744352
C32   C     C_R   0.322006 0.090800 0.263427 -0.196966
C33   C     C_R   0.352752 0.172968 0.253285 -0.008292
C34   C     C_R   0.318089 0.236595 0.318609 0.047882
C35   C     C_R   0.423079 0.191124 0.180440 -0.060932
C36   C     C_R   0.464379 0.275110 0.174117 -0.019728
C37   C     C_R   0.411269 0.339779 0.237973 -0.100644
C38   C     C_R   0.347019 0.319626 0.311547 -0.068291
C39   C     C_R   0.555161 0.298919 0.106419 0.180276
C40   C     C_R   0.564504 0.380120 0.097229 -0.165567
C41   C     C_R   0.497801 0.440848 0.154543 0.686336
C42   C     C_R   0.425846 0.423013 0.225142 0.152820
H7    H     H_    0.228257 0.260964 0.442657 0.147995
H8    H     H_    0.181417 0.119089 0.454890 0.199701
H9    H     H_    0.349357 0.039711 0.216702 0.150962
H10   H     H_    0.630029 0.397305 0.045192 0.210875
C43   C     C_R   0.417087 0.139070 0.833856 -0.223401
C44   C     C_R   0.349295 0.364072 0.668583 -0.199082
C45   C     C_R   0.260943 0.344917 0.801318 -0.100124
C46   C     C_R   0.268954 0.393655 0.742827 0.190670
C47   C     C_R   0.431411 0.286505 0.655471 0.570591
C48   C     C_R   0.427332 0.237729 0.715114 -0.093193
C49   C     C_R   0.337268 0.266188 0.788424 -0.029536
C50   C     C_R   0.328982 0.215903 0.847308 0.216514
C51   C     C_R   0.508966 0.112746 0.761529 0.582994
C52   C     C_R   0.511991 0.160953 0.702648 -0.075409
H11   H     H_    0.196898 0.370292 0.857213 0.216003
H12   H     H_    0.582069 0.138018 0.647240 0.229196
O11   O     O_R   0.265840 0.084300 0.086750 -0.538946
O12   O     O_R   0.589750 0.070740 0.921690 -0.509609
O13   O     O_R   0.755020 0.915730 0.913400 -0.543126
C53   C     C_R   0.421844 0.086846 0.895543 0.846705
O14   O     O_R   0.595830 0.093740 0.086480 -0.511762
O15   O     O_R   0.761150 0.938890 0.079360 -0.536488
C54   C     C_R   0.428972 0.121788 0.110604 0.751933
O16   O     O_R   0.259710 0.061140 0.920790 -0.535798
O17   O     O_3   0.425260 0.949200 0.997610 -0.377233
V3    V     V_3+5 0.702060 0.009430 0.000450 1.629891
O18   O     O_R   0.090530 0.929220 0.078150 -0.527524
C55   C     C_R   0.920968 0.913269 0.104471 0.781379
O19   O     O_R   0.084440 0.906220 0.913360 -0.537475
C56   C     C_R   0.912184 0.881959 0.886887 0.677969
V4    V     V_3+5 0.201450 0.990520 0.999290 1.590482
O20   O     O_3   0.928380 0.050800 0.002390 -0.340955
Br1   Br    Br    0.077245 0.734620 0.054152 -0.472974
Br2   Br    Br    0.091604 0.909254 0.493918 -0.342649
Br3   Br    Br    0.132427 0.721473 0.517988 -0.496558
F1    F     F_    0.745152 0.527352 0.709232 -0.667609
F2    F     F_    0.510768 0.519117 0.142033 -0.598846
F3    F     F_    0.237173 0.992700 0.343377 -0.620747
Br4   Br    Br    0.777185 0.010605 0.268612 -0.518295
Br5   Br    Br    0.706755 0.233925 0.027860 -0.444405
Br6   Br    Br    0.343631 0.519634 0.294886 -0.392421
Br7   Br    Br    0.203271 0.251985 0.946986 -0.479753
F4    F     F_    0.592839 0.038939 0.747175 -0.671344
Br8   Br    Br    0.180388 0.503131 0.769145 -0.484297
F5    F     F_    0.512271 0.258175 0.584266 -0.689214
F6    F     F_    0.929753 0.515161 0.235749 -0.664214
Br9   Br    Br    0.582747 0.627751 0.004356 -0.350586
Br10  Br    Br    0.030545 0.052179 0.654607 -0.445323

loop_
_geom_bond_atom_site_label_1
_geom_bond_atom_site_label_2
_ccdc_geom_bond_type
C44   C46   A    
O18   C55   A    
O18   V4    S    
C6    C9    A    
C26   C27   A    
C4    C6    S    
C17   Br2   S    
C7    C8    A    
C53   O16   A    
O17   V4    S    
C35   C36   A    
C52   H12   S    
C15   C20   A    
C9    C10   A    
C21   C22   A    
C22   C25   A    
O5    C3    A    
C23   C24   A    
O12   C53   A    
C44   C47   A    
O11   C54   A    
V2    O10   S    
C5    C55   S    
C43   C51   A    
C19   C20   A    
C51   C52   A    
O13   C56   A    
C31   F3    S    
O8    V2    S    
C13   Br4   S    
O11   V4    S    
C29   C30   A    
C48   C52   A    
C45   C49   A    
C11   C12   A    
C48   C49   A    
O1    V2    S    
O16   V4    S    
C3    C21   S    
C7    H1    S    
C27   Br9   S    
C24   C56   S    
C19   C21   A    
O14   V3    S    
C1    O6    A    
O12   V3    S    
C41   C42   A    
C43   C53   S    
C37   C42   A    
C1    C38   S    
C32   H9    S    
C15   H4    S    
C25   F1    S    
C18   Br3   S    
O4    V1    S    
O14   C54   A    
C32   C33   A    
C8    F6    S    
C40   H10   S    
C5    C12   A    
C33   C34   A    
V4    O20   S    
O4    C2    A    
C47   F5    S    
C7    C11   A    
C13   C14   A    
O17   V3    S    
C39   Br5   S    
C9    H3    S    
C45   C46   A    
C33   C35   A    
O2    C1    A    
C29   H7    S    
C22   C23   A    
C30   H8    S    
C16   C17   A    
C37   C38   A    
C18   C19   A    
O3    C4    A    
C30   C31   A    
C31   C32   A    
O6    V2    S    
O9    V2    S    
C41   F2    S    
C45   H11   S    
C27   C28   A    
C42   Br6   S    
O2    V1    S    
C16   Br10  S    
O7    V1    S    
C36   C37   A    
C25   C26   A    
O1    C2    A    
C46   Br8   S    
O5    V1    S    
O8    C3    A    
C29   C34   A    
C43   C50   A    
C14   H2    S    
C35   C54   S    
C5    C13   A    
C17   C18   A    
C40   C41   A    
C23   C28   A    
O3    V1    S    
V3    O20   S    
C12   Br1   S    
C2    C44   S    
O15   V3    S    
C39   C40   A    
C15   C16   A    
C50   Br7   S    
O15   C55   A    
C20   C24   A    
C6    C8    A    
O7    V2    S    
C47   C48   A    
C28   H6    S    
C51   F4    S    
C49   C50   A    
O19   V4    S    
C10   C14   A    
C26   H5    S    
C10   C11   A    
V1    O10   S    
O19   C56   A    
O9    C4    A    
O13   V3    S    
C34   C38   A    
C36   C39   A    
