data_mof_unit_29159.cif
_audit_creation_date              2013-03-05T15:42:49-0500
_audit_creation_method            fapswitch 2.2
_symmetry_space_group_name_H-M    P1
_symmetry_Int_Tables_number       1
_space_group_crystal_system       triclinic
_cell_length_a                    6.942011
_cell_length_b                    14.72236
_cell_length_c                    16.292282
_cell_angle_alpha                 90.502518
_cell_angle_beta                  89.979606
_cell_angle_gamma                 90.018804
_cell_volume                      1665.05235929

loop_
_atom_site_label
_atom_site_type_symbol
_atom_site_description
_atom_site_fract_x
_atom_site_fract_y
_atom_site_fract_z
_atom_type_partial_charge
O1    O     O_R   0.494400 0.416610 0.413880 -0.548231
O2    O     O_R   0.823920 0.406790 0.585520 -0.565979
O3    O     O_R   0.994250 0.583390 0.586120 -0.564211
C1    C     C_R   0.654140 0.383025 0.611502 0.857327
O4    O     O_R   0.824110 0.405730 0.414490 -0.562568
O5    O     O_R   0.994440 0.582310 0.413870 -0.580797
C2    C     C_R   0.655257 0.385480 0.385147 0.865348
O6    O     O_R   0.494210 0.417690 0.586130 -0.543890
O7    O     O_3   0.660810 0.557940 0.500000 -0.272163
V1    V     V_3+5 0.935650 0.489250 0.500000 1.193065
O8    O     O_R   0.324160 0.593210 0.414480 -0.520355
C3    C     C_R   0.156156 0.612723 0.384554 0.783095
O9    O     O_R   0.323970 0.594270 0.585510 -0.555452
C4    C     C_R   0.155418 0.615693 0.614195 0.856381
V2    V     V_3+5 0.435660 0.510750 0.500000 1.217525
O10   O     O_3   0.160630 0.442060 0.500000 -0.256792
C5    C     C_R   0.191661 0.555659 0.786865 0.111047
C6    C     C_R   0.185810 0.525556 0.868325 0.126947
C7    C     C_R   0.156421 0.587528 0.931580 -0.095249
C8    C     C_R   0.134871 0.679943 0.916326 0.097173
C9    C     C_R   0.137641 0.713780 0.834327 0.011291
C10   C     C_R   0.159464 0.649574 0.767834 -0.020849
C11   C     C_R   0.118918 0.808849 0.816973 -0.084179
C12   C     C_R   0.111037 0.838240 0.734254 -0.037309
C13   C     C_R   0.123243 0.774465 0.668719 -0.033723
C14   C     C_R   0.147607 0.680656 0.684869 -0.084770
C15   C     C_R   0.088109 0.931367 0.715469 -0.180895
C16   C     C_R   0.076006 0.961690 0.634395 0.305014
C17   C     C_R   0.092285 0.898648 0.569377 0.305465
C18   C     C_R   0.113379 0.806285 0.587051 -0.160962
H1    H     H_    0.152060 0.564057 0.994437 0.110668
H2    H     H_    0.074171 0.981887 0.763737 0.107518
H3    H     H_    0.126732 0.759809 0.535565 0.096786
C19   C     C_2   0.993415 0.716160 0.287528 -0.065667
C20   C     C_2   0.153138 0.668790 0.308924 0.200191
H4    H     H_    0.865781 0.711210 0.325750 0.137889
C21   C     C_2   0.976262 0.776052 0.214317 -0.023385
C22   C     C_2   0.124042 0.825124 0.184592 -0.137654
H5    H     H_    0.834030 0.783595 0.187510 0.121604
H6    H     H_    0.263393 0.822559 0.214544 0.141402
C23   C     C_2   0.772825 0.209880 0.782223 -0.063941
C24   C     C_2   0.614100 0.187014 0.824484 -0.237491
H7    H     H_    0.908230 0.176326 0.795699 0.142547
H8    H     H_    0.482312 0.225138 0.817160 0.083815
C25   C     C_2   0.777764 0.285258 0.722008 -0.048856
C26   C     C_2   0.634895 0.306365 0.668709 0.004563
H9    H     H_    0.911274 0.323236 0.719515 0.069082
C27   C     C_2   0.770968 0.215017 0.209677 -0.128884
C28   C     C_2   0.611619 0.166731 0.188739 0.182143
H10   H     H_    0.897556 0.210748 0.170667 0.117885
C29   C     C_2   0.788561 0.275315 0.283301 -0.014759
C30   C     C_2   0.639929 0.323555 0.313825 -0.153850
H11   H     H_    0.931253 0.284126 0.309493 0.139467
H12   H     H_    0.500136 0.319869 0.284266 0.116004
O11   O     O_R   0.770210 0.079270 0.910680 -0.569063
O12   O     O_R   0.440150 0.091160 0.082270 -0.522513
O13   O     O_R   0.269970 0.914530 0.082860 -0.546829
C31   C     C_R   0.608109 0.110641 0.112508 0.785521
O14   O     O_R   0.440480 0.090100 0.911240 -0.564180
O15   O     O_R   0.270310 0.913460 0.910610 -0.556020
C32   C     C_R   0.609319 0.113414 0.884957 0.848094
O16   O     O_R   0.769870 0.080340 0.082930 -0.571596
O17   O     O_3   0.603660 0.938980 0.996790 -0.273405
V3    V     V_3+5 0.328750 0.007610 0.996740 1.193577
O18   O     O_R   0.940600 0.902510 0.911180 -0.555674
C33   C     C_R   0.109557 0.879051 0.883935 0.863235
O19   O     O_R   0.940270 0.903570 0.082200 -0.557447
C34   C     C_R   0.108752 0.885896 0.113120 0.859853
V4    V     V_3+5 0.828770 0.986010 0.996670 1.170403
O20   O     O_3   0.103730 0.054750 0.996710 -0.274671
N1    N     N_R   0.095880 0.927504 0.485265 0.124464
O21   O     O_R   0.188417 0.000794 0.464804 -0.235312
O22   O     O_R   0.028824 0.874701 0.427525 -0.367096
N2    N     N_R   0.316327 0.662927 0.254524 0.068377
O23   O     O_R   0.490469 0.671199 0.283079 -0.367035
O24   O     O_R   0.292054 0.638363 0.178289 -0.403307
N3    N     N_3   0.463380 0.252243 0.660180 -0.435029
H13   H     H_    0.361708 0.272894 0.703722 0.193420
H14   H     H_    0.495252 0.183132 0.665343 0.248035
N4    N     N_R   0.450669 0.159524 0.244184 0.081930
O25   O     O_R   0.275091 0.164919 0.216787 -0.364587
O26   O     O_R   0.478975 0.136284 0.320132 -0.279836
N5    N     N_3   0.238888 0.490145 0.724452 -0.471880
H15   H     H_    0.133250 0.439726 0.723539 0.174001
H16   H     H_    0.371055 0.460393 0.739136 0.184596
N6    N     N_3   0.213606 0.430882 0.886041 -0.508432
H17   H     H_    0.224115 0.420683 0.949323 0.183198
H18   H     H_    0.090293 0.396117 0.866481 0.165341
N7    N     N_3   0.107628 0.737934 0.986070 -0.495995
H19   H     H_    0.226512 0.730140 0.024775 0.203126
H20   H     H_    0.984816 0.716299 0.017601 0.182816
N8    N     N_R   0.039557 0.056139 0.619360 0.113325
O27   O     O_R   0.913004 0.080108 0.564769 -0.281499
O28   O     O_R   0.114058 0.118028 0.667151 -0.400289

loop_
_geom_bond_atom_site_label_1
_geom_bond_atom_site_label_2
_geom_bond_distance
_ccdc_geom_bond_type
C31   O16   1.299387 A    
C20   N2    1.440261 S    
C19   C21   1.494321 S    
C23   C24   1.343434 D    
C7    C8    1.393328 A    
C12   C15   1.416448 A    
C1    O6    1.291645 A    
C7    H1    1.084094 S    
C1    C26   1.476000 S    
N3    H13   1.043949 S    
O14   V3    2.011265 S    
C21   C22   1.346931 D    
N2    O24   1.301572 A    
C11   C33   1.497609 S    
C16   C17   1.406788 A    
C2    C30   1.474506 S    
C6    C7    1.385503 A    
O5    C3    1.300751 A    
N6    H18   1.045646 S    
V2    O10   2.160254 S    
C19   C20   1.357343 D    
O8    V2    2.011299 S    
C27   C29   1.491030 S    
O17   V4    1.709035 S    
C11   C12   1.420134 A    
O12   V3    2.005728 S    
O1    V2    2.005415 S    
V3    O20   1.709532 S    
N7    H20   1.046233 S    
O7    V1    2.159674 S    
C27   H10   1.085844 S    
O15   C33   1.298826 A    
O9    C4    1.297792 A    
C23   H7    1.085428 S    
C24   H8    1.080667 S    
C30   H12   1.084650 S    
C25   H9    1.083199 S    
O14   C32   1.294963 A    
N2    O23   1.300770 A    
C29   C30   1.345455 D    
C12   C13   1.418155 A    
N4    O26   1.301687 A    
O4    C2    1.299651 A    
N6    H17   1.045760 S    
C13   C14   1.418381 A    
C25   C26   1.356403 D    
C28   C31   1.485612 S    
O19   C34   1.300912 A    
O16   V4    2.009140 S    
C5    N5    1.433364 S    
O2    C1    1.301039 A    
C17   C18   1.400159 A    
N5    H15   1.043289 S    
N8    O28   1.300559 A    
C5    C6    1.403461 A    
N3    H14   1.045440 S    
C16   N8    1.436596 S    
C6    N6    1.438948 S    
C4    C14   1.491345 S    
C3    C20   1.489263 S    
C24   C32   1.471241 S    
O11   V4    2.011876 S    
O3    C4    1.297453 A    
C27   C28   1.356794 D    
N5    H16   1.045553 S    
C22   C34   1.478558 S    
O6    V2    2.011441 S    
O9    V2    2.005939 S    
O13   C34   1.294705 A    
O2    V1    2.011224 S    
O13   V3    2.011470 S    
N1    O22   1.301242 A    
O19   V4    2.011234 S    
C13   C18   1.416168 A    
C18   H3    1.081809 S    
C15   H2    1.081991 S    
O1    C2    1.293193 A    
N4    O25   1.300866 A    
O5    V1    2.011394 S    
C26   N3    1.438550 S    
O8    C3    1.297519 A    
C8    N7    1.427857 S    
C5    C10   1.437207 A    
C28   N4    1.441025 S    
O15   V3    2.005225 S    
C9    C11   1.436284 A    
O7    V2    1.710237 S    
O4    V1    2.005613 S    
C21   H5    1.085918 S    
O3    V1    2.005236 S    
V1    O10   1.709576 S    
C22   H6    1.084455 S    
O18   V4    2.005913 S    
O11   C32   1.296228 A    
N8    O27   1.301405 A    
O12   C31   1.296980 A    
C19   H4    1.085593 S    
V4    O20   2.160167 S    
O17   V3    2.159695 S    
N1    O21   1.301437 A    
C8    C9    1.430014 A    
O18   C33   1.299700 A    
C10   C14   1.433248 A    
C15   C16   1.400545 A    
C23   C25   1.488017 S    
C29   H11   1.086000 S    
N7    H19   1.045766 S    
C9    C10   1.439484 A    
C17   N1    1.438478 S    
