data_mof_unit_20526.cif
_audit_creation_date              2012-10-26T17:12:26-0400
_audit_creation_method            fapswitch 2.2
_symmetry_space_group_name_H-M    P1
_symmetry_Int_Tables_number       1
_space_group_crystal_system       triclinic
_cell_length_a                    16.89339
_cell_length_b                    16.89339
_cell_length_c                    16.891003
_cell_angle_alpha                 67.464751
_cell_angle_beta                  67.464751
_cell_angle_gamma                 67.460123
_cell_volume                      3951.32577174

loop_
_atom_site_label
_atom_site_type_symbol
_atom_type_description
_atom_site_fract_x
_atom_site_fract_y
_atom_site_fract_z
_atom_type_partial_charge
C1    C     C_R   0.026213 0.828799 0.565246 0.546940
C2    C     C_R   0.016192 0.568833 0.830836 0.549396
C3    C     C_R   0.171201 0.973787 0.434754 0.546940
C4    C     C_R   0.830785 0.016348 0.568773 0.563387
C5    C     C_R   0.455661 0.055262 0.708783 -0.111730
C6    C     C_R   0.514129 0.030437 0.269517 -0.116130
C7    C     C_R   0.053601 0.709095 0.455999 -0.116917
C8    C     C_R   0.028040 0.270367 0.515307 -0.113997
C9    C     C_R   0.730052 0.485248 0.970797 -0.115534
C10   C     C_R   0.291070 0.544160 0.945563 -0.112459
C11   C     C_R   0.290905 0.946399 0.544000 -0.116917
C12   C     C_R   0.983652 0.169215 0.431227 0.563387
C13   C     C_R   0.729633 0.971960 0.484693 -0.113996
C14   C     C_R   0.514752 0.269948 0.029202 -0.115534
C15   C     C_R   0.455840 0.708930 0.054437 -0.112459
C16   C     C_R   0.944738 0.544339 0.291217 -0.111730
C17   C     C_R   0.969563 0.485870 0.730483 -0.116130
C18   C     C_R   0.545332 0.008935 0.549625 0.036245
C19   C     C_R   0.449425 0.993828 0.453858 0.036059
C20   C     C_R   0.006172 0.550575 0.546142 0.036059
C21   C     C_R   0.991065 0.454668 0.450375 0.036245
C22   C     C_R   0.545744 0.550088 0.007557 0.035949
C23   C     C_R   0.830802 0.568794 0.016297 0.549818
C24   C     C_R   0.449912 0.454255 0.992443 0.035949
C25   C     C_R   0.587530 0.998475 0.463063 0.012694
C26   C     C_R   0.410764 0.991182 0.544814 0.011902
C27   C     C_R   0.995203 0.464239 0.588580 0.012863
C28   C     C_R   0.988485 0.545581 0.411585 0.011957
C29   C     C_R   0.454813 0.588813 0.010169 0.012009
C30   C     C_R   0.536359 0.411939 0.003159 0.012935
C31   C     C_R   0.535761 0.004797 0.411420 0.012863
C32   C     C_R   0.454418 0.011515 0.588415 0.011956
C33   C     C_R   0.411186 0.545187 0.989831 0.012009
C34   C     C_R   0.171204 0.434769 0.973738 0.560154
C35   C     C_R   0.588061 0.463641 0.996841 0.012935
C36   C     C_R   0.001525 0.412470 0.536937 0.012694
C37   C     C_R   0.008818 0.589236 0.455186 0.011902
C38   C     C_R   0.409697 0.037976 0.666994 -0.142751
C39   C     C_R   0.565783 0.026677 0.318445 -0.146546
C40   C     C_R   0.035699 0.667553 0.410264 -0.146049
C41   C     C_R   0.023415 0.319527 0.567161 -0.146024
C42   C     C_R   0.681014 0.433511 0.974964 -0.145966
C43   C     C_R   0.332740 0.590007 0.963153 -0.142814
C44   C     C_R   0.332447 0.964301 0.589736 -0.146049
C45   C     C_R   0.565209 0.026323 0.828787 0.560582
C46   C     C_R   0.680473 0.976584 0.432839 -0.146024
C47   C     C_R   0.566489 0.318986 0.025036 -0.145966
C48   C     C_R   0.409993 0.667260 0.036847 -0.142814
C49   C     C_R   0.962024 0.590302 0.333006 -0.142751
C50   C     C_R   0.973323 0.434217 0.681555 -0.146546
C51   C     C_R   0.549853 0.035937 0.680342 0.009543
C52   C     C_R   0.436696 0.999898 0.311520 0.009738
C53   C     C_R   0.034521 0.680732 0.550187 0.008676
C54   C     C_R   0.998177 0.312054 0.437433 0.008807
C55   C     C_R   0.688214 0.562916 0.000979 0.010159
C56   C     C_R   0.431166 0.983808 0.169163 0.549395
C57   C     C_R   0.319471 0.449974 0.964768 0.009479
C58   C     C_R   0.319267 0.965479 0.449813 0.008676
C59   C     C_R   0.687946 0.001823 0.562567 0.008807
C60   C     C_R   0.437084 0.311786 0.999021 0.010159
C61   C     C_R   0.550026 0.680529 0.035232 0.009479
C62   C     C_R   0.964063 0.450147 0.319658 0.009543
C63   C     C_R   0.000102 0.563304 0.688480 0.009738
C64   C     C_R   0.601052 0.034797 0.731564 -0.026974
C65   C     C_R   0.391950 0.984834 0.264083 -0.024887
C66   C     C_R   0.034265 0.731690 0.601173 -0.027506
C67   C     C_R   0.431206 0.169198 0.983703 0.549817
C68   C     C_R   0.984159 0.264293 0.392233 -0.025432
C69   C     C_R   0.735809 0.607893 0.015519 -0.024800
C70   C     C_R   0.268377 0.398885 0.965470 -0.027447
C71   C     C_R   0.268310 0.965735 0.398827 -0.027506
C72   C     C_R   0.735707 0.015841 0.607766 -0.025432
C73   C     C_R   0.392107 0.264191 0.984480 -0.024800
C74   C     C_R   0.601115 0.731622 0.034530 -0.027447
C75   C     C_R   0.965203 0.398948 0.268435 -0.026974
C76   C     C_R   0.015166 0.608050 0.735917 -0.024887
C77   C     C_R   0.691668 0.029743 0.692265 -0.166424
C78   C     C_R   0.565231 0.828796 0.026262 0.560155
C79   C     C_R   0.307693 0.970410 0.308289 -0.169543
C80   C     C_R   0.029590 0.692307 0.691711 -0.169543
C81   C     C_R   0.970257 0.308331 0.307734 -0.166424
C82   C     C_R   0.691688 0.692275 0.029671 -0.168213
C83   C     C_R   0.307725 0.308312 0.970329 -0.168213
C84   C     C_R   0.594408 0.016229 0.597403 0.034416
C85   C     C_R   0.401872 0.985809 0.405029 0.033707
C86   C     C_R   0.014191 0.598128 0.594971 0.033707
C87   C     C_R   0.983771 0.405592 0.402597 0.034416
C88   C     C_R   0.594695 0.597753 0.015216 0.034079
C89   C     C_R   0.973677 0.434791 0.171213 0.560582
C90   C     C_R   0.402247 0.405305 0.984784 0.034079
Cu1   Cu    Cu3+1 0.995180 0.995180 0.424630 0.902120
Cu2   Cu    Cu3+1 0.004820 0.004820 0.575370 0.902119
Cu3   Cu    Cu3+1 0.995180 0.424630 0.995180 0.903450
Cu4   Cu    Cu3+1 0.004820 0.575370 0.004820 0.905335
Cu5   Cu    Cu3+1 0.424630 0.995180 0.995180 0.905336
Cu6   Cu    Cu3+1 0.575370 0.004820 0.004820 0.903449
H1    H     H_    0.415061 0.086023 0.762022 0.150543
H2    H     H_    0.415138 0.761997 0.085407 0.149470
H3    H     H_    0.913977 0.584939 0.237978 0.150543
H4    H     H_    0.938985 0.464312 0.800869 0.144737
H5    H     H_    0.338058 0.050742 0.693866 0.105236
H6    H     H_    0.626493 0.047099 0.282593 0.105922
H7    H     H_    0.048468 0.694304 0.338608 0.105617
H8    H     H_    0.043463 0.283864 0.628102 0.107289
H9    H     H_    0.716776 0.372685 0.954730 0.105977
H10   H     H_    0.305927 0.661652 0.950384 0.105701
H11   H     H_    0.305696 0.951532 0.661392 0.105617
H12   H     H_    0.535687 0.061015 0.199130 0.144737
H13   H     H_    0.716136 0.956537 0.371898 0.107289
H14   H     H_    0.627315 0.283224 0.045270 0.105977
H15   H     H_    0.338348 0.694073 0.049616 0.105701
H16   H     H_    0.949258 0.661942 0.306134 0.105236
H17   H     H_    0.952901 0.373507 0.717406 0.105921
H18   H     H_    0.729294 0.033865 0.729345 0.160033
H19   H     H_    0.270874 0.965535 0.270869 0.157462
H20   H     H_    0.034465 0.729126 0.729131 0.157462
H21   H     H_    0.966135 0.270706 0.270654 0.160033
H22   H     H_    0.729209 0.729222 0.034168 0.158705
H23   H     H_    0.084790 0.761976 0.415191 0.149673
H24   H     H_    0.270778 0.270791 0.965832 0.158705
H25   H     H_    0.058983 0.200078 0.537009 0.158080
H26   H     H_    0.800379 0.463568 0.940096 0.144686
H27   H     H_    0.238003 0.584862 0.914593 0.149470
H28   H     H_    0.238024 0.915210 0.584809 0.149672
H29   H     H_    0.799921 0.941017 0.462991 0.158080
H30   H     H_    0.536432 0.199621 0.059904 0.144686
O1    O     O_R   0.124540 0.978640 0.385460 -0.513113
O2    O     O_R   0.124540 0.385460 0.978640 -0.503542
O3    O     O_R   0.021360 0.875460 0.614540 -0.513114
O4    O     O_R   0.978640 0.124540 0.385460 -0.502586
O5    O     O_R   0.013780 0.867370 0.487190 -0.526299
O6    O     O_R   0.986220 0.132630 0.512810 -0.517173
O7    O     O_R   0.867370 0.487190 0.013780 -0.525831
O8    O     O_R   0.132630 0.512810 0.986220 -0.514161
O9    O     O_R   0.487190 0.013780 0.867370 -0.514107
O10   O     O_R   0.512810 0.986220 0.132630 -0.526066
O11   O     O_R   0.512810 0.132630 0.986220 -0.525831
O12   O     O_R   0.875460 0.021360 0.614540 -0.502586
O13   O     O_R   0.487190 0.867370 0.013780 -0.514161
O14   O     O_R   0.986220 0.512810 0.132630 -0.514106
O15   O     O_R   0.013780 0.487190 0.867370 -0.526066
O16   O     O_R   0.132630 0.986220 0.512810 -0.526299
O17   O     O_R   0.867370 0.013780 0.487190 -0.517173
O18   O     O_R   0.978640 0.385460 0.124540 -0.502757
O19   O     O_R   0.021360 0.614540 0.875460 -0.514240
O20   O     O_R   0.385460 0.124540 0.978640 -0.513510
O21   O     O_R   0.614540 0.875460 0.021360 -0.503542
O22   O     O_R   0.614540 0.021360 0.875460 -0.502757
O23   O     O_R   0.385460 0.978640 0.124540 -0.514240
O24   O     O_R   0.875460 0.614540 0.021360 -0.513510

loop_
_geom_bond_atom_site_label_1
_geom_bond_atom_site_label_2
_ccdc_geom_bond_type
C25   C31   A    
C21   C87   A    
C26   C32   A    
Cu3   Cu4   S    
C65   C79   A    
C22   C29   A    
C79   H19   S    
C45   O22   A    
Cu4   O14   S    
C64   C77   A    
C23   C69   S    
Cu5   Cu6   S    
C3    O16   A    
Cu3   O15   S    
Cu2   O12   S    
C78   O13   A    
C4    O17   A    
C71   C79   A    
C26   C44   A    
C66   C80   A    
Cu6   O10   S    
Cu1   O4    S    
C2    O19   A    
C22   C35   A    
C12   C68   S    
C9    C42   A    
Cu1   O1    S    
C30   C35   A    
C68   C81   A    
C52   C85   A    
Cu2   O6    S    
C37   C40   A    
C1    O3    A    
C54   C87   A    
C3    O1    A    
C8    H25   S    
Cu1   O5    S    
C63   C76   A    
C34   O8    A    
C56   C65   S    
C81   H21   S    
C60   C73   A    
Cu5   O20   S    
C55   C88   A    
C35   C42   A    
C19   C26   A    
C69   C82   A    
C14   C47   A    
C11   H28   S    
C29   C33   A    
C20   C86   A    
C18   C84   A    
C7    C40   A    
C53   C86   A    
C9    C55   A    
C32   C38   A    
C57   C70   A    
C11   C58   A    
Cu2   O16   S    
C34   C70   S    
C27   C50   A    
C59   C72   A    
C13   H29   S    
Cu4   O19   S    
C17   H4    S    
C19   C31   A    
C5    C38   A    
C36   C41   A    
C18   C25   A    
C16   C62   A    
C15   C48   A    
C74   C82   A    
C67   O11   A    
C56   O10   A    
C24   C33   A    
C9    H26   S    
Cu1   O17   S    
Cu6   O22   S    
C45   O9    A    
C57   C90   A    
C23   O7    A    
C29   C48   A    
C33   C43   A    
C7    H23   S    
C30   C47   A    
C10   C57   A    
C16   C49   A    
C10   H27   S    
C8    C54   A    
Cu1   Cu2   S    
C21   C36   A    
C75   C81   A    
C1    O5    A    
C43   H10   S    
C83   H24   S    
C3    C71   S    
C72   C77   A    
C70   C83   A    
C61   C88   A    
C28   C49   A    
C89   O14   A    
C67   O20   A    
Cu5   O9    S    
C1    C66   S    
C15   C61   A    
C11   C44   A    
C8    C41   A    
C53   C66   A    
C55   C69   A    
Cu3   O18   S    
C12   O4    A    
C78   O21   A    
C49   H16   S    
C67   C73   S    
Cu5   O13   S    
C21   C28   A    
C5    H1    S    
C22   C88   A    
C63   C86   A    
C61   C74   A    
C62   C75   A    
C18   C32   A    
C7    C53   A    
C15   H2    S    
C77   H18   S    
C89   O18   A    
C58   C85   A    
C4    C72   S    
C2    C76   S    
C39   H6    S    
C44   H11   S    
Cu6   O21   S    
C6    H12   S    
C12   O6    A    
C10   C43   A    
C23   O24   A    
Cu6   O11   S    
C80   H20   S    
C51   C64   A    
C76   C80   A    
C19   C85   A    
C24   C90   A    
C17   C50   A    
C16   H3    S    
Cu5   O23   S    
C13   C59   A    
C20   C27   A    
C60   C90   A    
C27   C36   A    
C38   H5    S    
C47   H14   S    
C14   C60   A    
C62   C87   A    
C45   C64   S    
Cu3   O7    S    
C59   C84   A    
C14   H30   S    
C41   H8    S    
C50   H17   S    
Cu2   O3    S    
Cu3   O2    S    
C17   C63   A    
C40   H7    S    
C20   C37   A    
C13   C46   A    
C28   C37   A    
C51   C84   A    
Cu4   O8    S    
C31   C39   A    
C58   C71   A    
C42   H9    S    
C24   C30   A    
C75   C89   S    
C4    O12   A    
Cu4   O24   S    
C48   H15   S    
C54   C68   A    
C34   O2    A    
C74   C78   S    
C46   H13   S    
C2    O15   A    
C82   H22   S    
C6    C39   A    
C5    C51   A    
C6    C52   A    
C56   O23   A    
C25   C46   A    
C73   C83   A    
C52   C65   A    
