data_mof_unit_25813.cif
_audit_creation_date              2013-03-05T16:00:38-0500
_audit_creation_method            fapswitch 2.2
_symmetry_space_group_name_H-M    P1
_symmetry_Int_Tables_number       1
_space_group_crystal_system       triclinic
_cell_length_a                    10.741945
_cell_length_b                    14.693693
_cell_length_c                    14.726239
_cell_angle_alpha                 64.866228
_cell_angle_beta                  103.92141
_cell_angle_gamma                 102.669993
_cell_volume                      2024.2552653

loop_
_atom_site_label
_atom_site_type_symbol
_atom_site_description
_atom_site_fract_x
_atom_site_fract_y
_atom_site_fract_z
_atom_type_partial_charge
O1    O     O_R   0.455060 0.022100 0.338110 -0.558311
O2    O     O_R   0.512640 0.160150 0.379180 -0.523351
C1    C     C_R   0.477952 0.119893 0.311478 0.855913
O3    O     O_R   0.288900 0.930980 0.479450 -0.563910
O4    O     O_R   0.346480 0.069030 0.520520 -0.560903
C2    C     C_R   0.260334 0.998690 0.502162 0.829082
Cu1   Cu    Cu3+1 0.465900 0.918260 0.475680 1.030067
Cu2   Cu    Cu3+1 0.534100 0.081740 0.524320 1.028265
O5    O     O_R   0.487360 0.839850 0.620820 -0.592327
O6    O     O_R   0.544940 0.977900 0.661890 -0.586264
O7    O     O_R   0.653520 0.930970 0.479480 -0.534788
O8    O     O_R   0.711100 0.069020 0.520550 -0.598487
C3    C     C_R   0.520991 0.880180 0.687957 0.825099
C4    C     C_R   0.740139 0.996971 0.504189 0.862131
C5    C     C_3   0.046422 0.045582 0.389860 0.555926
C6    C     C_3   0.903124 0.044856 0.394640 -0.412702
H1    H     H_    0.879119 0.123996 0.359683 0.232775
H2    H     H_    0.835299 0.006371 0.347692 0.196120
H3    H     H_    0.074813 0.831468 0.533328 0.241804
C7    C     C_3   0.059201 0.885967 0.561926 -0.480896
C8    C     C_3   0.110178 0.062103 0.560820 0.265510
C9    C     C_3   0.121885 0.996907 0.503140 -0.185002
H4    H     H_    0.147528 0.141313 0.517185 0.266567
C10   C     C_3   0.877864 0.994683 0.506172 -0.188703
C11   C     C_3   0.911657 0.882278 0.557723 0.666843
C12   C     C_3   0.966949 0.060093 0.563232 -0.461812
H5    H     H_    0.944418 0.139672 0.525072 0.222714
H6    H     H_    0.948398 0.033344 0.642011 0.230854
H7    H     H_    0.110523 0.856611 0.641661 0.200130
C13   C     C_R   0.452448 0.187748 0.202193 -0.212582
C14   C     C_R   0.525457 0.812715 0.795973 -0.044068
C15   C     C_R   0.337169 0.221885 0.029761 -0.197404
C16   C     C_R   0.375405 0.152357 0.127888 0.283010
C17   C     C_R   0.497473 0.292138 0.173139 0.378435
C18   C     C_R   0.440566 0.363044 0.079269 0.007651
C19   C     C_R   0.368836 0.326024 0.004999 0.041847
C20   C     C_R   0.456735 0.469528 0.055028 -0.045397
C21   C     C_R   0.437154 0.536559 0.950855 0.042946
C22   C     C_R   0.370282 0.496645 0.877770 -0.136335
C23   C     C_R   0.332151 0.393306 0.905601 -0.099051
C24   C     C_R   0.485852 0.511722 0.130045 0.334167
C25   C     C_R   0.521635 0.616225 0.101745 -0.208617
C26   C     C_R   0.523153 0.680908 0.000166 0.078658
C27   C     C_R   0.480709 0.641712 0.923592 0.085696
C28   C     C_R   0.563084 0.785198 0.973997 -0.083041
C29   C     C_R   0.563243 0.850853 0.872429 -0.133999
C30   C     C_R   0.486755 0.708659 0.822207 -0.172353
H8    H     H_    0.277605 0.365691 0.848023 0.164934
H9    H     H_    0.464489 0.680775 0.762459 0.152572
H10   H     H_    0.593249 0.931170 0.853874 0.172117
H11   H     H_    0.545423 0.647528 0.159490 0.198045
H12   H     H_    0.282258 0.194081 0.972379 0.195447
H13   H     H_    0.339918 0.544086 0.799221 0.147129
H14   H     H_    0.593684 0.816020 0.032133 0.171594
N1    N     N_R   0.585360 0.204570 0.560800 -0.207667
N2    N     N_R   0.414550 0.795430 0.439160 -0.231126
C31   C     C_R   0.734737 0.291682 0.655061 -0.205019
C32   C     C_R   0.694273 0.207926 0.629130 0.075840
C33   C     C_R   0.510919 0.281513 0.518144 0.209817
C34   C     C_R   0.542152 0.366632 0.546171 0.002392
C35   C     C_R   0.660057 0.372297 0.613689 0.015405
C36   C     C_R   0.464979 0.448619 0.504443 -0.026460
C37   C     C_R   0.516342 0.540349 0.519356 -0.005105
C38   C     C_R   0.636160 0.543744 0.584060 -0.204056
C39   C     C_R   0.704347 0.460296 0.634490 0.341763
C40   C     C_R   0.336675 0.441129 0.450974 0.268868
C41   C     C_R   0.276694 0.529021 0.390071 0.287046
C42   C     C_R   0.334740 0.623358 0.394952 -0.140356
C43   C     C_R   0.446281 0.626058 0.469104 -0.073377
C44   C     C_R   0.278069 0.713920 0.334045 0.262719
C45   C     C_R   0.318143 0.797738 0.360363 0.108540
C46   C     C_R   0.481403 0.714563 0.490930 0.062095
H15   H     H_    0.558519 0.720025 0.551077 0.177667
H16   H     H_    0.274132 0.866290 0.316462 0.225246
H17   H     H_    0.826017 0.293299 0.705497 0.202412
H18   H     H_    0.751911 0.146169 0.661923 0.140335
H19   H     H_    0.430351 0.276775 0.459802 0.185305
H20   H     H_    0.679943 0.610948 0.597792 0.213777
N3    N     N_R   0.048447 0.994596 0.322583 0.108992
O9    O     O_R   0.072720 0.901843 0.357256 -0.378904
O10   O     O_R   0.011805 0.040524 0.225041 -0.258590
N4    N     N_R   0.878190 0.830362 0.661188 0.144352
O11   O     O_R   0.781805 0.757444 0.679495 -0.314452
O12   O     O_R   0.945261 0.853290 0.736570 -0.390110
N5    N     N_R   0.340908 0.046505 0.148097 0.132614
O13   O     O_R   0.431513 0.991618 0.167583 -0.336908
O14   O     O_R   0.221644 0.012130 0.121480 -0.266715
O15   O     O_3   0.604493 0.320917 0.233772 -0.655391
H21   H     H_    0.652782 0.383937 0.190278 0.344664
O16   O     O_3   0.100407 0.147872 0.344264 -0.666964
H22   H     H_    0.185416 0.148952 0.328070 0.333214
N6    N     N_R   0.465590 0.452063 0.232945 0.142649
O17   O     O_R   0.361403 0.387208 0.251422 -0.314330
O18   O     O_R   0.542143 0.472147 0.307122 -0.370260
N7    N     N_R   0.820905 0.467782 0.704919 0.125496
O19   O     O_R   0.902652 0.550734 0.682363 -0.291416
O20   O     O_R   0.833840 0.400113 0.797825 -0.327319
N8    N     N_R   0.146068 0.518105 0.338732 0.180653
O21   O     O_R   0.051622 0.530682 0.371633 -0.289749
O22   O     O_R   0.121384 0.496092 0.258873 -0.200828
N9    N     N_R   0.257514 0.344402 0.475276 0.086137
O23   O     O_R   0.183010 0.318592 0.403902 -0.273307
O24   O     O_R   0.253089 0.284888 0.570118 -0.368035
N10   N     N_R   0.187871 0.725022 0.241779 0.171144
O25   O     O_R   0.090676 0.775066 0.217676 -0.234146
O26   O     O_R   0.217280 0.703614 0.172991 -0.273826
O27   O     O_3   0.838998 0.825460 0.500627 -0.688683
H23   H     H_    0.873846 0.846013 0.437406 0.354854
O28   O     O_3   0.187377 0.035511 0.658197 -0.667551
H24   H     H_    0.144374 0.973057 0.706225 0.372913

loop_
_geom_bond_atom_site_label_1
_geom_bond_atom_site_label_2
_geom_bond_distance
_ccdc_geom_bond_type
C8    C12   1.541027 S    
N9    O23   1.299919 A    
N1    C33   1.365217 A    
C1    C13   1.484513 S    
C24   C25   1.397799 A    
N7    O19   1.301542 A    
C33   H19   1.076390 S    
N10   O26   1.301210 A    
C31   C32   1.390692 A    
C32   H18   1.081829 S    
Cu1   Cu2   2.693899 S    
C30   H9    1.077593 S    
C22   H13   1.078700 S    
C28   C29   1.393783 A    
Cu1   O7    1.972146 S    
C12   H5    1.114529 S    
C20   C21   1.421210 A    
C15   C19   1.395541 A    
C18   C20   1.428938 A    
C10   C12   1.562441 S    
O4    C2    1.301941 A    
O7    C4    1.296016 A    
C44   N10   1.434958 S    
C7    C11   1.560989 S    
C5    C6    1.555264 S    
C2    C9    1.485125 S    
C34   C36   1.442311 A    
C17   C18   1.421065 A    
C4    C10   1.480171 S    
C16   N5    1.432495 S    
C15   H12   1.084706 S    
O5    C3    1.300419 A    
C41   N8    1.435278 S    
C5    C9    1.594240 S    
C5    N3    1.480301 S    
C18   C19   1.414856 A    
C6    H1    1.114840 S    
N2    C46   1.360221 A    
C14   C29   1.400980 A    
O27   H23   0.988618 S    
C44   C45   1.394623 A    
C12   H6    1.108882 S    
C27   C30   1.404287 A    
C25   H11   1.084498 S    
C40   C41   1.410818 A    
C33   C34   1.426527 A    
C6    C10   1.553347 S    
C14   C30   1.398749 A    
C8    C9    1.565396 S    
C40   N9    1.433665 S    
Cu1   N2    2.023848 S    
O3    Cu1   1.966861 S    
Cu2   N1    2.023495 S    
N10   O25   1.301347 A    
Cu1   O5    1.932996 S    
C7    H7    1.109646 S    
N5    O14   1.301056 A    
C13   C17   1.409399 A    
C41   C42   1.413984 A    
C37   C43   1.433942 A    
C19   C23   1.392605 A    
C10   C11   1.581552 S    
O3    C2    1.289132 A    
C22   C23   1.385889 A    
N3    O10   1.301804 A    
C36   C40   1.420040 A    
C42   C43   1.419847 A    
N5    O13   1.301315 A    
N3    O9    1.298781 A    
C34   C35   1.420472 A    
O1    C1    1.300682 A    
C43   C46   1.420684 A    
C26   C27   1.414310 A    
C21   C27   1.419062 A    
C36   C37   1.426978 A    
C45   H16   1.079228 S    
Cu2   O8    1.966863 S    
N2    C45   1.350500 A    
N6    O18   1.300649 A    
C17   O15   1.382476 S    
C26   C28   1.403678 A    
C42   C44   1.422864 A    
C7    C9    1.568555 S    
C28   H14   1.083864 S    
N8    O21   1.301172 A    
N4    O12   1.300474 A    
C8    H4    1.101097 S    
C11   N4    1.479395 S    
C25   C26   1.392284 A    
C11   O27   1.416974 S    
N9    O24   1.301482 A    
C23   H8    1.084346 S    
C13   C16   1.418280 A    
O1    Cu1   1.945373 S    
C38   H20   1.075790 S    
C3    C14   1.469660 S    
Cu2   O6    1.945373 S    
O2    Cu2   1.932996 S    
O8    C4    1.293771 A    
C46   H15   1.074863 S    
O6    C3    1.300962 A    
O4    Cu2   1.972146 S    
C8    O28   1.410920 S    
N7    O20   1.301287 A    
C31   C35   1.409413 A    
C29   H10   1.083009 S    
N8    O22   1.301306 A    
C15   C16   1.394617 A    
C31   H17   1.080731 S    
H3    C7    1.107294 S    
O2    C1    1.307007 A    
O28   H24   0.987749 S    
C38   C39   1.396498 A    
C5    O16   1.412066 S    
O16   H22   0.993082 S    
C21   C22   1.413385 A    
N6    O17   1.301196 A    
C20   C24   1.425864 A    
C37   C38   1.410349 A    
C35   C39   1.410164 A    
C39   N7    1.437741 S    
C24   N6    1.434800 S    
O15   H21   0.991017 S    
C6    H2    1.112465 S    
N4    O11   1.301898 A    
N1    C32   1.354284 A    
