data_mof_unit_37623.cif
_audit_creation_date              2012-12-10T18:21:16-0500
_audit_creation_method            fapswitch 2.2
_symmetry_space_group_name_H-M    P1
_symmetry_Int_Tables_number       1
_space_group_crystal_system       triclinic
_cell_length_a                    14.954846
_cell_length_b                    14.092568
_cell_length_c                    10.649754
_cell_angle_alpha                 90.247271
_cell_angle_beta                  88.627468
_cell_angle_gamma                 89.621826
_cell_volume                      2243.74361014

loop_
_atom_site_label
_atom_site_type_symbol
_atom_type_description
_atom_site_fract_x
_atom_site_fract_y
_atom_site_fract_z
_atom_type_partial_charge
C1    C     C_R   0.326943 0.500079 0.501384 0.981017
C2    C     C_3   0.587783 0.454369 0.925112 -0.399349
C3    C     C_R   0.816080 0.453936 0.408897 -0.329371
C4    C     C_R   0.768157 0.499908 0.505097 -0.130108
C5    C     C_R   0.810590 0.546759 0.603402 0.308836
C6    C     C_R   0.903878 0.544447 0.606792 0.046966
C7    C     C_R   0.952897 0.499692 0.507465 0.027742
C8    C     C_R   0.908578 0.455251 0.407666 0.132882
C9    C     C_R   0.949371 0.585480 0.706794 -0.173162
C10   C     C_R   0.041837 0.582073 0.709197 -0.162787
C11   C     C_R   0.091223 0.539511 0.610219 0.033891
C12   C     C_R   0.500207 0.500024 0.257741 0.801533
C13   C     C_R   0.046343 0.499307 0.507701 0.022243
C14   C     C_R   0.094847 0.457701 0.405896 0.134700
C15   C     C_R   0.050160 0.415146 0.306620 -0.180413
C16   C     C_R   0.957273 0.413100 0.308113 -0.192863
C17   C     C_R   0.184449 0.535807 0.611138 0.359730
C18   C     C_R   0.231340 0.499684 0.505820 -0.128985
C19   C     C_R   0.187431 0.459693 0.404915 -0.317238
C20   C     C_R   0.556360 0.797790 0.419472 -0.119262
C21   C     C_R   0.556928 0.200973 0.420283 -0.139145
C22   C     C_R   0.444000 0.799513 0.580762 0.462576
C23   C     C_R   0.442700 0.202348 0.579607 0.457050
C24   C     C_R   0.442558 0.899988 0.582217 -0.058107
C25   C     C_R   0.441963 0.101851 0.581793 -0.054204
C26   C     C_R   0.672942 0.499835 0.500381 0.933954
C27   C     C_R   0.500244 0.949649 0.499916 0.057514
C28   C     C_R   0.500183 0.050721 0.499960 0.058602
C29   C     C_R   0.557907 0.898354 0.417704 0.016729
C30   C     C_R   0.558140 0.100506 0.418099 0.019025
C31   C     C_R   0.385019 0.952108 0.663701 -0.155858
C32   C     C_R   0.384633 0.051097 0.663339 -0.161271
C33   C     C_R   0.615665 0.048736 0.336336 -0.176802
C34   C     C_R   0.615470 0.948775 0.336032 -0.170191
C35   C     C_R   0.499854 0.500171 0.742542 0.926667
C36   C     C_3   0.495646 0.603916 0.072336 -0.399977
C37   C     C_3   0.417821 0.445506 0.075448 -0.424963
C38   C     C_3   0.493033 0.603643 0.929972 -0.346075
C39   C     C_3   0.419634 0.442535 0.931480 -0.344746
C40   C     C_3   0.586956 0.452448 0.069408 -0.407136
C41   C     C_3   0.500193 0.500397 0.121592 0.185277
C42   C     C_3   0.500059 0.500356 0.879236 0.107920
H1    H     H_    0.555109 0.644547 0.102644 0.185500
H2    H     H_    0.417799 0.371627 0.112085 0.192044
H3    H     H_    0.073858 0.614578 0.788418 0.209629
H4    H     H_    0.225705 0.429964 0.326068 0.152678
H5    H     H_    0.087048 0.382978 0.228423 0.154875
H6    H     H_    0.923496 0.379277 0.231095 0.149251
H7    H     H_    0.600200 0.757470 0.356567 0.150055
H8    H     H_    0.601238 0.240302 0.358058 0.147673
H9    H     H_    0.339412 0.917324 0.728677 0.203488
H10   H     H_    0.338878 0.087001 0.728066 0.201402
H11   H     H_    0.660806 0.085547 0.272447 0.141711
H12   H     H_    0.660448 0.910921 0.271912 0.145874
H13   H     H_    0.434816 0.640895 0.110883 0.193351
H14   H     H_    0.355090 0.480732 0.110356 0.172007
H15   H     H_    0.429175 0.636752 0.900661 0.246665
H16   H     H_    0.355819 0.471344 0.896729 0.238109
H17   H     H_    0.549157 0.647421 0.892006 0.218239
H18   H     H_    0.425176 0.367384 0.899885 0.226428
H19   H     H_    0.646719 0.490128 0.104387 0.163908
H20   H     H_    0.591077 0.377578 0.101854 0.179753
H21   H     H_    0.646478 0.495230 0.890430 0.223207
H22   H     H_    0.595173 0.380662 0.888090 0.187724
H23   H     H_    0.780956 0.419374 0.333439 0.150086
H24   H     H_    0.914358 0.619831 0.784716 0.207903
N1    N     N_R   0.500070 0.750030 0.500050 -0.129123
N2    N     N_R   0.500070 0.249970 0.500050 -0.130699
O1    O     O_R   0.367860 0.580280 0.500020 -0.562522
O2    O     O_R   0.367860 0.419720 0.500020 -0.569955
O3    O     O_R   0.500000 0.580270 0.314790 -0.644178
O4    O     O_R   0.500000 0.419730 0.314790 -0.639384
O5    O     O_R   0.632160 0.580270 0.499960 -0.583735
O6    O     O_R   0.632160 0.419730 0.499960 -0.632351
O7    O     O_R   0.500030 0.580270 0.685200 -0.561093
O8    O     O_R   0.500030 0.419730 0.685200 -0.592751
Zn1   Zn    Zn3+2 0.500020 0.607200 0.499990 1.030984
Zn2   Zn    Zn3+2 0.500020 0.392800 0.499990 0.996175
Cl1   Cl    Cl    0.242116 0.567104 0.747792 -0.625029
Cl2   Cl    Cl    0.373326 0.737434 0.684021 -0.578533
Cl3   Cl    Cl    0.368523 0.267149 0.678852 -0.631534
Cl4   Cl    Cl    0.746298 0.606698 0.721858 -0.690671

loop_
_geom_bond_atom_site_label_1
_geom_bond_atom_site_label_2
_ccdc_geom_bond_type
O2    Zn2   S    
C20   N1    A    
O1    Zn1   S    
N1    Zn1   S    
C24   C27   A    
C15   H5    S    
C16   H6    S    
C6    C9    A    
C19   H4    S    
C7    C8    A    
C25   C28   A    
C35   O7    A    
C1    C18   S    
C12   C41   S    
O8    Zn2   S    
C38   C42   S    
C5    C6    A    
C27   C29   A    
C15   C16   A    
C17   Cl1   S    
C26   O5    A    
C40   H20   S    
C18   C19   A    
C35   C42   S    
C9    H24   S    
C32   H10   S    
O4    Zn2   S    
C37   H14   S    
C9    C10   A    
C25   C32   A    
C12   O4    A    
C8    C16   A    
C13   C14   A    
N2    Zn2   S    
C36   C41   S    
C3    H23   S    
C21   H8    S    
C2    H22   S    
C17   C18   A    
C39   C42   S    
C20   C29   A    
C33   H11   S    
C35   O8    A    
C3    C8    A    
C39   H16   S    
C29   C34   A    
C1    O1    A    
C40   H19   S    
C23   N2    A    
C20   H7    S    
C38   H15   S    
C31   C32   A    
C10   H3    S    
C33   C34   A    
O7    Zn1   S    
C40   C41   S    
C12   O3    A    
C34   H12   S    
C21   N2    A    
C22   C24   A    
C3    C4    A    
O3    Zn1   S    
C2    H21   S    
C11   C17   A    
C23   Cl3   S    
C30   C33   A    
C14   C19   A    
C31   H9    S    
C4    C5    A    
C4    C26   S    
C6    C7    A    
C21   C30   A    
C1    O2    A    
C37   H2    S    
C36   C38   S    
C24   C31   A    
C22   Cl2   S    
C37   C39   S    
C36   H13   S    
C5    Cl4   S    
C11   C13   A    
C2    C42   S    
C39   H18   S    
C28   C30   A    
C26   O6    A    
C23   C25   A    
C37   C41   S    
C22   N1    A    
C10   C11   A    
C38   H17   S    
C2    C40   S    
C7    C13   A    
O6    Zn2   S    
C27   C28   A    
O5    Zn1   S    
C14   C15   A    
C36   H1    S    
