data_mof_unit_12540.cif
_audit_creation_date              2012-12-10T17:36:19-0500
_audit_creation_method            fapswitch 2.2
_symmetry_space_group_name_H-M    P1
_symmetry_Int_Tables_number       1
_space_group_crystal_system       triclinic
_cell_length_a                    12.389908
_cell_length_b                    13.172594
_cell_length_c                    15.834875
_cell_angle_alpha                 76.772862
_cell_angle_beta                  100.922398
_cell_angle_gamma                 116.762908
_cell_volume                      2235.16818929

loop_
_atom_site_label
_atom_site_type_symbol
_atom_type_description
_atom_site_fract_x
_atom_site_fract_y
_atom_site_fract_z
_atom_type_partial_charge
C1    C     C_R   0.855102 0.286557 0.507002 0.824183
C2    C     C_3   0.062845 0.425789 0.072099 -0.374508
C3    C     C_3   0.000494 0.500373 0.082850 0.322032
C4    C     C_3   0.070004 0.624899 0.035663 -0.373907
C5    C     C_3   0.069833 0.625170 0.937762 -0.370443
C6    C     C_1   0.000653 0.500183 0.175140 -0.113769
C7    C     C_1   0.000169 0.501070 0.824740 -0.090601
C8    C     C_1   0.000294 0.501131 0.749087 -0.119378
C9    C     C_R   0.277835 0.027170 0.389286 -0.167301
C10   C     C_R   0.228285 0.835944 0.471630 -0.035551
C11   C     C_R   0.813763 0.082638 0.562367 -0.168309
C12   C     C_R   0.000511 0.500906 0.659407 0.886172
C13   C     C_R   0.734050 0.967241 0.580064 -0.128471
C14   C     C_R   0.611273 0.930948 0.551218 -0.182833
C15   C     C_R   0.565893 0.009620 0.500307 0.086146
C16   C     C_R   0.650181 0.124697 0.473846 0.098449
C17   C     C_R   0.439956 0.977647 0.473778 0.075919
C18   C     C_R   0.401676 0.057501 0.415809 0.168567
C19   C     C_R   0.487500 0.165419 0.382699 -0.249173
C20   C     C_R   0.609920 0.197648 0.409731 -0.211000
C21   C     C_R   0.350499 0.868575 0.503156 -0.232580
C22   C     C_R   0.191465 0.916460 0.416518 -0.172017
C23   C     C_R   0.144957 0.713636 0.487859 0.776690
C24   C     C_R   0.772798 0.163023 0.511505 -0.098055
C25   C     C_R   0.302905 0.282604 0.590776 0.294470
C26   C     C_R   0.771225 0.660935 0.395184 0.084549
C27   C     C_R   0.681143 0.700549 0.374981 -0.258448
C28   C     C_R   0.571542 0.637826 0.411837 -0.165624
C29   C     C_R   0.549332 0.532764 0.468746 -0.024598
C30   C     C_R   0.644388 0.494451 0.488758 0.196909
C31   C     C_R   0.436795 0.465177 0.507853 -0.081644
C32   C     C_R   0.410832 0.350726 0.550151 0.005223
C33   C     C_R   0.497051 0.308899 0.557521 -0.213321
C34   C     C_R   0.000362 0.500302 0.340494 0.803830
C35   C     C_R   0.616121 0.384465 0.543948 0.353650
C36   C     C_R   0.348286 0.505675 0.507261 0.018472
C37   C     C_R   0.223694 0.330037 0.591240 0.034906
C38   C     C_3   0.062680 0.426054 0.974199 -0.375793
C39   C     C_3   0.868301 0.450977 0.940970 -0.349329
C40   C     C_3   0.868460 0.450702 0.038882 -0.385978
C41   C     C_1   0.000661 0.500172 0.250812 -0.172749
C42   C     C_3   0.000225 0.500830 0.917015 0.299991
Cu1   Cu    Cu3+1 0.098280 0.475420 0.519630 0.945018
Cu2   Cu    Cu3+1 0.901720 0.524580 0.480370 0.973974
H1    H     H_    0.014412 0.335694 0.105436 0.163748
H2    H     H_    0.157829 0.460236 0.958237 0.167219
H3    H     H_    0.158069 0.459857 0.103132 0.164964
H4    H     H_    0.026813 0.680298 0.042394 0.165573
H5    H     H_    0.097068 0.892481 0.391555 0.141490
H6    H     H_    0.459979 0.225236 0.335271 0.145707
H7    H     H_    0.248266 0.087924 0.345111 0.130829
H8    H     H_    0.373388 0.805913 0.549703 0.147805
H9    H     H_    0.907231 0.109372 0.590581 0.166109
H10   H     H_    0.555139 0.840258 0.568407 0.129043
H11   H     H_    0.766949 0.905859 0.618913 0.153664
H12   H     H_    0.672333 0.279641 0.377825 0.167611
H13   H     H_    0.139838 0.278072 0.621071 0.157408
H14   H     H_    0.479065 0.222530 0.591900 0.242176
H15   H     H_    0.357934 0.589528 0.473012 0.129303
H16   H     H_    0.856141 0.711029 0.366411 0.121030
H17   H     H_    0.504169 0.671615 0.392720 0.133329
H18   H     H_    0.696430 0.780475 0.330501 0.142670
H19   H     H_    0.821424 0.503382 0.900748 0.175336
H20   H     H_    0.816317 0.361461 0.926691 0.181047
H21   H     H_    0.816548 0.361049 0.071618 0.166103
H22   H     H_    0.821645 0.502971 0.045668 0.166638
H23   H     H_    0.026543 0.680682 0.897495 0.174177
H24   H     H_    0.165361 0.662526 0.066036 0.165230
N1    N     N_R   0.246300 0.438200 0.549400 -0.212918
N2    N     N_R   0.754300 0.561180 0.451130 -0.198366
O1    O     O_R   0.972520 0.318130 0.524690 -0.596659
O2    O     O_R   0.806530 0.359650 0.491530 -0.551657
O3    O     O_R   0.083030 0.479240 0.637150 -0.584003
O4    O     O_R   0.917040 0.520750 0.603990 -0.510631
O5    O     O_R   0.193470 0.640350 0.508470 -0.593269
O6    O     O_R   0.027480 0.681870 0.475310 -0.593660
O7    O     O_R   0.082960 0.479250 0.396010 -0.571232
O8    O     O_R   0.916970 0.520760 0.362850 -0.594202
H25   H     H_    0.014167 0.336082 0.960537 0.170480
Cl1   Cl    Cl    0.262666 0.138385 0.642574 -0.649696
Cl2   Cl    Cl    0.706533 0.347997 0.634002 -0.616865
H26   H     H_    0.165108 0.662939 0.921136 0.170695

loop_
_geom_bond_atom_site_label_1
_geom_bond_atom_site_label_2
_ccdc_geom_bond_type
Cu1   O3    S    
C5    C42   S    
C33   H14   S    
C37   N1    A    
C25   Cl1   S    
C16   C24   A    
C19   C20   A    
C9    H7    S    
C23   O6    A    
C5    H23   S    
C3    C6    S    
C35   Cl2   S    
C7    C8    T    
C10   C22   A    
C39   H20   S    
C26   C27   A    
C1    O1    A    
C30   C35   A    
C28   C29   A    
C38   C42   S    
C12   O4    A    
C34   O7    A    
C9    C22   A    
C38   H25   S    
C15   C16   A    
C11   C24   A    
C18   C19   A    
C7    C42   S    
Cu2   O6    S    
C25   C37   A    
C6    C41   T    
Cu2   N2    S    
C11   H9    S    
C20   H12   S    
C28   H17   S    
C36   H15   S    
C25   C32   A    
C2    H1    S    
C40   H22   S    
C12   O3    A    
C34   C41   S    
C30   N2    A    
C39   C42   S    
C10   C21   A    
Cu1   O5    S    
C1    O2    A    
C39   C40   S    
C4    H24   S    
C17   C21   A    
Cu1   Cu2   S    
C29   C30   A    
C27   H18   S    
C2    C38   S    
C31   C32   A    
C8    C12   S    
C17   C18   A    
C16   C20   A    
Cu2   O4    S    
C22   H5    S    
C14   H10   S    
C3    C40   S    
C40   H21   S    
C2    H3    S    
C3    C4    S    
C36   N1    A    
C4    H4    S    
C15   C17   A    
Cu1   O1    S    
C31   C36   A    
C23   O5    A    
C4    C5    S    
C10   C23   S    
Cu1   O7    S    
C39   H19   S    
C32   C33   A    
Cu2   O8    S    
C2    C3    S    
C29   C31   A    
C34   O8    A    
C5    H26   S    
C11   C13   A    
C19   H6    S    
C26   N2    A    
C33   C35   A    
Cu2   O2    S    
C38   H2    S    
C9    C18   A    
C1    C24   S    
Cu1   N1    S    
C27   C28   A    
C14   C15   A    
C13   C14   A    
C26   H16   S    
C21   H8    S    
C37   H13   S    
C13   H11   S    
