data_mof_unit_47313.cif
_audit_creation_date              2012-12-10T17:27:49-0500
_audit_creation_method            fapswitch 2.2
_symmetry_space_group_name_H-M    P1
_symmetry_Int_Tables_number       1
_space_group_crystal_system       triclinic
_cell_length_a                    10.709824
_cell_length_b                    11.984894
_cell_length_c                    12.847224
_cell_angle_alpha                 93.660655
_cell_angle_beta                  90.324599
_cell_angle_gamma                 87.604519
_cell_volume                      1644.20962375

loop_
_atom_site_label
_atom_site_type_symbol
_atom_type_description
_atom_site_fract_x
_atom_site_fract_y
_atom_site_fract_z
_atom_type_partial_charge
C1    C     C_R   0.498566 0.522262 0.700429 0.889468
C2    C     C_R   0.434712 0.630039 0.862017 -0.217596
C3    C     C_R   0.543450 0.447983 0.867985 -0.275720
C4    C     C_R   0.739058 0.499438 0.488872 0.880152
C5    C     C_R   0.529128 0.452080 0.974500 0.186612
C6    C     C_R   0.468046 0.546923 0.025537 0.185599
C7    C     C_R   0.454734 0.551526 0.132135 -0.275996
C8    C     C_R   0.560797 0.368222 0.137935 -0.210751
C9    C     C_R   0.573974 0.362482 0.030586 -0.219222
C10   C     C_R   0.374508 0.952992 0.411192 -0.327791
C11   C     C_R   0.387005 0.837143 0.418793 -0.036503
C12   C     C_R   0.940562 0.395269 0.460193 0.100760
C13   C     C_R   0.558289 0.858383 0.536288 0.288919
C14   C     C_R   0.550453 0.976265 0.529525 0.046526
C15   C     C_R   0.455408 0.023449 0.467575 0.054194
C16   C     C_R   0.500854 0.477648 0.299595 0.875438
C17   C     C_R   0.443721 0.140611 0.463709 -0.068521
C18   C     C_R   0.617285 0.163908 0.577260 0.028426
C19   C     C_R   0.633361 0.048256 0.582947 -0.332694
C20   C     C_R   0.259550 0.498542 0.505890 0.880247
C21   C     C_R   0.888432 0.296552 0.416007 -0.221990
C22   C     C_R   0.947574 0.192508 0.427578 -0.156148
C23   C     C_R   0.871765 0.498195 0.474720 -0.116178
C24   C     C_R   0.058754 0.184834 0.484948 0.263793
C25   C     C_R   0.118008 0.283987 0.516301 -0.263583
C26   C     C_R   0.063999 0.390578 0.495378 0.079982
C27   C     C_3   0.621604 0.816239 0.711425 -0.735544
C28   C     C_3   0.032794 0.996448 0.544114 -0.819732
C29   C     C_R   0.931245 0.598126 0.496494 -0.214332
C30   C     C_R   0.057890 0.596053 0.510240 -0.221796
C31   C     C_R   0.125552 0.493568 0.509348 -0.109657
C32   C     C_R   0.503302 0.463733 0.188205 -0.045346
C33   C     C_R   0.494648 0.535692 0.811859 -0.054854
C34   C     C_R   0.421981 0.635968 0.969364 -0.214454
H1    H     H_    0.879929 0.677899 0.505265 0.165320
H2    H     H_    0.801064 0.299119 0.373245 0.164445
H3    H     H_    0.903838 0.118511 0.394692 0.144890
H4    H     H_    0.201651 0.275657 0.562720 0.168152
H5    H     H_    0.102447 0.675331 0.523210 0.168375
H6    H     H_    0.408453 0.624493 0.171693 0.152953
H7    H     H_    0.598818 0.300252 0.181716 0.156075
H8    H     H_    0.374730 0.708748 0.008093 0.138825
H9    H     H_    0.739920 0.825368 0.584607 0.191721
H10   H     H_    0.657806 0.894429 0.748835 0.205403
H11   H     H_    0.667541 0.744326 0.748922 0.244344
H12   H     H_    0.620237 0.289259 0.991757 0.138637
H13   H     H_    0.519380 0.815906 0.725350 0.239875
H14   H     H_    0.196842 0.083198 0.550063 0.227718
H15   H     H_    0.089240 0.921433 0.565610 0.238480
H16   H     H_    0.966873 0.968678 0.481782 0.238784
H17   H     H_    0.980084 0.031315 0.613898 0.239452
H18   H     H_    0.394269 0.696870 0.818235 0.152627
H19   H     H_    0.590577 0.375397 0.828514 0.152924
H20   H     H_    0.371733 0.178517 0.416300 0.135257
H21   H     H_    0.681025 0.218970 0.618439 0.138725
H22   H     H_    0.301795 0.987200 0.362070 0.171083
H23   H     H_    0.710809 0.016843 0.628359 0.148427
H24   H     H_    0.324216 0.782811 0.375614 0.146522
N1    N     N_R   0.523130 0.207800 0.519340 -0.104435
N2    N     N_R   0.476870 0.792180 0.480660 -0.112889
N3    N     N_2   0.649164 0.807064 0.600872 -0.267782
N4    N     N_2   0.114799 0.078855 0.507850 -0.311831
O1    O     O_R   0.506170 0.421690 0.658830 -0.625260
O2    O     O_R   0.491330 0.609320 0.646410 -0.603214
O3    O     O_R   0.690660 0.406170 0.506210 -0.632150
O4    O     O_R   0.675810 0.593790 0.493790 -0.600999
O5    O     O_R   0.508670 0.390680 0.353590 -0.630428
O6    O     O_R   0.493830 0.578310 0.341170 -0.624371
O7    O     O_R   0.324190 0.406210 0.506210 -0.633255
O8    O     O_R   0.309340 0.593830 0.493790 -0.628593
Zn1   Zn    Zn3+2 0.509910 0.374720 0.508290 0.930961
Zn2   Zn    Zn3+2 0.490090 0.625280 0.491710 0.953522

loop_
_geom_bond_atom_site_label_1
_geom_bond_atom_site_label_2
_ccdc_geom_bond_type
C24   N4    S    
C7    H6    S    
C5    C9    A    
C6    C7    A    
C16   O6    A    
C25   H4    S    
C16   C32   S    
C11   H24   S    
C10   H22   S    
C28   H15   S    
C29   H1    S    
H14   N4    S    
C34   H8    S    
C30   C31   A    
O6    Zn2   S    
N1    Zn1   S    
C27   H11   S    
C12   C21   A    
C25   C26   A    
C1    C33   S    
C9    H12   S    
C21   H2    S    
C13   N2    A    
O3    Zn1   S    
C13   C14   A    
C19   H23   S    
C4    O4    A    
O4    Zn2   S    
C3    H19   S    
C12   C23   A    
C20   O8    A    
C29   C30   A    
C2    H18   S    
C18   H21   S    
C17   N1    A    
C5    C6    A    
C14   C19   A    
C2    C33   A    
O1    Zn1   S    
C30   H5    S    
O5    Zn1   S    
C10   C15   A    
O2    Zn2   S    
C4    O3    A    
C28   H17   S    
C22   C24   A    
C20   O7    A    
C10   C11   A    
C3    C33   A    
C16   O5    A    
C11   N2    A    
C8    C32   A    
C1    O2    A    
C23   C29   A    
C18   N1    A    
C26   C31   A    
C13   N3    S    
C24   C25   A    
H9    N3    S    
O7    Zn1   S    
C18   C19   A    
C27   H13   S    
C15   C17   A    
C4    C23   S    
N2    Zn2   S    
C14   C15   A    
C1    O1    A    
O8    Zn2   S    
C7    C32   A    
C27   N3    S    
C8    H7    S    
C2    C34   A    
C21   C22   A    
C22   H3    S    
C28   H16   S    
C27   H10   S    
C17   H20   S    
C6    C34   A    
C12   C26   A    
C8    C9    A    
C3    C5    A    
C20   C31   S    
C28   N4    S    
