data_mof_unit_44464.cif
_audit_creation_date              2012-10-26T21:17:40-0400
_audit_creation_method            fapswitch 2.2
_symmetry_space_group_name_H-M    P1
_symmetry_Int_Tables_number       1
_space_group_crystal_system       triclinic
_cell_length_a                    10.938408
_cell_length_b                    9.096604
_cell_length_c                    7.776424
_cell_angle_alpha                 89.997546
_cell_angle_beta                  89.999951
_cell_angle_gamma                 90.000015
_cell_volume                      773.772586048

loop_
_atom_site_label
_atom_site_type_symbol
_atom_type_description
_atom_site_fract_x
_atom_site_fract_y
_atom_site_fract_z
_atom_type_partial_charge
C1    C     C_R   0.500000 0.219992 0.499987 0.555122
C2    C     C_R   0.064712 0.512704 0.676810 0.035943
C3    C     C_R   0.128555 0.531971 0.517280 0.002280
C4    C     C_R   0.871446 0.531967 0.517280 0.002280
C5    C     C_R   0.063351 0.569506 0.369371 -0.174623
C6    C     C_R   0.936649 0.569504 0.369371 -0.174622
C7    C     C_1   0.500000 0.065357 0.500009 -0.045897
C8    C     C_1   0.500000 0.934639 0.500005 -0.044240
C9    C     C_R   0.500000 0.780017 0.499984 0.552567
C10   C     C_R   0.261718 0.510341 0.502911 0.553472
C11   C     C_R   0.738282 0.510339 0.502911 0.553471
C12   C     C_R   0.123739 0.492867 0.839123 0.127223
C13   C     C_R   0.876263 0.492856 0.839122 0.127219
C14   C     C_R   0.063105 0.412810 0.966406 -0.148597
C15   C     C_R   0.936902 0.412802 0.966404 -0.148602
C16   C     C_R   0.935289 0.512700 0.676810 0.035945
Cu1   Cu    Cu3+1 0.500000 0.500000 0.669080 1.050297
Cu2   Cu    Cu3+1 0.500000 0.500000 0.330920 0.991104
H1    H     H_    0.110918 0.596648 0.251737 0.129651
H2    H     H_    0.889082 0.596644 0.251736 0.129651
H3    H     H_    0.166372 0.688848 0.944586 0.212249
H4    H     H_    0.263151 0.552721 0.997904 0.246088
H5    H     H_    0.736846 0.552695 0.997901 0.246091
H6    H     H_    0.833634 0.688828 0.944609 0.212246
H7    H     H_    0.110570 0.379412 0.082100 0.128966
H8    H     H_    0.889438 0.379398 0.082097 0.128964
N1    N     N_1   0.500000 0.500000 0.076820 -0.107382
N2    N     N_1   0.500000 0.500000 0.923180 -0.080145
N3    N     N_3   0.213257 0.597638 0.896135 -0.568826
N4    N     N_3   0.786746 0.597624 0.896140 -0.568818
O1    O     O_R   0.500000 0.288390 0.642760 -0.495793
O2    O     O_R   0.500000 0.711610 0.642760 -0.482596
O3    O     O_R   0.500000 0.288370 0.357190 -0.494028
O4    O     O_R   0.500000 0.711630 0.357190 -0.502180
O5    O     O_R   0.319650 0.500000 0.642810 -0.464010
O6    O     O_R   0.680350 0.500000 0.642810 -0.464012
O7    O     O_R   0.319630 0.500000 0.357240 -0.528229
O8    O     O_R   0.680370 0.500000 0.357240 -0.528229

loop_
_geom_bond_atom_site_label_1
_geom_bond_atom_site_label_2
_ccdc_geom_bond_type
C4    C16   A    
C11   O8    A    
C10   O5    A    
C5    H1    S    
H4    N3    S    
C12   N3    S    
C6    H2    S    
C2    C12   A    
C2    C3    A    
Cu2   O8    S    
C1    O3    A    
C7    C8    T    
C3    C10   S    
C4    C11   S    
Cu2   O4    S    
C5    C6    A    
C10   O7    A    
C11   O6    A    
Cu1   O6    S    
Cu2   O7    S    
C12   C14   A    
Cu1   Cu2   S    
C13   C15   A    
C14   H7    S    
C9    O4    A    
Cu1   O1    S    
Cu2   O3    S    
H6    N4    S    
H5    N4    S    
C13   N4    S    
C1    O1    A    
C2    C16   A    
C4    C6    A    
C13   C16   A    
N1    N2    T    
Cu1   O2    S    
C14   C15   A    
C15   H8    S    
Cu1   O5    S    
C9    O2    A    
C1    C7    S    
Cu1   N2    S    
H3    N3    S    
Cu2   N1    S    
C8    C9    S    
C3    C5    A    
