data_mof_unit_35349.cif
_audit_creation_date              2012-12-10T19:07:07-0500
_audit_creation_method            fapswitch 2.2
_symmetry_space_group_name_H-M    P1
_symmetry_Int_Tables_number       1
_space_group_crystal_system       triclinic
_cell_length_a                    27.737737
_cell_length_b                    10.821377
_cell_length_c                    9.543325
_cell_angle_alpha                 89.25491
_cell_angle_beta                  90.251219
_cell_angle_gamma                 90.217243
_cell_volume                      2864.23957265

loop_
_atom_site_label
_atom_site_type_symbol
_atom_type_description
_atom_site_fract_x
_atom_site_fract_y
_atom_site_fract_z
_atom_type_partial_charge
C1    C     C_R   0.498277 0.262477 0.500680 0.801759
C2    C     C_R   0.974757 0.376965 0.506951 0.034843
C3    C     C_R   0.973622 0.585042 0.401929 0.052383
C4    C     C_R   0.407414 0.500043 0.499520 0.780536
C5    C     C_R   0.948865 0.481213 0.458204 0.062028
C6    C     C_R   0.949839 0.284698 0.583350 -0.207440
C7    C     C_R   0.899852 0.286800 0.594875 -0.153806
C8    C     C_R   0.873327 0.383468 0.534015 -0.018700
C9    C     C_R   0.897864 0.481838 0.467067 -0.049189
C10   C     C_R   0.871447 0.581246 0.410040 -0.019936
C11   C     C_R   0.820983 0.579679 0.418926 0.536172
C12   C     C_R   0.277567 0.474600 0.615990 -0.105830
C13   C     C_R   0.822796 0.386310 0.542041 0.532593
C14   C     C_R   0.718316 0.402688 0.416942 -0.094880
C15   C     C_R   0.668230 0.409794 0.419848 -0.283168
C16   C     C_R   0.497413 0.737848 0.498273 0.855525
C17   C     C_R   0.673337 0.585220 0.577543 -0.029665
C18   C     C_R   0.723654 0.575025 0.575667 -0.200991
C19   C     C_R   0.746172 0.485478 0.494412 0.357218
C20   C     C_R   0.025172 0.371067 0.485056 -0.009515
C21   C     C_R   0.050526 0.481011 0.451677 0.035877
C22   C     C_R   0.024851 0.588775 0.410090 0.061658
C23   C     C_R   0.253238 0.492790 0.488436 0.361046
C24   C     C_R   0.051177 0.258625 0.492231 0.050800
C25   C     C_R   0.101381 0.699071 0.379821 0.002737
C26   C     C_R   0.946034 0.681840 0.341479 -0.216516
C27   C     C_R   0.895901 0.679530 0.345144 -0.151143
C28   C     C_R   0.592404 0.501211 0.500198 0.876116
C29   C     C_R   0.051170 0.696634 0.377193 -0.287939
C30   C     C_R   0.488127 0.061373 0.623856 0.133796
C31   C     C_R   0.490907 0.130136 0.500191 -0.119074
C32   C     C_R   0.483158 0.069863 0.372896 -0.239940
C33   C     C_R   0.481862 0.940499 0.366740 0.073816
C34   C     C_R   0.101654 0.482375 0.457783 -0.096503
C35   C     C_R   0.489577 0.871124 0.493878 -0.128718
C36   C     C_R   0.487870 0.934635 0.620694 0.101175
C37   C     C_3   0.517426 0.924590 0.751852 -0.435958
C38   C     C_3   0.517664 0.064996 0.754616 -0.496006
C39   C     C_R   0.538721 0.545426 0.073843 0.205807
C40   C     C_R   0.178106 0.379450 0.501668 0.525264
C41   C     C_R   0.460429 0.463973 0.074321 -0.089002
C42   C     C_R   0.460291 0.465030 0.925748 -0.096316
C43   C     C_R   0.539460 0.539777 0.926731 0.232225
C44   C     C_3   0.589331 0.485324 0.928487 -0.153809
C45   C     C_R   0.127073 0.373725 0.498591 -0.062015
C46   C     C_3   0.589240 0.500063 0.086624 -0.496736
C47   C     C_R   0.177317 0.595859 0.452283 0.556105
C48   C     C_R   0.279462 0.514675 0.365573 -0.096288
C49   C     C_R   0.329627 0.517653 0.369627 -0.229856
C50   C     C_R   0.327890 0.478195 0.620488 -0.213888
C51   C     C_2   0.124455 0.812392 0.321811 0.457201
C52   C     C_2   0.652605 0.690565 0.654428 0.311503
C53   C     C_3   0.473664 0.885141 0.222659 -0.376574
C54   C     C_3   0.423511 0.825483 0.211044 -0.318492
C55   C     C_3   0.413768 0.781372 0.062270 -0.837103
C56   C     C_R   0.100656 0.262670 0.526771 0.076839
C57   C     C_3   0.592567 0.347999 0.886405 -0.335382
C58   C     C_3   0.645066 0.304009 0.893303 -0.370939
C59   C     C_3   0.649865 0.170914 0.844726 -0.818205
C60   C     C_3   0.122021 0.151658 0.605583 -0.356090
C61   C     C_3   0.137398 0.185788 0.755282 -0.335881
C62   C     C_3   0.159615 0.075293 0.832374 -0.771471
C63   C     C_3   0.030494 0.139611 0.429734 -0.420018
C64   C     C_3   0.007075 0.161643 0.285118 -0.307582
C65   C     C_3   0.991983 0.040049 0.218239 -0.867529
C66   C     C_R   0.127165 0.593492 0.427607 -0.029518
C67   C     C_R   0.354345 0.499144 0.497053 -0.033252
C68   C     C_R   0.645258 0.499985 0.499880 -0.051696
Cu1   Cu    Cu3+1 0.500000 0.499980 0.640670 0.950386
Cu2   Cu    Cu3+1 0.500000 0.500020 0.359330 0.935266
H1    H     H_    0.346026 0.463468 0.719988 0.146181
H2    H     H_    0.553712 0.885097 0.734214 0.248642
H3    H     H_    0.497339 0.103244 0.844240 0.198389
H4    H     H_    0.553844 0.106196 0.736827 0.203817
H5    H     H_    0.428786 0.431484 0.129416 0.145875
H6    H     H_    0.428474 0.433588 0.870936 0.144997
H7    H     H_    0.615873 0.546766 0.875220 0.172135
H8    H     H_    0.591957 0.411960 0.147403 0.215846
H9    H     H_    0.614188 0.573791 0.122892 0.190514
H10   H     H_    0.647254 0.344280 0.359774 0.144556
H11   H     H_    0.735545 0.333770 0.353127 0.145440
H12   H     H_    0.260850 0.528814 0.266698 0.143392
H13   H     H_    0.882160 0.212991 0.652898 0.184913
H14   H     H_    0.968923 0.213377 0.640638 0.144116
H15   H     H_    0.349002 0.534599 0.272922 0.151499
H16   H     H_    0.109982 0.902369 0.346737 0.018495
H17   H     H_    0.674114 0.737222 0.733131 0.073884
H18   H     H_    0.411799 0.861576 0.988648 0.249379
H19   H     H_    0.442885 0.718866 0.027832 0.256078
H20   H     H_    0.378918 0.730634 0.058889 0.243513
H21   H     H_    0.420106 0.745809 0.284641 0.235082
H22   H     H_    0.395530 0.894158 0.238859 0.222297
H23   H     H_    0.962072 0.759468 0.287260 0.142481
H24   H     H_    0.475910 0.958482 0.140079 0.178188
H25   H     H_    0.502798 0.820124 0.195029 0.217415
H26   H     H_    0.626912 0.108372 0.909448 0.249217
H27   H     H_    0.639198 0.163849 0.732787 0.250748
H28   H     H_    0.687970 0.141084 0.855590 0.263465
H29   H     H_    0.667877 0.364248 0.825171 0.235075
H30   H     H_    0.658718 0.310243 0.002686 0.228479
H31   H     H_    0.569767 0.289109 0.956199 0.191946
H32   H     H_    0.578797 0.334833 0.778937 0.237966
H33   H     H_    0.133240 0.997976 0.839490 0.250210
H34   H     H_    0.876385 0.756048 0.297859 0.185545
H35   H     H_    0.192333 0.043653 0.776735 0.272334
H36   H     H_    0.170043 0.102416 0.940194 0.247028
H37   H     H_    0.163959 0.262632 0.754801 0.242609
H38   H     H_    0.105253 0.216916 0.814263 0.206852
H39   H     H_    0.094835 0.076877 0.618643 0.168899
H40   H     H_    0.151762 0.109503 0.545738 0.249657
H41   H     H_    0.023922 0.980453 0.201736 0.246313
H42   H     H_    0.965667 0.990586 0.286302 0.253847
H43   H     H_    0.974735 0.059071 0.115022 0.249262
H44   H     H_    0.974499 0.220063 0.294337 0.232799
H45   H     H_    0.745779 0.639777 0.633429 0.138664
H46   H     H_    0.033099 0.209929 0.214799 0.221417
H47   H     H_    0.059966 0.072634 0.412203 0.190182
H48   H     H_    0.004985 0.092313 0.501360 0.190628
H49   H     H_    0.033399 0.781606 0.348043 0.126301
H50   H     H_    0.480024 0.123639 0.276720 0.164046
H51   H     H_    0.496926 0.881886 0.839973 0.194062
H52   H     H_    0.257452 0.457921 0.711414 0.132197
N1    N     N_R   0.201519 0.489461 0.482707 -0.470760
N2    N     N_R   0.797763 0.483398 0.484654 -0.462878
N3    N     N_R   0.500300 0.500930 0.147930 -0.178704
N4    N     N_R   0.500310 0.500890 0.852020 -0.192596
O1    O     O_R   0.500000 0.319640 0.618810 -0.592020
O2    O     O_R   0.569730 0.499960 0.618810 -0.572562
O3    O     O_R   0.569740 0.500000 0.381220 -0.587152
O4    O     O_2   0.204629 0.276289 0.518632 -0.549397
O5    O     O_2   0.157353 0.805927 0.237652 -0.503244
O6    O     O_2   0.612449 0.729973 0.627506 -0.570252
O7    O     O_2   0.798895 0.293482 0.607501 -0.547106
O8    O     O_2   0.201918 0.703590 0.450593 -0.501664
O9    O     O_2   0.795252 0.673411 0.361911 -0.541139
O10   O     O_R   0.500010 0.319680 0.381230 -0.585704
O11   O     O_R   0.430260 0.500000 0.618780 -0.591438
O12   O     O_R   0.430270 0.500040 0.381190 -0.599209
O13   O     O_R   0.499990 0.680320 0.618770 -0.551937
O14   O     O_R   0.500000 0.680360 0.381190 -0.587229

loop_
_geom_bond_atom_site_label_1
_geom_bond_atom_site_label_2
_ccdc_geom_bond_type
C10   C27   A    
Cu1   O13   S    
C7    H13   S    
Cu2   O14   S    
C8    C13   A    
C39   N3    A    
C22   C29   A    
C53   H25   S    
Cu1   O11   S    
C41   C42   A    
C11   N2    A    
C43   C44   S    
C34   C66   A    
C7    C8    A    
C62   H35   S    
C16   O14   A    
C53   C54   S    
C5    C9    A    
C57   H32   S    
C29   H49   S    
C12   C23   A    
C30   C38   S    
C26   C27   A    
C64   H46   S    
C36   C37   S    
C28   C68   S    
C41   N3    A    
C18   C19   A    
C55   H20   S    
C16   C35   S    
C30   C31   A    
C63   H47   S    
C31   C32   A    
C27   H34   S    
C1    C31   S    
C17   C52   S    
C25   C29   A    
C28   O3    A    
C55   H18   S    
C61   H38   S    
C65   H41   S    
C60   H39   S    
C4    O11   A    
C51   H16   S    
C20   C24   A    
Cu1   O2    S    
C8    C9    A    
C1    O10   A    
C9    C10   A    
C47   C66   A    
C61   C62   S    
C26   H23   S    
C21   C22   A    
Cu2   O10   S    
C2    C6    A    
C13   O7    S    
C32   H50   S    
C43   N4    A    
C44   C46   S    
C3    C26   A    
C33   C53   S    
C40   C45   A    
C19   N2    S    
C6    H14   S    
C25   C66   A    
C2    C20   A    
C52   O6    D    
C49   H15   S    
C58   H30   S    
C45   C56   A    
C46   H8    S    
C13   N2    A    
C51   O5    D    
C23   N1    S    
C21   C34   A    
C58   C59   S    
Cu2   O3    S    
C56   C60   S    
C50   C67   A    
C60   C61   S    
C35   C36   A    
C50   H1    S    
C25   C51   S    
C65   H42   S    
C54   H22   S    
C37   C38   S    
C11   O9    S    
C41   H5    S    
C47   N1    A    
C15   H10   S    
C44   C57   S    
C17   C18   A    
C34   C45   A    
C39   C46   S    
C37   H51   S    
Cu2   N3    S    
C48   C49   A    
Cu1   N4    S    
Cu2   O12   S    
C24   C63   S    
C47   O8    S    
C59   H27   S    
C2    C5    A    
C59   H26   S    
C62   H33   S    
C38   H4    S    
C63   H48   S    
C40   N1    A    
C40   O4    S    
C54   C55   S    
C44   H7    S    
C17   C68   A    
C23   C48   A    
C49   C67   A    
C53   H24   S    
C65   H43   S    
C14   C19   A    
C52   H17   S    
C58   H29   S    
C1    O1    A    
C3    C5    A    
C18   H45   S    
C4    C67   S    
C39   C43   A    
C6    C7    A    
C62   H36   S    
C24   C56   A    
C57   H31   S    
C42   H6    S    
C30   C36   A    
C64   C65   S    
C54   H21   S    
C55   H19   S    
C32   C33   A    
C57   C58   S    
C46   H9    S    
C15   C68   A    
C33   C35   A    
C48   H12   S    
Cu1   Cu2   S    
C61   H37   S    
C60   H40   S    
C10   C11   A    
C42   N4    A    
C4    O12   A    
C63   C64   S    
C16   O13   A    
C12   H52   S    
C20   C21   A    
Cu1   O1    S    
C64   H44   S    
C37   H2    S    
C59   H28   S    
C14   C15   A    
C3    C22   A    
C14   H11   S    
C12   C50   A    
C28   O2    A    
C38   H3    S    
