data_mof_unit_22787.cif
_audit_creation_date              2012-12-11T15:29:45-0500
_audit_creation_method            fapswitch 2.2
_symmetry_space_group_name_H-M    P1
_symmetry_Int_Tables_number       1
_space_group_crystal_system       triclinic
_cell_length_a                    21.377353
_cell_length_b                    7.247242
_cell_length_c                    14.839241
_cell_angle_alpha                 90.00014
_cell_angle_beta                  73.966771
_cell_angle_gamma                 89.999956
_cell_volume                      2209.56974895

loop_
_atom_site_label
_atom_site_type_symbol
_atom_type_description
_atom_site_fract_x
_atom_site_fract_y
_atom_site_fract_z
_atom_type_partial_charge
O1    O     O_R   0.464160 0.506670 0.130070 -0.534831
O2    O     O_R   0.535840 0.006670 0.869930 -0.534831
O3    O     O_R   0.589710 0.179080 0.006710 -0.544211
O4    O     O_R   0.410290 0.679080 0.993290 -0.544210
C1    C     C_R   0.616042 0.344639 0.003353 0.649576
C2    C     C_R   0.383957 0.844639 0.996647 0.649577
O5    O     O_R   0.467940 0.177220 0.138010 -0.537669
O6    O     O_R   0.532060 0.677220 0.861990 -0.537669
O7    O     O_R   0.413200 0.002810 0.002170 -0.538943
O8    O     O_R   0.586800 0.502810 0.997830 -0.538944
C3    C     C_R   0.455723 0.345297 0.174317 0.705737
C4    C     C_R   0.544276 0.845297 0.825683 0.705735
O9    O     O_3   0.482180 0.337850 0.955280 -0.377485
O10   O     O_3   0.517820 0.837850 0.044720 -0.377485
V1    V     V_3+5 0.503310 0.064600 0.008300 1.428012
V2    V     V_3+5 0.496690 0.564600 0.991700 1.428011
C5    C     C_R   0.573986 0.851902 0.724016 -0.085651
C6    C     C_R   0.426013 0.351903 0.275983 -0.085650
C7    C     C_R   0.931267 0.876825 0.277367 -0.142726
C8    C     C_R   0.068733 0.376822 0.722633 -0.142739
C9    C     C_R   0.561083 0.822024 0.567509 0.007149
C10   C     C_R   0.438917 0.322025 0.432490 0.007148
C11   C     C_R   0.534143 0.833246 0.664338 -0.195535
C12   C     C_R   0.465856 0.333248 0.335661 -0.195534
C13   C     C_R   0.641948 0.866159 0.686924 -0.091534
C14   C     C_R   0.358051 0.366160 0.313076 -0.091536
C15   C     C_R   0.669841 0.876244 0.588090 0.051026
C16   C     C_R   0.330158 0.376245 0.411909 0.051025
C17   C     C_R   0.629237 0.838704 0.528770 0.090649
C18   C     C_R   0.370762 0.338707 0.471229 0.090650
C19   C     C_R   0.736962 0.918180 0.545877 0.012393
C20   C     C_R   0.263037 0.418180 0.454122 0.012392
C21   C     C_R   0.766276 0.871931 0.450852 0.089632
C22   C     C_R   0.233723 0.371933 0.549147 0.089629
C23   C     C_R   0.724764 0.830081 0.394414 -0.129707
C24   C     C_R   0.275235 0.330085 0.605585 -0.129706
C25   C     C_R   0.657711 0.819130 0.432068 -0.206289
C26   C     C_R   0.342288 0.319133 0.567931 -0.206288
C27   C     C_R   0.772806 0.026636 0.592313 -0.247385
C28   C     C_R   0.227192 0.526637 0.407686 -0.247379
C29   C     C_R   0.837693 0.073730 0.551036 0.294142
C30   C     C_R   0.162305 0.573728 0.448963 0.294124
C31   C     C_R   0.870393 0.004678 0.460761 -0.018902
C32   C     C_R   0.129605 0.504673 0.539239 -0.018903
C33   C     C_R   0.835064 0.891965 0.412320 -0.062837
C34   C     C_R   0.164936 0.391966 0.587679 -0.062828
C35   C     C_R   0.936175 0.051170 0.415160 0.317350
C36   C     C_R   0.063821 0.551156 0.584839 0.317355
C37   C     C_R   0.964296 0.991494 0.323843 -0.288092
C38   C     C_R   0.035702 0.491482 0.676156 -0.288068
C39   C     C_R   0.868929 0.811612 0.324555 0.221241
C40   C     C_R   0.131071 0.311612 0.675444 0.221238
H1    H     H_    0.628391 0.792705 0.384486 0.131580
H2    H     H_    0.371608 0.292709 0.615513 0.131580
H3    H     H_    0.011933 0.043950 0.286391 0.144107
H4    H     H_    0.988063 0.543930 0.713609 0.144104
H5    H     H_    0.481876 0.820993 0.693869 0.105611
H6    H     H_    0.518124 0.320994 0.306131 0.105610
H7    H     H_    0.742462 0.821491 0.319042 0.145919
H8    H     H_    0.257538 0.321495 0.680957 0.145917
H9    H     H_    0.749186 0.091192 0.658654 0.143476
H10   H     H_    0.250812 0.591198 0.341345 0.143475
C41   C     C_3   0.227768 0.745152 0.915633 -0.317845
C42   C     C_3   0.772229 0.245189 0.084379 -0.317841
H11   H     H_    0.207798 0.602533 0.920636 0.141021
H12   H     H_    0.792197 0.102568 0.079392 0.141017
H13   H     H_    0.223778 0.804639 0.848305 0.129586
H14   H     H_    0.776221 0.304706 0.151700 0.129587
C43   C     C_3   0.300571 0.736437 0.914957 -0.322358
C44   C     C_3   0.699426 0.236474 0.085056 -0.322360
H15   H     H_    0.331580 0.788308 0.846593 0.125517
H16   H     H_    0.668418 0.288378 0.153415 0.125517
H17   H     H_    0.314356 0.589995 0.921541 0.147912
H18   H     H_    0.685637 0.090029 0.078489 0.147904
H19   H     H_    0.175975 0.637081 0.100270 0.146599
H20   H     H_    0.824022 0.137040 0.899752 0.146605
H21   H     H_    0.282995 0.631579 0.100511 0.167749
H22   H     H_    0.717002 0.131531 0.899516 0.167759
C45   C     C_3   0.195904 0.779843 0.091140 -0.330117
C46   C     C_3   0.804095 0.279804 0.908869 -0.330116
C47   C     C_3   0.218297 0.060820 0.987952 -0.307822
C48   C     C_3   0.781707 0.560823 0.012026 -0.307819
C49   C     C_3   0.187754 0.863939 0.998965 0.117267
C50   C     C_3   0.812246 0.363939 0.001034 0.117257
H23   H     H_    0.192219 0.149682 0.047762 0.154985
H24   H     H_    0.807787 0.649659 0.952206 0.154982
H25   H     H_    0.213061 0.126365 0.922567 0.127972
H26   H     H_    0.786944 0.626397 0.077404 0.127978
C51   C     C_3   0.312870 0.852707 0.996466 0.106040
C52   C     C_3   0.687130 0.352707 0.003535 0.106030
C53   C     C_3   0.268708 0.775802 0.090236 -0.313149
C54   C     C_3   0.731291 0.275760 0.909773 -0.313137
C55   C     C_3   0.291085 0.053707 0.984550 -0.311889
C56   C     C_3   0.708919 0.553712 0.015428 -0.311883
H27   H     H_    0.320691 0.111029 0.916520 0.132429
H28   H     H_    0.679313 0.611066 0.083451 0.132432
H29   H     H_    0.299417 0.143109 0.040864 0.182734
H30   H     H_    0.700589 0.643086 0.959104 0.182742
H31   H     H_    0.167762 0.862490 0.152094 0.129904
H32   H     H_    0.832238 0.362427 0.847907 0.129902
H33   H     H_    0.275502 0.858675 0.149978 0.143378
H34   H     H_    0.724497 0.358603 0.850021 0.143363
O11   O     O_R   0.913210 0.208550 0.002110 -0.537186
O12   O     O_R   0.086790 0.708550 0.997890 -0.537186
O13   O     O_R   0.032060 0.539960 0.861980 -0.539893
O14   O     O_R   0.967940 0.039960 0.138020 -0.539894
C57   C     C_R   0.044135 0.373230 0.825296 0.704955
C58   C     C_R   0.955866 0.873231 0.174704 0.704958
O15   O     O_R   0.910290 0.538020 0.993280 -0.546926
O16   O     O_R   0.089710 0.038020 0.006720 -0.546926
O17   O     O_R   0.964160 0.712340 0.130090 -0.536145
O18   O     O_R   0.035840 0.212340 0.869910 -0.536146
C59   C     C_R   0.883801 0.370270 0.999053 0.642880
C60   C     C_R   0.116199 0.870270 0.000947 0.642879
O19   O     O_3   0.017820 0.379210 0.044690 -0.375601
O20   O     O_3   0.982180 0.879210 0.955310 -0.375602
V3    V     V_3+5 0.996690 0.652500 0.991710 1.375141
V4    V     V_3+5 0.003310 0.152500 0.008290 1.375141
N1    N     N_2   0.971262 0.181755 0.453670 -0.481347
H35   H     H_    0.967775 0.313355 0.429246 0.248902
C61   C     C_3   0.036917 0.132058 0.454140 -0.549949
H36   H     H_    0.043498 0.161108 0.524348 0.212926
H37   H     H_    0.073106 0.212969 0.400887 0.181030
H38   H     H_    0.047012 0.984233 0.437615 0.236373
N2    N     N_2   0.028730 0.681715 0.546322 -0.481390
H39   H     H_    0.032228 0.813320 0.570709 0.248946
C62   C     C_3   0.963072 0.632034 0.545880 -0.549961
H40   H     H_    0.956471 0.661161 0.475687 0.212938
H41   H     H_    0.926891 0.712904 0.599174 0.181017
H42   H     H_    0.952987 0.484181 0.562371 0.236435
N3    N     N_2   0.841929 0.659452 0.287191 -0.536610
H43   H     H_    0.849283 0.660116 0.215612 0.248994
C63   C     C_3   0.854340 0.481845 0.323288 -0.502849
H44   H     H_    0.828387 0.372524 0.295435 0.182862
H45   H     H_    0.836439 0.480043 0.401100 0.205315
H46   H     H_    0.907347 0.451122 0.301274 0.190891
N4    N     N_2   0.158072 0.159450 0.712806 -0.536606
H47   H     H_    0.150717 0.160111 0.784385 0.248993
C64   C     C_3   0.145659 0.981844 0.676706 -0.502837
H48   H     H_    0.171612 0.872518 0.704556 0.182862
H49   H     H_    0.163559 0.980041 0.598894 0.205305
H50   H     H_    0.092651 0.951127 0.698723 0.190893
N5    N     N_2   0.867763 0.199542 0.599936 -0.498907
H51   H     H_    0.838360 0.309923 0.628195 0.246027
C65   C     C_3   0.895898 0.114883 0.667919 -0.526945
H52   H     H_    0.917431 0.223168 0.703093 0.180527
H53   H     H_    0.935405 0.019095 0.632670 0.221834
H54   H     H_    0.858077 0.039395 0.721821 0.191409
N6    N     N_2   0.132235 0.699546 0.400066 -0.498924
H55   H     H_    0.161638 0.809933 0.371817 0.246029
C66   C     C_3   0.104107 0.614900 0.332074 -0.526938
H56   H     H_    0.082581 0.723192 0.296897 0.180524
H57   H     H_    0.064596 0.519117 0.367313 0.221839
H58   H     H_    0.141931 0.539410 0.278176 0.191410
C67   C     C_1   0.517273 0.795329 0.509744 0.299727
N7    N     N_1   0.482152 0.774496 0.463591 -0.362656
C68   C     C_1   0.482727 0.295327 0.490255 0.299725
N8    N     N_1   0.517848 0.274491 0.536408 -0.362656
C69   C     C_1   0.682375 0.839635 0.749943 0.263444
N9    N     N_1   0.714881 0.817599 0.799743 -0.423970
C70   C     C_1   0.317625 0.339632 0.250056 0.263442
N10   N     N_1   0.285120 0.317591 0.200255 -0.423960

loop_
_geom_bond_atom_site_label_1
_geom_bond_atom_site_label_2
_ccdc_geom_bond_type
C45   C49   S    
C41   H11   S    
C3    C6    S    
C46   C54   S    
C50   C59   S    
C48   C56   S    
C15   C17   A    
C21   C33   A    
C57   O18   A    
O1    C3    A    
C46   C50   S    
O2    C4    A    
O16   V4    S    
C2    O7    A    
C70   N10   T    
O15   V3    S    
C27   C29   A    
N3    C63   S    
O5    C3    A    
O13   C57   A    
C5    C11   A    
C6    C12   A    
C42   H14   S    
C45   H31   S    
O11   C59   A    
C47   C55   S    
C29   N5    S    
N6    C66   S    
C65   H52   S    
C64   H50   S    
C33   C39   A    
N5    H51   S    
C34   C40   A    
C28   H10   S    
O20   V3    S    
C18   C26   A    
C23   H7    S    
C66   H58   S    
C43   H15   S    
C30   N6    S    
C42   C50   S    
C61   H38   S    
C8    C38   A    
C47   C49   S    
C36   N2    S    
C68   N8    T    
N5    C65   S    
C41   C43   S    
C6    C14   A    
C4    C5    S    
C13   C69   S    
C63   H46   S    
C66   H56   S    
C19   C21   A    
C43   H17   S    
C22   C34   A    
C42   C44   S    
C51   C53   S    
C31   C35   A    
O16   C60   A    
C45   C53   S    
C1    C52   S    
O15   C59   A    
C8    C57   S    
C25   H1    S    
C7    C58   S    
C36   C38   A    
O6    V2    S    
O14   V4    S    
C29   C31   A    
C49   C60   S    
O13   V3    S    
C44   C52   S    
C30   C32   A    
C53   H33   S    
C43   C51   S    
C65   H53   S    
C32   C34   A    
C52   C56   S    
N1    C61   S    
C27   H9    S    
C41   H13   S    
C15   C19   A    
C12   H6    S    
C16   C20   A    
C35   C37   A    
C39   N3    S    
O5    V1    S    
C24   H8    S    
C48   H24   S    
C9    C17   A    
C38   H4    S    
C41   C49   S    
C42   H12   S    
O4    V2    S    
C62   H41   S    
C44   H18   S    
N4    C64   S    
C7    C37   A    
C52   C54   S    
C69   N9    T    
C26   H2    S    
O6    C4    A    
O19   V4    S    
C40   N4    S    
C9    C67   S    
O1    V2    S    
N1    H35   S    
C56   H28   S    
O2    V1    S    
C31   C33   A    
C61   H36   S    
C47   H25   S    
O12   C60   A    
O4    C2    A    
C48   C50   S    
C20   C28   A    
C9    C11   A    
N2    H39   S    
C10   C12   A    
O11   V4    S    
N3    H43   S    
C55   H29   S    
C65   H54   S    
O3    V1    S    
C63   H45   S    
O12   V3    S    
C11   H5    S    
H21   C53   S    
C10   C18   A    
C23   C25   A    
H20   C46   S    
C28   C30   A    
O3    C1    A    
C44   H16   S    
C64   H48   S    
C10   C68   S    
C54   H34   S    
C13   C15   A    
C2    C51   S    
N4    H47   S    
C14   C70   S    
C14   C16   A    
C58   O17   A    
O17   V3    S    
H22   C54   S    
C16   C18   A    
O7    V1    S    
C62   H42   S    
C5    C13   A    
C1    O8    A    
C8    C40   A    
C32   C36   A    
C37   H3    S    
N6    H55   S    
C24   C26   A    
O18   V4    S    
C64   H49   S    
C63   H44   S    
O14   C58   A    
C48   H26   S    
C35   N1    S    
C21   C23   A    
C19   C27   A    
C22   C24   A    
C66   H57   S    
C51   C55   S    
C47   H23   S    
C61   H37   S    
C7    C39   A    
C55   H27   S    
O9    V2    S    
C17   C25   A    
C67   N7    T    
N2    C62   S    
C56   H30   S    
O10   V1    S    
O8    V2    S    
H19   C45   S    
C46   H32   S    
C62   H40   S    
C20   C22   A    
