data_mof_unit_23437.cif
_audit_creation_date              2012-12-11T14:52:23-0500
_audit_creation_method            fapswitch 2.2
_symmetry_space_group_name_H-M    P1
_symmetry_Int_Tables_number       1
_space_group_crystal_system       triclinic
_cell_length_a                    18.886449
_cell_length_b                    10.842125
_cell_length_c                    18.762908
_cell_angle_alpha                 90.359212
_cell_angle_beta                  90.900451
_cell_angle_gamma                 89.79277
_cell_volume                      3841.49268504

loop_
_atom_site_label
_atom_site_type_symbol
_atom_type_description
_atom_site_fract_x
_atom_site_fract_y
_atom_site_fract_z
_atom_type_partial_charge
C1    C     C_R   0.271744 0.045926 0.852958 0.569852
C2    C     C_R   0.728564 0.044443 0.147392 0.581443
C3    C     C_R   0.771745 0.545929 0.852961 0.560918
C4    C     C_R   0.228579 0.544471 0.147409 0.567333
C5    C     C_3   0.508680 0.714359 0.972168 0.257080
C6    C     C_3   0.465945 0.741097 0.038216 0.265224
C7    C     C_3   0.009476 0.214600 0.971876 0.255273
C8    C     C_3   0.966646 0.240688 0.037933 0.265004
C9    C     C_R   0.298553 0.529599 0.963246 -0.181416
C10   C     C_R   0.692862 0.549361 0.034004 -0.141029
C11   C     C_R   0.798502 0.029527 0.963209 -0.182121
C12   C     C_R   0.192897 0.049263 0.034017 -0.141136
C13   C     C_R   0.294517 0.512657 0.036337 -0.147966
C14   C     C_R   0.696195 0.543288 0.960040 -0.131616
C15   C     C_R   0.794445 0.012554 0.036291 -0.147811
C16   C     C_R   0.196238 0.043132 0.960056 -0.131824
C17   C     C_R   0.248546 0.585928 0.077136 0.016355
C18   C     C_R   0.755410 0.588592 0.925142 -0.016637
C19   C     C_R   0.748492 0.085856 0.077097 0.017903
C20   C     C_R   0.255406 0.088570 0.925139 -0.018756
C21   C     C_R   0.208547 0.680459 0.045164 0.295944
C22   C     C_R   0.809592 0.648586 0.964584 0.291791
C23   C     C_R   0.708516 0.180438 0.045135 0.294871
C24   C     C_R   0.309551 0.148690 0.964563 0.291447
C25   C     C_R   0.209286 0.691565 0.971538 0.211245
C26   C     C_R   0.811703 0.636419 0.038369 0.217522
C27   C     C_R   0.709315 0.191631 0.971520 0.210682
C28   C     C_R   0.311678 0.136565 0.038351 0.218198
C29   C     C_R   0.254335 0.615695 0.929885 -0.019950
C30   C     C_R   0.750561 0.594697 0.074097 -0.019082
C31   C     C_R   0.754332 0.115706 0.929867 -0.019414
C32   C     C_R   0.250570 0.094729 0.074094 -0.019793
C33   C     C_R   0.448695 0.717695 0.519574 0.269245
C34   C     C_R   0.456807 0.726340 0.445989 0.262419
C35   C     C_R   0.997467 0.212838 0.535157 0.266273
C36   C     C_R   0.997932 0.212842 0.462179 0.266711
C37   C     C_R   0.487615 0.833681 0.417863 -0.024253
C38   C     C_R   0.456535 0.824057 0.562892 -0.018729
C39   C     C_R   0.002805 0.326016 0.425094 -0.021522
C40   C     C_R   0.992284 0.325793 0.572925 -0.018689
C41   C     C_R   0.492867 0.940084 0.459943 -0.202519
C42   C     C_R   0.477855 0.935211 0.532105 -0.201898
C43   C     C_R   0.998004 0.437919 0.462237 -0.207306
C44   C     C_R   0.992997 0.437876 0.536034 -0.198896
C45   C     C_R   0.442972 0.817831 0.863164 0.561039
C46   C     C_R   0.556473 0.817381 0.136904 0.562227
C47   C     C_R   0.943228 0.317876 0.863178 0.555229
C48   C     C_R   0.056727 0.317340 0.136914 0.562570
C49   C     C_R   0.174173 0.594974 0.546400 -0.139736
C50   C     C_R   0.816970 0.602966 0.457543 -0.141036
C51   C     C_R   0.674987 0.097111 0.545958 -0.124175
C52   C     C_R   0.322747 0.105675 0.455912 -0.134470
C53   C     C_R   0.163323 0.566581 0.475580 -0.136659
C54   C     C_R   0.820947 0.601232 0.530182 -0.128752
C55   C     C_R   0.664223 0.069650 0.475142 -0.131458
C56   C     C_R   0.332663 0.079445 0.526563 -0.135527
C57   C     C_R   0.215786 0.504445 0.437954 0.013742
C58   C     C_R   0.761948 0.565772 0.569660 0.043293
C59   C     C_R   0.715320 0.003521 0.437992 0.025394
C60   C     C_R   0.283196 0.008360 0.562141 0.022984
C61   C     C_R   0.275357 0.456570 0.474458 -0.121869
C62   C     C_R   0.699254 0.529061 0.535312 -0.141653
C63   C     C_R   0.773639 0.952348 0.474957 -0.149531
C64   C     C_R   0.226534 0.954315 0.524036 -0.152292
C65   C     C_R   0.286651 0.486716 0.545970 -0.098700
C66   C     C_R   0.694116 0.536690 0.461946 -0.133237
C67   C     C_R   0.787012 0.986668 0.545620 -0.139167
C68   C     C_R   0.213675 0.987793 0.453373 -0.139362
C69   C     C_R   0.238847 0.564818 0.580191 0.029306
C70   C     C_R   0.752228 0.579550 0.423570 0.037901
C71   C     C_R   0.739425 0.065678 0.579811 0.031558
C72   C     C_R   0.260186 0.069158 0.420497 0.030098
C73   C     C_R   0.262077 0.643038 0.854270 0.564206
C74   C     C_R   0.739690 0.635670 0.147860 0.550971
C75   C     C_R   0.762077 0.143040 0.854264 0.561213
C76   C     C_R   0.239692 0.135673 0.147860 0.548553
C77   C     C_R   0.291609 0.994494 0.638715 0.552784
C78   C     C_R   0.707772 0.993105 0.360909 0.577230
C79   C     C_R   0.773180 0.542032 0.644041 0.553588
C80   C     C_R   0.207892 0.493400 0.360965 0.568199
C81   C     C_R   0.439428 0.818873 0.638885 0.571522
C82   C     C_R   0.527391 0.824314 0.351661 0.555072
C83   C     C_R   0.969471 0.322629 0.646368 0.564977
C84   C     C_R   0.029196 0.323137 0.352825 0.558465
C85   C     C_R   0.258275 0.631834 0.645139 0.543817
C86   C     C_R   0.740762 0.633212 0.354794 0.547627
C87   C     C_R   0.758497 0.132275 0.644907 0.552571
C88   C     C_R   0.241503 0.133000 0.355009 0.543554
C89   C     C_3   0.489643 0.936788 0.030027 -0.186662
C90   C     C_3   0.532921 0.909934 0.961834 -0.177384
C91   C     C_3   0.989861 0.436606 0.030061 -0.185324
C92   C     C_3   0.033227 0.410400 0.961840 -0.177908
C93   C     C_3   0.429064 0.851266 0.002148 -0.131073
C94   C     C_3   0.569131 0.797860 0.998816 -0.127278
C95   C     C_3   0.929513 0.350744 0.002044 -0.129696
C96   C     C_3   0.069718 0.298433 0.998690 -0.128612
C97   C     C_3   0.472984 0.824225 0.935216 0.026197
C98   C     C_3   0.525343 0.824709 0.065682 0.037155
C99   C     C_3   0.973506 0.324342 0.935095 0.028251
C100  C     C_3   0.025824 0.324631 0.065576 0.035764
Cr1   Cr    Cr6+3 0.229630 0.835900 0.747350 1.001741
Cr2   Cr    Cr6+3 0.770370 0.835900 0.252650 1.004045
Cr3   Cr    Cr6+3 0.729630 0.335900 0.747350 1.029487
Cr4   Cr    Cr6+3 0.270370 0.335900 0.252650 0.986950
Cr5   Cr    Cr6+3 0.387410 0.989850 0.750850 0.989272
Cr6   Cr    Cr6+3 0.612590 0.989850 0.249150 0.995524
Cr7   Cr    Cr6+3 0.887410 0.489850 0.750850 0.995358
Cr8   Cr    Cr6+3 0.112590 0.489850 0.249150 0.992809
Cr9   Cr    Cr6+3 0.385800 0.677120 0.749340 1.026474
Cr10  Cr    Cr6+3 0.614200 0.677120 0.250660 1.001506
Cr11  Cr    Cr6+3 0.885800 0.177120 0.749340 1.038526
Cr12  Cr    Cr6+3 0.114200 0.177120 0.250660 1.023926
H1    H     H_    0.371448 0.872039 0.002653 0.124179
H2    H     H_    0.626679 0.777231 0.998273 0.114421
H3    H     H_    0.871849 0.371106 0.002563 0.124806
H4    H     H_    0.127313 0.278187 0.998145 0.115120
H5    H     H_    0.134198 0.650325 0.572470 0.127026
H6    H     H_    0.862862 0.633679 0.428611 0.123874
H7    H     H_    0.635489 0.153996 0.571686 0.131823
H8    H     H_    0.361427 0.164855 0.431434 0.132861
H9    H     H_    0.115909 0.600778 0.449251 0.130343
H10   H     H_    0.871143 0.625626 0.555021 0.133054
H11   H     H_    0.618258 0.108230 0.448451 0.124036
H12   H     H_    0.377632 0.120520 0.553959 0.125733
H13   H     H_    0.314975 0.402590 0.447021 0.148523
H14   H     H_    0.654672 0.495616 0.565058 0.109479
H15   H     H_    0.811325 0.893713 0.448054 0.130600
H16   H     H_    0.190053 0.892979 0.549847 0.128063
H17   H     H_    0.334085 0.455458 0.573145 0.167250
H18   H     H_    0.643720 0.516882 0.436049 0.136394
H19   H     H_    0.835857 0.957838 0.571675 0.147419
H20   H     H_    0.166185 0.955701 0.426088 0.147209
H21   H     H_    0.482855 0.028109 0.055682 0.136724
H22   H     H_    0.559987 0.980328 0.929383 0.120094
H23   H     H_    0.982850 0.527779 0.055834 0.137168
H24   H     H_    0.060116 0.481139 0.929488 0.118767
H25   H     H_    0.335097 0.474270 0.932635 0.183226
H26   H     H_    0.644402 0.522272 0.059529 0.176219
H27   H     H_    0.835028 0.974167 0.932594 0.183491
H28   H     H_    0.144461 0.022084 0.059554 0.175886
H29   H     H_    0.325466 0.439212 0.060461 0.200759
H30   H     H_    0.652346 0.504532 0.929820 0.229574
H31   H     H_    0.825354 0.939044 0.060397 0.201615
H32   H     H_    0.152435 0.004219 0.929843 0.230084
H33   H     H_    0.511666 0.025297 0.437797 0.132778
H34   H     H_    0.485445 0.017535 0.564200 0.139642
H35   H     H_    0.000176 0.525010 0.434467 0.128078
H36   H     H_    0.988217 0.525067 0.564030 0.133728
O1    O     O_R   0.214270 0.709000 0.827470 -0.485476
O2    O     O_R   0.785730 0.709000 0.172530 -0.486844
O3    O     O_R   0.714270 0.209000 0.827470 -0.487015
O4    O     O_R   0.285730 0.209000 0.172530 -0.486770
O5    O     O_R   0.445950 0.919440 0.676520 -0.522229
O6    O     O_R   0.554050 0.919440 0.323480 -0.527912
O7    O     O_R   0.945950 0.419440 0.676520 -0.511450
O8    O     O_R   0.054050 0.419440 0.323480 -0.526532
O9    O     O_R   0.456730 0.717630 0.669840 -0.474117
O10   O     O_R   0.543270 0.717630 0.330160 -0.479810
O11   O     O_R   0.956730 0.217630 0.669840 -0.462357
O12   O     O_R   0.043270 0.217630 0.330160 -0.460035
O13   O     O_R   0.320620 0.625640 0.672920 -0.495101
O14   O     O_R   0.679380 0.625640 0.327080 -0.504191
O15   O     O_R   0.820620 0.125640 0.672920 -0.491320
O16   O     O_R   0.179380 0.125640 0.327080 -0.491277
O17   O     O_3   0.334280 0.834290 0.749180 -0.306530
O18   O     O_3   0.665720 0.834290 0.250820 -0.289277
O19   O     O_3   0.834280 0.334290 0.749180 -0.271285
O20   O     O_3   0.165720 0.334290 0.250820 -0.287136
O21   O     O_R   0.236160 0.958490 0.823130 -0.476349
O22   O     O_R   0.763840 0.958490 0.176870 -0.498705
O23   O     O_R   0.736160 0.458490 0.823130 -0.481686
O24   O     O_R   0.263840 0.458490 0.176870 -0.515289
O25   O     O_R   0.332080 0.075470 0.831280 -0.499227
O26   O     O_R   0.667920 0.075470 0.168720 -0.498624
O27   O     O_R   0.832080 0.575470 0.831280 -0.503099
O28   O     O_R   0.167920 0.575470 0.168720 -0.496578
O29   O     O_R   0.446300 0.918110 0.826620 -0.512579
O30   O     O_R   0.553700 0.918110 0.173380 -0.509501
O31   O     O_R   0.946300 0.418110 0.826620 -0.520633
O32   O     O_R   0.053700 0.418110 0.173380 -0.507823
O33   O     O_R   0.457110 0.716200 0.831760 -0.473264
O34   O     O_R   0.542890 0.716200 0.168240 -0.512078
O35   O     O_R   0.957110 0.216200 0.831760 -0.481693
O36   O     O_R   0.042890 0.216200 0.168240 -0.497429
O37   O     O_R   0.320980 0.624310 0.823030 -0.524064
O38   O     O_R   0.679020 0.624310 0.176970 -0.520980
O39   O     O_R   0.820980 0.124310 0.823030 -0.526424
O40   O     O_R   0.179020 0.124310 0.176970 -0.523477
O41   O     O_R   0.213890 0.710430 0.665540 -0.551138
O42   O     O_R   0.786110 0.710430 0.334460 -0.547759
O43   O     O_R   0.713890 0.210430 0.665540 -0.530215
O44   O     O_R   0.286110 0.210430 0.334460 -0.544658
O45   O     O_R   0.235810 0.959820 0.673020 -0.515270
O46   O     O_R   0.764190 0.959820 0.326980 -0.517598
O47   O     O_R   0.735810 0.459820 0.673020 -0.502743
O48   O     O_R   0.264190 0.459820 0.326980 -0.531715
O49   O     O_R   0.331700 0.076900 0.669350 -0.529944
O50   O     O_R   0.668300 0.076900 0.330650 -0.519069
O51   O     O_R   0.831700 0.576900 0.669350 -0.534258
O52   O     O_R   0.168300 0.576900 0.330650 -0.525570
O53   O     O_3   0.519014 0.596579 0.943156 -0.715711
H37   H     H_    0.471545 0.557882 0.941318 0.327786
O54   O     O_3   0.430342 0.653306 0.078469 -0.697602
H38   H     H_    0.462293 0.580696 0.081307 0.329697
O55   O     O_3   0.020088 0.097045 0.942663 -0.716903
H39   H     H_    0.972733 0.057922 0.940858 0.327885
O56   O     O_3   0.931218 0.152318 0.077917 -0.684466
H40   H     H_    0.963282 0.079827 0.080460 0.331486
O57   O     O_3   0.172215 0.765440 0.087213 -0.525351
C101  C     C_3   0.097970 0.757040 0.075615 0.015846
H41   H     H_    0.080469 0.660684 0.064720 0.119381
H42   H     H_    0.080979 0.816715 0.030656 0.163458
C102  C     C_3   0.059777 0.804410 0.141287 -0.363296
H43   H     H_    0.074978 0.901500 0.152621 0.152366
H44   H     H_    0.001637 0.800486 0.131818 0.118042
H45   H     H_    0.073383 0.747177 0.188378 0.176392
O58   O     O_3   0.853481 0.732451 0.930924 -0.547609
C103  C     C_3   0.925158 0.694264 0.932722 0.028592
H46   H     H_    0.930622 0.592465 0.928789 0.156086
H47   H     H_    0.952100 0.727956 0.982039 0.164128
C104  C     C_3   0.963064 0.750825 0.869853 -0.354680
H48   H     H_    0.966002 0.852515 0.876452 0.149386
H49   H     H_    0.017389 0.712562 0.866565 0.074935
H50   H     H_    0.934634 0.729406 0.819101 0.183313
O59   O     O_3   0.672177 0.265422 0.087180 -0.522918
C105  C     C_3   0.597932 0.257024 0.075548 0.016296
H51   H     H_    0.580435 0.160614 0.064802 0.118551
H52   H     H_    0.580958 0.316501 0.030491 0.163360
C106  C     C_3   0.559704 0.304718 0.141125 -0.363118
H53   H     H_    0.574743 0.402031 0.152186 0.150910
H54   H     H_    0.501544 0.300401 0.131692 0.115030
H55   H     H_    0.573471 0.247884 0.188378 0.178642
O60   O     O_3   0.353392 0.232593 0.930875 -0.547376
C107  C     C_3   0.425092 0.194545 0.932704 0.027525
H56   H     H_    0.430627 0.092755 0.928791 0.155605
H57   H     H_    0.452002 0.228338 0.982016 0.164221
C108  C     C_3   0.462973 0.251134 0.869834 -0.353013
H58   H     H_    0.465737 0.352850 0.876353 0.150448
H59   H     H_    0.517363 0.213132 0.866646 0.076314
H60   H     H_    0.434631 0.229450 0.819071 0.184582
O61   O     O_3   0.167340 0.780755 0.941343 -0.698153
H61   H     H_    0.127357 0.735723 0.918531 0.309972
O62   O     O_3   0.871968 0.674198 0.074462 -0.726657
H62   H     H_    0.880638 0.614880 0.113722 0.329335
O63   O     O_3   0.667491 0.281001 0.941337 -0.697794
H63   H     H_    0.627425 0.236146 0.918556 0.310071
O64   O     O_3   0.371926 0.174468 0.074429 -0.727122
H64   H     H_    0.380665 0.115126 0.113663 0.328405
O65   O     O_3   0.433111 0.604412 0.548911 -0.537138
C109  C     C_3   0.496562 0.534786 0.554543 0.018890
H65   H     H_    0.537107 0.584766 0.587275 0.138671
H66   H     H_    0.518840 0.514582 0.501158 0.158537
C110  C     C_3   0.481939 0.412220 0.590404 -0.377006
H67   H     H_    0.446175 0.355310 0.556201 0.131160
H68   H     H_    0.532406 0.360977 0.598667 0.088916
H69   H     H_    0.457087 0.428223 0.642939 0.165510
O66   O     O_3   0.445168 0.621753 0.404599 -0.551177
C111  C     C_3   0.393207 0.645974 0.351328 0.015322
H70   H     H_    0.394638 0.741322 0.329623 0.112849
H71   H     H_    0.340046 0.632589 0.374099 0.167868
C112  C     C_3   0.404085 0.557454 0.289048 -0.298868
H72   H     H_    0.400507 0.460473 0.307280 0.154184
H73   H     H_    0.363291 0.574886 0.247165 0.149745
H74   H     H_    0.456859 0.571447 0.265367 0.172250
O67   O     O_3   0.991314 0.099017 0.567649 -0.527644
C113  C     C_3   0.059015 0.057418 0.589142 0.023615
H75   H     H_    0.084258 0.122825 0.627812 0.139475
H76   H     H_    0.093510 0.046036 0.542170 0.155031
C114  C     C_3   0.051243 0.932888 0.625148 -0.364232
H77   H     H_    0.029195 0.864397 0.586581 0.134321
H78   H     H_    0.103434 0.899509 0.644912 0.132541
H79   H     H_    0.015125 0.941411 0.671098 0.157761
O68   O     O_3   0.005000 0.098801 0.429234 -0.528999
C115  C     C_3   0.938189 0.059168 0.404152 0.025219
H80   H     H_    0.916110 0.123507 0.363346 0.145562
H81   H     H_    0.900761 0.052337 0.448961 0.150399
C116  C     C_3   0.946748 0.932270 0.370124 -0.361913
H82   H     H_    0.965722 0.865091 0.410703 0.135594
H83   H     H_    0.895463 0.899977 0.347590 0.137372
H84   H     H_    0.985687 0.936558 0.326422 0.154483

loop_
_geom_bond_atom_site_label_1
_geom_bond_atom_site_label_2
_ccdc_geom_bond_type
Cr2   O22   S    
C87   O15   A    
Cr2   O42   S    
C14   H30   S    
C58   C62   A    
C46   O34   A    
Cr10  O18   S    
O63   H63   S    
C55   C59   A    
Cr9   O33   S    
Cr6   O26   S    
C34   C37   A    
C85   O13   A    
C41   C42   A    
C14   C18   A    
Cr5   O5    S    
C35   C36   A    
C40   C83   S    
C7    O55   S    
C107  C108  S    
Cr9   O9    S    
C89   H21   S    
C5    C94   S    
C84   O12   A    
C81   O5    A    
C7    C8    S    
Cr12  O36   S    
C94   C98   S    
C59   C78   S    
C102  H43   S    
Cr3   O19   S    
C7    C96   S    
Cr7   O51   S    
C1    O25   A    
O65   C109  S    
C50   C54   A    
C7    C99   S    
C46   O30   A    
C37   C41   A    
C63   H15   S    
C5    C6    S    
C56   H12   S    
C29   C73   S    
C87   O43   A    
C16   H32   S    
O68   C115  S    
C39   C84   S    
C115  H80   S    
C106  H55   S    
Cr1   O41   S    
C27   O63   S    
C78   O46   A    
C110  H67   S    
C82   O10   A    
C95   C99   S    
C83   O7    A    
C76   O4    A    
C109  H66   S    
O62   H62   S    
Cr12  O20   S    
Cr8   O28   S    
C92   C96   S    
C79   O47   A    
Cr8   O32   S    
C3    C18   S    
O66   C111  S    
O53   H37   S    
C62   H14   S    
C68   H20   S    
C30   C74   S    
C9    C13   A    
C77   O45   A    
C24   O60   S    
Cr1   O1    S    
C83   O11   A    
C72   C88   S    
C52   C56   A    
C9    H25   S    
C49   H5    S    
C12   C16   A    
C95   H3    S    
Cr6   O6    S    
C47   C99   S    
C51   H7    S    
C12   H28   S    
Cr1   O21   S    
C86   O14   A    
C23   C27   A    
C91   C100  S    
C18   C22   A    
Cr12  O12   S    
O67   C113  S    
C90   C97   S    
C115  H81   S    
Cr10  O10   S    
C116  H83   S    
C9    C29   A    
Cr6   O50   S    
Cr7   O31   S    
C109  C110  S    
Cr5   O49   S    
C46   C98   S    
C11   C31   A    
Cr2   O18   S    
C49   C69   A    
C116  H82   S    
C12   C32   A    
Cr3   O23   S    
C57   C80   S    
C92   H24   S    
C8    C95   S    
C107  H57   S    
C77   O49   A    
C80   O48   A    
C45   O33   A    
Cr2   O46   S    
C11   C15   A    
C73   O37   A    
C23   O59   S    
Cr1   O45   S    
C36   O68   S    
C90   C94   S    
C55   H11   S    
C102  H44   S    
Cr10  O14   S    
C54   H10   S    
Cr12  O16   S    
C74   O2    A    
Cr7   O19   S    
C60   C77   S    
C86   O42   A    
C81   O9    A    
C47   O31   A    
C27   C31   A    
O56   H40   S    
C94   H2    S    
C90   H22   S    
C20   C24   A    
C6    O54   S    
C28   C32   A    
C48   C100  S    
C33   C34   A    
C47   O35   A    
C21   C25   A    
C10   C14   A    
C75   O3    A    
C91   C92   S    
C48   O36   A    
C42   H34   S    
C62   C66   A    
C26   O62   S    
C39   C43   A    
C51   C55   A    
Cr9   O37   S    
C109  H65   S    
C88   O16   A    
C91   C95   S    
C17   C21   A    
C56   C60   A    
C34   O66   S    
C68   C72   A    
C28   O64   S    
Cr8   O52   S    
C8    O56   S    
C15   C19   A    
C43   C44   A    
C63   C67   A    
Cr12  O40   S    
C106  H53   S    
C52   C72   A    
C110  H69   S    
C104  H48   S    
C10   C30   A    
C93   C97   S    
C31   C75   S    
O57   C101  S    
Cr8   O8    S    
C16   C20   A    
C6    C93   S    
Cr3   O3    S    
Cr11  O35   S    
O59   C105  S    
Cr4   O48   S    
C41   H33   S    
C105  H51   S    
C93   H1    S    
C35   O67   S    
C33   O65   S    
Cr9   O17   S    
C58   C79   S    
C2    O22   A    
Cr8   O20   S    
C71   C87   S    
C4    C17   S    
C52   H8    S    
C3    O27   A    
O58   C103  S    
C22   O58   S    
Cr2   O2    S    
C26   C30   A    
C89   C90   S    
C105  H52   S    
C114  H78   S    
C38   C81   S    
C22   C26   A    
C54   C58   A    
C113  H75   S    
C15   H31   S    
C37   C82   S    
C108  H60   S    
C111  C112  S    
Cr3   O43   S    
C107  H56   S    
C70   C86   S    
C64   C68   A    
C6    C98   S    
C111  H71   S    
C48   O32   A    
C69   C85   S    
C19   C23   A    
C103  C104  S    
C110  H68   S    
O60   C107  S    
C102  H45   S    
C45   C97   S    
C59   C63   A    
C88   O44   A    
O55   H39   S    
C61   H13   S    
Cr10  O38   S    
C1    C20   S    
C53   C57   A    
C4    O24   A    
C79   O51   A    
C73   O1    A    
C2    C19   S    
C50   H6    S    
Cr11  O39   S    
C13   H29   S    
C36   C39   A    
C75   O39   A    
C24   C28   A    
Cr5   O29   S    
C113  C114  S    
C76   O40   A    
C32   C76   S    
C112  H74   S    
C65   H17   S    
O64   H64   S    
C51   C71   A    
C57   C61   A    
Cr3   O47   S    
C25   O61   S    
C104  H50   S    
C101  C102  S    
C10   H26   S    
C89   C98   S    
C101  H42   S    
C33   C38   A    
Cr4   O24   S    
C103  H47   S    
C60   C64   A    
C80   O52   A    
Cr4   O4    S    
C108  H59   S    
C111  H70   S    
C8    C100  S    
C112  H73   S    
Cr4   O20   S    
C106  H54   S    
Cr11  O15   S    
Cr9   O13   S    
Cr1   O17   S    
C5    O53   S    
C45   O29   A    
C84   O8    A    
C25   C29   A    
C103  H46   S    
C66   C70   A    
Cr7   O27   S    
Cr6   O18   S    
O61   H61   S    
C65   C69   A    
C96   C100  S    
C1    O21   A    
C44   H36   S    
C21   O57   S    
C5    C97   S    
C67   C71   A    
C35   C40   A    
C89   C93   S    
C67   H19   S    
C115  C116  S    
C108  H58   S    
C50   C70   A    
C114  H79   S    
C49   C53   A    
C43   H35   S    
C113  H76   S    
C2    O26   A    
Cr11  O19   S    
C53   H9    S    
C13   C17   A    
C82   O6    A    
C38   C42   A    
C61   C65   A    
C40   C44   A    
C91   H23   S    
C105  C106  S    
Cr10  O34   S    
C104  H49   S    
C101  H41   S    
C4    O28   A    
C116  H84   S    
C112  H72   S    
Cr5   O17   S    
C96   H4    S    
Cr5   O25   S    
C78   O50   A    
O54   H38   S    
C74   O38   A    
C64   H16   S    
C114  H77   S    
C85   O41   A    
Cr6   O30   S    
Cr7   O7    S    
C3    O23   A    
C92   C99   S    
C11   H27   S    
C66   H18   S    
Cr11  O11   S    
Cr4   O44   S    
