data_mof_unit_8094.cif
_audit_creation_date              2012-10-26T21:05:17-0400
_audit_creation_method            fapswitch 2.2
_symmetry_space_group_name_H-M    P1
_symmetry_Int_Tables_number       1
_space_group_crystal_system       triclinic
_cell_length_a                    9.621582
_cell_length_b                    10.842373
_cell_length_c                    13.860964
_cell_angle_alpha                 93.385951
_cell_angle_beta                  85.002401
_cell_angle_gamma                 87.817161
_cell_volume                      1436.61529692

loop_
_atom_site_label
_atom_site_type_symbol
_atom_type_description
_atom_site_fract_x
_atom_site_fract_y
_atom_site_fract_z
_atom_type_partial_charge
C1    C     C_R   0.496581 0.737742 0.505556 0.541757
C2    C     C_R   0.606746 0.927645 0.469831 -0.151513
C3    C     C_R   0.624181 0.053495 0.482767 -0.041990
C4    C     C_R   0.477515 0.500036 0.682844 0.533156
C5    C     C_R   0.509110 0.129953 0.524174 -0.022678
C6    C     C_R   0.878650 0.349739 0.360878 -0.082848
C7    C     C_R   0.959979 0.287546 0.284626 -0.157677
C8    C     C_R   0.104748 0.284703 0.282342 -0.035110
C9    C     C_R   0.165755 0.349039 0.357901 -0.094748
C10   C     C_R   0.085907 0.426563 0.430172 0.143646
C11   C     C_R   0.936688 0.426567 0.430901 0.153270
C12   C     C_1   0.464668 0.497236 0.785997 -0.031395
C13   C     C_R   0.914920 0.570441 0.565848 -0.002782
C14   C     C_R   0.062621 0.570243 0.565939 -0.005426
C15   C     C_R   0.502393 0.263004 0.507528 0.524348
C16   C     C_R   0.522624 0.502588 0.317354 0.540116
C17   C     C_1   0.536586 0.510686 0.214642 -0.032684
C18   C     C_2   0.555042 0.522032 0.024680 -0.128522
C19   C     C_2   0.446414 0.490651 0.976360 -0.128469
C20   C     C_1   0.455198 0.494271 0.872801 -0.057534
C21   C     C_1   0.546589 0.516676 0.128079 -0.061881
C22   C     C_R   0.191798 0.210099 0.203500 0.031974
C23   C     C_R   0.288533 0.891798 0.637724 -0.104159
C24   C     C_R   0.144859 0.099219 0.161517 -0.097603
C25   C     C_R   0.227071 0.031421 0.087017 -0.110387
C26   C     C_R   0.356582 0.073306 0.052938 -0.099872
C27   C     C_R   0.404081 0.183109 0.093318 -0.115781
C28   C     C_R   0.322219 0.250902 0.167882 -0.105147
C29   C     C_R   0.771511 0.091910 0.475346 0.048176
C30   C     C_R   0.867612 0.041467 0.399317 -0.115376
C31   C     C_R   0.010950 0.051205 0.405050 -0.109862
C32   C     C_R   0.059887 0.118350 0.482930 -0.087237
C33   C     C_R   0.966081 0.171904 0.557494 -0.108397
C34   C     C_R   0.197242 0.965505 0.702543 -0.122035
C35   C     C_R   0.823211 0.155366 0.555436 -0.056379
C36   C     C_R   0.208292 0.093048 0.708982 -0.129605
C37   C     C_R   0.308686 0.148160 0.649125 -0.118370
C38   C     C_R   0.400449 0.075854 0.580958 0.003370
C39   C     C_R   0.391514 0.945201 0.576100 0.021002
C40   C     C_R   0.491881 0.872593 0.514094 -0.018773
Cu1   Cu    Cu3+1 0.359340 0.500010 0.500010 0.907009
Cu2   Cu    Cu3+1 0.640660 0.499990 0.499990 0.918561
H1    H     H_    0.350788 0.461277 0.014216 0.139145
H2    H     H_    0.139568 0.149573 0.761303 0.109310
H3    H     H_    0.317044 0.247015 0.659862 0.146895
H4    H     H_    0.850788 0.628422 0.619814 0.117650
H5    H     H_    0.045483 0.063655 0.186527 0.091819
H6    H     H_    0.190201 0.946261 0.055663 0.106571
H7    H     H_    0.419888 0.020882 0.995097 0.111149
H8    H     H_    0.504038 0.216223 0.066499 0.115061
H9    H     H_    0.359271 0.336573 0.196610 0.111765
H10   H     H_    0.832063 0.990360 0.337299 0.094946
H11   H     H_    0.084399 0.008082 0.348467 0.118586
H12   H     H_    0.770743 0.331226 0.363568 0.185472
H13   H     H_    0.170498 0.130067 0.484275 0.142791
H14   H     H_    0.003944 0.224551 0.617767 0.111306
H15   H     H_    0.753264 0.189829 0.617432 0.120209
H16   H     H_    0.908113 0.236616 0.229681 0.109147
H17   H     H_    0.274775 0.331149 0.359845 0.178622
H18   H     H_    0.108238 0.627825 0.620089 0.103466
H19   H     H_    0.650837 0.551065 0.986862 0.133477
H20   H     H_    0.690752 0.869256 0.432248 0.142505
H21   H     H_    0.280303 0.793161 0.640110 0.130863
H22   H     H_    0.119821 0.923120 0.749807 0.105265
N1    N     N_R   0.852210 0.498790 0.499090 -0.243709
N2    N     N_R   0.148080 0.498710 0.499060 -0.241150
O1    O     O_R   0.381190 0.680360 0.500010 -0.497983
O2    O     O_R   0.618760 0.680340 0.500000 -0.499338
O3    O     O_R   0.364420 0.499990 0.637850 -0.511411
O4    O     O_R   0.601990 0.499960 0.637840 -0.498263
O5    O     O_R   0.381240 0.319660 0.500000 -0.530283
O6    O     O_R   0.618810 0.319640 0.499990 -0.517349
O7    O     O_R   0.398010 0.500040 0.362160 -0.509489
O8    O     O_R   0.635580 0.500010 0.362150 -0.509191

loop_
_geom_bond_atom_site_label_1
_geom_bond_atom_site_label_2
_ccdc_geom_bond_type
C18   C21   S    
Cu1   Cu2   S    
C19   C20   S    
C4    O4    A    
C7    C8    A    
Cu1   O1    S    
C13   N1    A    
C15   O6    A    
C26   C27   A    
C37   C38   A    
C16   O8    A    
C36   C37   A    
C30   C31   A    
C28   H9    S    
Cu2   O4    S    
C1    O2    A    
C18   C19   D    
C3    C29   S    
C1    C40   S    
C33   C35   A    
C8    C9    A    
Cu2   N1    S    
C8    C22   S    
C4    C12   S    
C9    C10   A    
C7    H16   S    
C27   H8    S    
Cu1   O5    S    
C33   H14   S    
C23   H21   S    
C22   C28   A    
C5    C38   A    
Cu2   O2    S    
C6    H12   S    
Cu2   O6    S    
C4    O3    A    
C19   H1    S    
C10   N2    A    
C38   C39   A    
Cu2   O8    S    
C16   O7    A    
C24   C25   A    
C26   H7    S    
C39   C40   A    
C16   C17   S    
C25   C26   A    
C17   C21   T    
C9    H17   S    
C29   C30   A    
C31   C32   A    
C23   C34   A    
C12   C20   T    
C34   H22   S    
C14   N2    A    
C31   H11   S    
C25   H6    S    
Cu1   N2    S    
C22   C24   A    
C36   H2    S    
C37   H3    S    
C6    C11   A    
C15   O5    A    
Cu1   O3    S    
C30   H10   S    
C32   H13   S    
C24   H5    S    
C3    C5    A    
C18   H19   S    
C6    C7    A    
C14   H18   S    
C29   C35   A    
C35   H15   S    
C32   C33   A    
C2    C3    A    
C13   H4    S    
C23   C39   A    
C1    O1    A    
C34   C36   A    
C5    C15   S    
C10   C11   A    
Cu1   O7    S    
C2    C40   A    
C27   C28   A    
C13   C14   A    
C2    H20   S    
C11   N1    A    
