data_mof_unit_21849.cif
_audit_creation_date              2012-12-10T16:45:20-0500
_audit_creation_method            fapswitch 2.2
_symmetry_space_group_name_H-M    P1
_symmetry_Int_Tables_number       1
_space_group_crystal_system       triclinic
_cell_length_a                    7.443215
_cell_length_b                    8.693228
_cell_length_c                    15.708637
_cell_angle_alpha                 94.227682
_cell_angle_beta                  75.148814
_cell_angle_gamma                 103.160883
_cell_volume                      956.54923412

loop_
_atom_site_label
_atom_site_type_symbol
_atom_type_description
_atom_site_fract_x
_atom_site_fract_y
_atom_site_fract_z
_atom_type_partial_charge
C1    C     C_R   0.545102 0.800143 0.502577 0.884446
C2    C     C_R   0.454949 0.199858 0.497359 0.884216
C3    C     C_R   0.254510 0.470901 0.089831 -0.025743
C4    C     C_R   0.684080 0.698547 0.934559 -0.033253
C5    C     C_R   0.125890 0.439266 0.036712 -0.254965
C6    C     C_R   0.810073 0.741032 0.988524 -0.252882
C7    C     C_2   0.570516 0.968041 0.503788 -0.359474
C8    C     C_2   0.429605 0.031954 0.496065 -0.363673
C9    C     C_R   0.384073 0.489209 0.666679 0.800515
C10   C     C_R   0.616129 0.514305 0.333575 0.796022
C11   C     C_R   0.312598 0.484746 0.763132 -0.059549
C12   C     C_R   0.687069 0.551703 0.239671 -0.050849
C13   C     C_R   0.055863 0.423946 0.894095 -0.174289
C14   C     C_R   0.897440 0.723481 0.124613 -0.188909
C15   C     C_R   0.117895 0.437480 0.802866 -0.183444
C16   C     C_R   0.853340 0.666173 0.209678 -0.177408
C17   C     C_R   0.442267 0.527002 0.816133 -0.221443
C18   C     C_R   0.567401 0.494782 0.183560 -0.234098
C19   C     C_R   0.380560 0.530170 0.908504 0.079669
C20   C     C_R   0.593126 0.568219 0.103099 0.075272
C21   C     C_R   0.186887 0.464814 0.946707 0.138498
C22   C     C_R   0.768168 0.676210 0.071397 0.131844
C23   C     C_R   0.508186 0.586930 0.963562 -0.011485
C24   C     C_R   0.452043 0.537585 0.053179 -0.002987
Cu1   Cu    Cu3+1 0.322120 0.483240 0.490330 0.967585
Cu2   Cu    Cu3+1 0.677880 0.516760 0.509670 0.966615
H1    H     H_    0.976054 0.391780 0.065867 0.157408
H2    H     H_    0.941527 0.828116 0.966129 0.153401
H3    H     H_    0.454473 0.393136 0.204734 0.155173
H4    H     H_    0.592474 0.550514 0.784580 0.164529
H5    H     H_    0.946612 0.713751 0.252496 0.165053
H6    H     H_    0.014734 0.404778 0.763413 0.161175
H7    H     H_    0.905779 0.379579 0.923469 0.143949
H8    H     H_    0.029097 0.809556 0.101692 0.144084
H9    H     H_    0.706329 0.039407 0.511065 0.180920
H10   H     H_    0.293799 0.960582 0.488780 0.180766
H11   H     H_    0.005384 0.618317 0.567606 0.228901
H12   H     H_    0.993608 0.380189 0.433333 0.244775
N1    N     N_2   0.945180 0.542040 0.524240 -0.217628
N2    N     N_2   0.054820 0.457960 0.475760 -0.207013
O1    O     O_R   0.384450 0.714270 0.493720 -0.582889
O2    O     O_R   0.615550 0.285730 0.506280 -0.583595
O3    O     O_R   0.684880 0.742590 0.510050 -0.581930
O4    O     O_R   0.315120 0.257410 0.489950 -0.584611
O5    O     O_R   0.265540 0.477900 0.617090 -0.590777
O6    O     O_R   0.734460 0.522100 0.382910 -0.573945
O7    O     O_R   0.565970 0.506210 0.633420 -0.579603
O8    O     O_R   0.434030 0.493790 0.366580 -0.563744
C25   C     C_1   0.169100 0.451424 0.182964 0.218634
N3    N     N_1   0.099523 0.435141 0.257475 -0.294159
C26   C     C_1   0.728397 0.793022 0.856781 0.221997
N4    N     N_1   0.764397 0.869272 0.794782 -0.291103

loop_
_geom_bond_atom_site_label_1
_geom_bond_atom_site_label_2
_ccdc_geom_bond_type
C10   O6    A    
C19   C23   A    
C23   C24   A    
C14   H8    S    
C6    H2    S    
C14   C22   A    
C3    C25   S    
C13   C21   A    
C7    C8    D    
H11   N1    S    
C18   H3    S    
C1    C7    S    
C13   H7    S    
C16   H5    S    
H12   N2    S    
C17   H4    S    
C9    C11   S    
Cu1   O8    S    
C7    H9    S    
C3    C24   A    
C10   C12   S    
Cu2   O7    S    
C2    O2    A    
C9    O5    A    
Cu1   O4    S    
C1    O1    A    
C19   C21   A    
C20   C22   A    
Cu2   O3    S    
C9    O7    A    
C18   C20   A    
C13   C15   A    
Cu1   N2    S    
C10   O8    A    
C14   C16   A    
Cu2   N1    S    
Cu2   O6    S    
C4    C26   S    
Cu1   O1    S    
C26   N4    T    
C6    C22   A    
Cu1   O5    S    
C15   H6    S    
C5    C21   A    
Cu2   O2    S    
C4    C6    A    
C25   N3    T    
C8    H10   S    
C12   C18   A    
N1    N2    D    
C4    C23   A    
C20   C24   A    
C11   C17   A    
C17   C19   A    
Cu1   Cu2   S    
C5    H1    S    
C11   C15   A    
C1    O3    A    
C2    C8    S    
C12   C16   A    
C2    O4    A    
C3    C5    A    
