data_mof_unit_44225.cif
_audit_creation_date              2012-12-10T17:08:39-0500
_audit_creation_method            fapswitch 2.2
_symmetry_space_group_name_H-M    P1
_symmetry_Int_Tables_number       1
_space_group_crystal_system       triclinic
_cell_length_a                    15.737647
_cell_length_b                    10.77554
_cell_length_c                    10.042594
_cell_angle_alpha                 90.249665
_cell_angle_beta                  90.422174
_cell_angle_gamma                 90.43371
_cell_volume                      1702.92800123

loop_
_atom_site_label
_atom_site_type_symbol
_atom_type_description
_atom_site_fract_x
_atom_site_fract_y
_atom_site_fract_z
_atom_type_partial_charge
C1    C     C_R   0.496995 0.262549 0.499333 0.801787
C2    C     C_3   0.953389 0.513243 0.643187 -0.208990
C3    C     C_3   0.917127 0.527453 0.498375 0.197998
C4    C     C_3   0.949520 0.650828 0.425577 -0.182464
C5    C     C_3   0.052424 0.654482 0.434467 -0.184393
C6    C     C_1   0.825400 0.517616 0.500581 0.053975
C7    C     C_1   0.174693 0.515751 0.496016 0.041251
C8    C     C_1   0.249739 0.507632 0.498160 -0.090118
C9    C     C_2   0.470563 0.933073 0.394039 0.067343
C10   C     C_2   0.501367 0.868065 0.497086 -0.303903
C11   C     C_2   0.495567 0.061659 0.392230 -0.123956
C12   C     C_R   0.338396 0.500340 0.499568 0.918177
C13   C     C_2   0.470869 0.134868 0.495027 -0.243573
C14   C     C_2   0.528890 0.591597 0.928137 -0.014883
C15   C     C_2   0.513023 0.597982 0.075415 -0.156745
C16   C     C_R   0.497742 0.736847 0.499847 1.002909
C17   C     C_R   0.661604 0.500517 0.500385 0.906028
C18   C     C_3   0.051439 0.509049 0.638877 -0.542399
C19   C     C_3   0.046383 0.415649 0.409598 -0.392006
C20   C     C_3   0.949125 0.411461 0.420588 -0.498234
C21   C     C_1   0.750306 0.508672 0.501173 -0.071063
C22   C     C_3   0.083115 0.525347 0.493297 0.267502
H1    H     H_    0.462711 0.435742 0.896375 0.157718
H2    H     H_    0.519488 0.687258 0.125006 0.172008
H3    H     H_    0.503201 0.416276 0.101177 0.171587
H4    H     H_    0.072616 0.326071 0.445801 0.188267
N1    N     N_2   0.500900 0.501330 0.852150 -0.193702
N2    N     N_2   0.500920 0.501360 0.147810 -0.180361
O1    O     O_R   0.499990 0.319060 0.613040 -0.629405
O2    O     O_R   0.500010 0.319100 0.386900 -0.628397
O3    O     O_R   0.377130 0.499990 0.613120 -0.629601
O4    O     O_R   0.377160 0.500030 0.386980 -0.565216
O5    O     O_R   0.499990 0.680900 0.613100 -0.599605
O6    O     O_R   0.500010 0.680940 0.386960 -0.596865
O7    O     O_R   0.622840 0.499970 0.613020 -0.542314
O8    O     O_R   0.622870 0.500010 0.386880 -0.613067
Zn1   Zn    Zn3+2 0.499980 0.499970 0.650990 1.009477
Zn2   Zn    Zn3+2 0.500020 0.500030 0.349010 1.010302
H5    H     H_    0.931532 0.421236 0.681180 0.181959
H6    H     H_    0.081017 0.578927 0.706977 0.173061
C23   C     C_2   0.922182 0.607779 0.742775 0.517951
H7    H     H_    0.946114 0.702138 0.742635 0.075047
O9    O     O_2   0.870349 0.578009 0.826924 -0.521722
C24   C     C_2   0.917863 0.644500 0.279955 0.362247
H8    H     H_    0.948033 0.582580 0.209457 0.096068
O10   O     O_2   0.858095 0.706380 0.240035 -0.511681
C25   C     C_2   0.410099 0.887312 0.289786 0.533947
H9    H     H_    0.405274 0.936484 0.195995 0.062321
O11   O     O_2   0.361849 0.800269 0.310152 -0.519203
H10   H     H_    0.538083 0.913181 0.576175 0.137900
C26   C     C_2   0.562522 0.096502 0.294099 0.421663
H11   H     H_    0.604387 0.175436 0.310995 0.094215
O12   O     O_2   0.573304 0.033923 0.194022 -0.585805
C27   C     C_2   0.406426 0.097408 0.596983 0.408051
H12   H     H_    0.404893 0.145025 0.692378 0.085673
O13   O     O_2   0.352153 0.018462 0.573803 -0.516544
C28   C     C_2   0.578204 0.696588 0.873687 0.537463
H13   H     H_    0.571515 0.788385 0.917121 0.035731
O14   O     O_2   0.631039 0.680990 0.787304 -0.492403
H14   H     H_    0.072733 0.417504 0.677560 0.200240
H15   H     H_    0.064332 0.423242 0.303287 0.220777
H16   H     H_    0.930089 0.324794 0.473070 0.195960
H17   H     H_    0.919762 0.403292 0.319900 0.188353
C29   C     C_2   0.086109 0.757814 0.527687 0.321051
H18   H     H_    0.056453 0.774509 0.622819 0.060247
O15   O     O_2   0.147686 0.822052 0.499086 -0.497128
C30   C     C_2   0.090790 0.683063 0.297220 0.482746
H19   H     H_    0.073483 0.768953 0.248093 0.081580
O16   O     O_2   0.140639 0.614094 0.241634 -0.562391
C31   C     C_2   0.911339 0.770555 0.482648 0.424030
H20   H     H_    0.939864 0.859271 0.457016 0.073017
O17   O     O_2   0.846340 0.770985 0.548263 -0.539492

loop_
_geom_bond_atom_site_label_1
_geom_bond_atom_site_label_2
_ccdc_geom_bond_type
C25   H9    S    
C17   C21   S    
C31   H20   S    
C17   O8    A    
H1    N1    S    
C14   N1    D    
C2    C18   S    
C7    C22   S    
C11   C13   D    
C23   H7    S    
C19   C20   S    
C5    C30   S    
C8    C12   S    
C3    C6    S    
C29   H18   S    
C20   H17   S    
C4    C31   S    
C2    C3    S    
C28   H13   S    
C7    C8    T    
C25   O11   D    
C10   C16   S    
C12   O4    A    
H3    N2    S    
C30   O16   D    
C23   O9    D    
C15   N2    D    
C4    C24   S    
N1    Zn1   S    
C18   C22   S    
C11   C26   S    
O8    Zn2   S    
C15   H2    S    
O7    Zn1   S    
C24   O10   D    
C9    C25   S    
O4    Zn2   S    
C9    C11   S    
C12   O3    A    
C20   H16   S    
C16   O5    A    
C27   O13   D    
C28   O14   D    
C1    C13   S    
C1    O1    A    
C2    C23   S    
O1    Zn1   S    
C30   H19   S    
C10   H10   S    
C19   H15   S    
O3    Zn1   S    
C3    C20   S    
C19   C22   S    
C26   H11   S    
C24   H8    S    
O2    Zn2   S    
C13   C27   S    
C9    C10   D    
C18   H14   S    
C19   H4    S    
C14   C28   S    
C18   H6    S    
C27   H12   S    
C1    O2    A    
C31   O17   D    
C17   O7    A    
C16   O6    A    
N2    Zn2   S    
C14   C15   S    
C6    C21   T    
C2    H5    S    
O5    Zn1   S    
C5    C22   S    
C3    C4    S    
C5    C29   S    
C29   O15   D    
C4    C5    S    
C26   O12   D    
O6    Zn2   S    
