data_mof_unit_17954.cif
_audit_creation_date              2012-12-10T17:27:00-0500
_audit_creation_method            fapswitch 2.2
_symmetry_space_group_name_H-M    P1
_symmetry_Int_Tables_number       1
_space_group_crystal_system       triclinic
_cell_length_a                    18.400465
_cell_length_b                    18.131793
_cell_length_c                    11.947364
_cell_angle_alpha                 90.005389
_cell_angle_beta                  85.345513
_cell_angle_gamma                 89.99667
_cell_volume                      3972.89459427

loop_
_atom_site_label
_atom_site_type_symbol
_atom_type_description
_atom_site_fract_x
_atom_site_fract_y
_atom_site_fract_z
_atom_type_partial_charge
C1    C     C_R   0.402474 0.102915 0.520552 0.864684
C2    C     C_R   0.535014 0.000882 0.019898 0.097971
C3    C     C_R   0.964986 0.500926 0.980101 0.097954
C4    C     C_R   0.035014 0.500890 0.019898 0.097975
C5    C     C_R   0.587177 0.003505 0.827488 0.008798
C6    C     C_R   0.412827 0.003592 0.172513 0.008857
C7    C     C_R   0.087176 0.503516 0.827488 0.008818
C8    C     C_R   0.912826 0.503585 0.172513 0.008852
C9    C     C_R   0.596447 0.002762 0.942613 -0.346929
C10   C     C_R   0.403555 0.002875 0.057387 -0.346939
C11   C     C_R   0.096447 0.502776 0.942613 -0.346924
C12   C     C_R   0.595188 0.895229 0.479289 0.871739
C13   C     C_R   0.903555 0.502867 0.057388 -0.346936
C14   C     C_R   0.458503 0.999716 0.863594 -0.069901
C15   C     C_R   0.541496 0.999647 0.136405 -0.069603
C16   C     C_R   0.958503 0.499710 0.863595 -0.069775
C17   C     C_R   0.041497 0.499657 0.136405 -0.069658
C18   C     C_R   0.653673 0.158276 0.468737 -0.066566
C19   C     C_R   0.356117 0.833000 0.534161 -0.094353
C20   C     C_R   0.346284 0.158241 0.531313 -0.066442
C21   C     C_R   0.643867 0.832981 0.465811 -0.094354
C22   C     C_R   0.153699 0.658250 0.468731 -0.066523
C23   C     C_R   0.597531 0.102906 0.479458 0.864400
C24   C     C_R   0.856099 0.333015 0.534165 -0.094364
C25   C     C_R   0.846279 0.658236 0.531305 -0.066468
C26   C     C_R   0.143865 0.332977 0.465815 -0.094363
C27   C     C_R   0.260144 0.775900 0.649989 -0.236672
C28   C     C_R   0.764550 0.195151 0.364458 -0.243474
C29   C     C_R   0.739893 0.775907 0.350029 -0.236696
C30   C     C_R   0.235303 0.194991 0.635467 -0.243466
C31   C     C_R   0.760124 0.275921 0.649998 -0.236660
C32   C     C_R   0.264605 0.695083 0.364480 -0.243505
C33   C     C_R   0.239890 0.275897 0.350039 -0.236707
C34   C     C_R   0.404808 0.895234 0.520703 0.871703
C35   C     C_R   0.735293 0.694983 0.635453 -0.243452
C36   C     C_R   0.317823 0.823737 0.638473 -0.237436
C37   C     C_R   0.701152 0.155061 0.372035 -0.249076
C38   C     C_R   0.682204 0.823742 0.361523 -0.237409
C39   C     C_R   0.298725 0.154920 0.627918 -0.249225
C40   C     C_R   0.817808 0.323752 0.638480 -0.237452
C41   C     C_R   0.201201 0.654998 0.372056 -0.249085
C42   C     C_R   0.182197 0.323728 0.361526 -0.237409
C43   C     C_R   0.798715 0.654913 0.627909 -0.249137
C44   C     C_R   0.345358 0.784463 0.444360 0.027921
C45   C     C_R   0.902470 0.602911 0.520552 0.864599
C46   C     C_R   0.667485 0.204977 0.560346 0.037013
C47   C     C_R   0.654578 0.784409 0.555576 0.027895
C48   C     C_R   0.332505 0.204996 0.439777 0.037021
C49   C     C_R   0.845329 0.284488 0.444361 0.027942
C50   C     C_R   0.167510 0.704963 0.560324 0.037024
C51   C     C_R   0.154582 0.284412 0.555587 0.027900
C52   C     C_R   0.832501 0.704987 0.439760 0.037023
C53   C     C_R   0.282244 0.740117 0.453617 0.137817
C54   C     C_R   0.735522 0.241165 0.555060 0.122775
C55   C     C_R   0.717695 0.740058 0.546348 0.137816
C56   C     C_R   0.095187 0.395228 0.479290 0.871741
C57   C     C_R   0.264441 0.241124 0.444985 0.122872
C58   C     C_R   0.782204 0.240160 0.453611 0.137811
C59   C     C_R   0.235553 0.741135 0.555053 0.122805
C60   C     C_R   0.217699 0.240062 0.546361 0.137824
C61   C     C_R   0.764440 0.741124 0.444972 0.122851
C62   C     C_3   0.610795 0.217089 0.661604 -0.412463
C63   C     C_3   0.536164 0.242639 0.628388 -0.353771
C64   C     C_3   0.485845 0.265547 0.730479 -0.875247
C65   C     C_3   0.403558 0.775745 0.346202 -0.405385
C66   C     C_3   0.383270 0.814257 0.238107 -0.300174
C67   C     C_R   0.097533 0.602906 0.479457 0.864469
C68   C     C_3   0.446762 0.811967 0.147542 -0.874107
C69   C     C_3   0.389302 0.217322 0.338743 -0.412843
C70   C     C_3   0.463847 0.242836 0.372361 -0.354344
C71   C     C_3   0.513989 0.266897 0.270754 -0.876059
C72   C     C_3   0.596333 0.775676 0.653661 -0.405440
C73   C     C_3   0.616575 0.814139 0.761827 -0.300169
C74   C     C_3   0.553004 0.811940 0.852262 -0.873959
C75   C     C_3   0.110793 0.717141 0.661522 -0.412518
C76   C     C_3   0.036194 0.742698 0.628192 -0.354241
C77   C     C_3   0.985956 0.766015 0.730108 -0.875961
C78   C     C_R   0.904802 0.395239 0.520705 0.871711
C79   C     C_3   0.903551 0.275733 0.346235 -0.405371
C80   C     C_3   0.883325 0.314253 0.238108 -0.300173
C81   C     C_3   0.946880 0.312006 0.147646 -0.874078
C82   C     C_3   0.889291 0.717286 0.338704 -0.412763
C83   C     C_3   0.963839 0.742817 0.372288 -0.354312
C84   C     C_3   0.014023 0.766703 0.270621 -0.875903
C85   C     C_3   0.096340 0.275684 0.653678 -0.405440
C86   C     C_3   0.116586 0.314151 0.761840 -0.300166
C87   C     C_3   0.053023 0.311943 0.852293 -0.874026
C88   C     C_R   0.464987 0.000928 0.980101 0.097981
H1    H     H_    0.365591 0.006050 0.232499 0.128313
H2    H     H_    0.330622 0.855626 0.711079 0.166852
H3    H     H_    0.308866 0.118165 0.696542 0.166203
H4    H     H_    0.669439 0.855656 0.288931 0.166826
H5    H     H_    0.191038 0.618277 0.303392 0.166248
H6    H     H_    0.830618 0.355631 0.711091 0.166848
H7    H     H_    0.808851 0.618154 0.696532 0.166194
H8    H     H_    0.169425 0.355634 0.288930 0.166826
H9    H     H_    0.735776 0.267945 0.734254 0.137887
H10   H     H_    0.299999 0.687786 0.288995 0.152652
H11   H     H_    0.264311 0.267943 0.265813 0.137893
H12   H     H_    0.634414 0.005911 0.767502 0.128279
H13   H     H_    0.699853 0.687643 0.710879 0.152618
H14   H     H_    0.235784 0.767931 0.734239 0.137887
H15   H     H_    0.799932 0.187870 0.288959 0.152631
H16   H     H_    0.764309 0.767959 0.265800 0.137892
H17   H     H_    0.199868 0.187655 0.710896 0.152632
H18   H     H_    0.650925 0.003948 0.970784 0.141829
H19   H     H_    0.349078 0.004134 0.029217 0.141838
H20   H     H_    0.150925 0.503970 0.970784 0.141829
H21   H     H_    0.849078 0.504119 0.029217 0.141839
H22   H     H_    0.478210 0.218899 0.790621 0.269137
H23   H     H_    0.865590 0.506037 0.232499 0.128309
H24   H     H_    0.508886 0.313573 0.773226 0.253563
H25   H     H_    0.431758 0.281340 0.702922 0.252603
H26   H     H_    0.543363 0.290054 0.569640 0.218304
H27   H     H_    0.508933 0.197087 0.588058 0.225721
H28   H     H_    0.605391 0.166827 0.714567 0.225420
H29   H     H_    0.626919 0.261186 0.717901 0.198976
H30   H     H_    0.495045 0.840662 0.176885 0.272154
H31   H     H_    0.461551 0.753943 0.126368 0.251403
H32   H     H_    0.430865 0.839789 0.070433 0.254020
H33   H     H_    0.335430 0.788205 0.203806 0.198388
H34   H     H_    0.134413 0.505927 0.767502 0.128288
H35   H     H_    0.367824 0.872183 0.255895 0.242944
H36   H     H_    0.456862 0.797005 0.369769 0.207433
H37   H     H_    0.414033 0.716233 0.329656 0.181568
H38   H     H_    0.521576 0.220975 0.209328 0.269017
H39   H     H_    0.490816 0.315419 0.229460 0.253783
H40   H     H_    0.568114 0.282350 0.298520 0.252824
H41   H     H_    0.456484 0.289661 0.432177 0.218497
H42   H     H_    0.491306 0.196973 0.411574 0.226140
H43   H     H_    0.394847 0.167155 0.285571 0.225180
H44   H     H_    0.373176 0.261512 0.282614 0.199503
H45   H     H_    0.594714 0.998825 0.168984 0.121334
H46   H     H_    0.504799 0.840730 0.822829 0.272204
H47   H     H_    0.538102 0.753936 0.873365 0.251384
H48   H     H_    0.568873 0.839715 0.929430 0.254006
H49   H     H_    0.664336 0.787998 0.796225 0.198372
H50   H     H_    0.632121 0.872045 0.744096 0.242914
H51   H     H_    0.543053 0.796972 0.630048 0.207424
H52   H     H_    0.585837 0.716163 0.670131 0.181557
H53   H     H_    0.978354 0.719641 0.790696 0.269207
H54   H     H_    0.009052 0.814206 0.772313 0.253752
H55   H     H_    0.931849 0.781686 0.702516 0.252714
H56   H     H_    0.405284 0.998960 0.831016 0.121376
H57   H     H_    0.043458 0.789905 0.569104 0.218510
H58   H     H_    0.008867 0.697063 0.588241 0.225977
H59   H     H_    0.105340 0.666904 0.714535 0.225353
H60   H     H_    0.126925 0.761254 0.717784 0.199163
H61   H     H_    0.995117 0.340727 0.177089 0.272190
H62   H     H_    0.961719 0.253996 0.126490 0.251405
H63   H     H_    0.931029 0.339821 0.070502 0.254017
H64   H     H_    0.835533 0.288185 0.203699 0.198340
H65   H     H_    0.867836 0.372166 0.255893 0.242945
H66   H     H_    0.956856 0.296963 0.369845 0.207407
H67   H     H_    0.094715 0.498842 0.168984 0.121341
H68   H     H_    0.913997 0.216215 0.329703 0.181557
H69   H     H_    0.021627 0.720670 0.209384 0.269041
H70   H     H_    0.990873 0.815152 0.229100 0.253747
H71   H     H_    0.068137 0.782209 0.298373 0.252770
H72   H     H_    0.956480 0.789738 0.431927 0.218512
H73   H     H_    0.991259 0.697011 0.411696 0.226067
H74   H     H_    0.894828 0.667104 0.285562 0.225225
H75   H     H_    0.873169 0.761458 0.282542 0.199415
H76   H     H_    0.004809 0.340719 0.822867 0.272193
H77   H     H_    0.038137 0.253940 0.873405 0.251397
H78   H     H_    0.905285 0.498947 0.831016 0.121361
H79   H     H_    0.068892 0.339724 0.929458 0.254008
H80   H     H_    0.164356 0.288021 0.796228 0.198370
H81   H     H_    0.132119 0.372056 0.744103 0.242923
H82   H     H_    0.043057 0.296978 0.630071 0.207425
H83   H     H_    0.085846 0.216171 0.670152 0.181564
H84   H     H_    0.690981 0.118357 0.303353 0.166270
N1    N     N_R   0.480750 0.000000 0.209750 -0.096290
N2    N     N_R   0.519250 0.000000 0.790250 -0.096290
N3    N     N_R   0.980750 0.500000 0.209750 -0.096293
N4    N     N_R   0.019250 0.500000 0.790250 -0.096288
O1    O     O_R   0.418020 0.076820 0.422210 -0.623541
O2    O     O_R   0.569630 0.923170 0.391410 -0.632323
O3    O     O_R   0.569630 0.076830 0.391410 -0.623407
O4    O     O_R   0.430370 0.923170 0.608590 -0.632337
O5    O     O_R   0.930370 0.576830 0.608590 -0.623279
O6    O     O_R   0.069630 0.423170 0.391410 -0.632328
O7    O     O_R   0.069630 0.576830 0.391410 -0.623359
O8    O     O_R   0.930370 0.423170 0.608590 -0.632346
O9    O     O_R   0.581980 0.923180 0.577790 -0.619601
O10   O     O_R   0.581980 0.076820 0.577790 -0.623363
O11   O     O_R   0.418020 0.923180 0.422210 -0.619633
O12   O     O_R   0.918020 0.576820 0.422210 -0.623504
O13   O     O_R   0.081980 0.423180 0.577790 -0.619604
O14   O     O_R   0.081980 0.576820 0.577790 -0.623413
O15   O     O_R   0.918020 0.423180 0.422210 -0.619605
O16   O     O_R   0.430370 0.076830 0.608590 -0.623243
Zn1   Zn    Zn3+2 0.491750 0.000000 0.375560 0.925368
Zn2   Zn    Zn3+2 0.508250 0.000000 0.624440 0.925338
Zn3   Zn    Zn3+2 0.991750 0.500000 0.375560 0.925364
Zn4   Zn    Zn3+2 0.008250 0.500000 0.624440 0.925357

loop_
_geom_bond_atom_site_label_1
_geom_bond_atom_site_label_2
_ccdc_geom_bond_type
C66   C68   S    
C8    C13   A    
C86   H81   S    
C5    N2    A    
C34   O4    A    
C28   H15   S    
O9    Zn2   S    
C51   C85   S    
C37   H84   S    
C53   C59   A    
C8    N3    A    
C45   O5    A    
C48   C57   A    
C85   C86   S    
C7    C11   A    
C10   C88   A    
C85   H83   S    
O1    Zn1   S    
C46   C62   S    
C42   H8    S    
C50   C59   A    
C18   C37   A    
C52   C61   A    
C68   H31   S    
O3    Zn1   S    
C64   H24   S    
C22   C41   A    
C73   H50   S    
C81   H62   S    
C38   H4    S    
C70   H42   S    
C31   C40   A    
C73   C74   S    
C65   H36   S    
N3    Zn3   S    
O5    Zn4   S    
C77   H54   S    
C62   H29   S    
C13   H21   S    
C68   H30   S    
C79   H68   S    
C63   H26   S    
C1    O1    A    
C44   C53   A    
C72   H51   S    
C87   H79   S    
C83   H72   S    
O12   Zn3   S    
C16   H78   S    
C74   H48   S    
C29   C38   A    
C43   H7    S    
C32   C41   A    
C71   H38   S    
C2    C88   A    
C70   C71   S    
C15   N1    A    
C35   C43   A    
C48   C69   S    
C23   O3    A    
C3    C13   A    
O14   Zn4   S    
C22   C50   A    
C63   H27   S    
C16   N4    A    
C56   O6    A    
C87   H76   S    
C83   H73   S    
C76   H58   S    
C7    N4    A    
C71   H39   S    
C10   H19   S    
C34   O11   A    
C64   H22   S    
C18   C46   A    
C39   H3    S    
C84   H71   S    
C29   C61   A    
C22   C67   S    
O2    Zn1   S    
C14   H56   S    
C67   O14   A    
C21   C38   A    
C35   C55   A    
C18   C23   S    
C80   H65   S    
C86   H80   S    
C76   C77   S    
C8    H23   S    
C20   C39   A    
C84   H70   S    
C86   C87   S    
C72   C73   S    
C57   C60   A    
C82   H74   S    
C75   H59   S    
C9    H18   S    
C81   H63   S    
C12   C21   S    
C82   C83   S    
C70   H41   S    
C49   C58   A    
C63   C64   S    
C29   H16   S    
C30   C60   A    
C33   H11   S    
O16   Zn2   S    
C75   C76   S    
C77   H55   S    
C5    C9    A    
C62   C63   S    
O7    Zn3   S    
C83   C84   S    
C5    H12   S    
C69   H43   S    
C74   H47   S    
C46   C54   A    
C66   H33   S    
N4    Zn4   S    
C4    C11   A    
C52   C82   S    
C2    C15   A    
C20   C48   A    
C67   O7    A    
C4    C17   A    
C24   C78   S    
C25   C43   A    
C76   H57   S    
N2    Zn2   S    
C30   H17   S    
N1    Zn1   S    
C75   H60   S    
C71   H40   S    
C51   C60   A    
C33   C42   A    
C7    H34   S    
C3    C4    A    
C17   H67   S    
C25   C45   S    
C32   C53   A    
C55   C61   A    
O4    Zn2   S    
C19   C44   A    
C26   C42   A    
C47   C55   A    
C54   C58   A    
C36   H2    S    
C24   C49   A    
C80   H64   S    
C56   O13   A    
C1    C20   S    
C33   C57   A    
C64   H25   S    
O10   Zn2   S    
C78   O15   A    
C40   H6    S    
C80   C81   S    
C35   H13   S    
C19   C34   S    
C26   C56   S    
C6    C10   A    
C23   O10   A    
C84   H69   S    
C45   O12   A    
C15   H45   S    
C6    N1    A    
C28   C58   A    
C27   C36   A    
C6    H1    S    
C27   H14   S    
C85   H82   S    
C19   C36   A    
C41   H5    S    
C25   C52   A    
C14   C88   A    
C14   N2    A    
O8    Zn4   S    
C50   C75   S    
C68   H32   S    
C79   H66   S    
O13   Zn4   S    
C87   H77   S    
C73   H49   S    
C28   C37   A    
C69   H44   S    
C81   H61   S    
C12   O9    A    
C74   H46   S    
C44   C65   S    
C24   C40   A    
C32   H10   S    
C30   C39   A    
C78   O8    A    
C31   H9    S    
C31   C54   A    
C69   C70   S    
O15   Zn3   S    
C47   C72   S    
C62   H28   S    
C79   C80   S    
C1    O16   A    
C49   C79   S    
C72   H52   S    
C77   H53   S    
C65   C66   S    
C82   H75   S    
C11   H20   S    
C66   H35   S    
C27   C59   A    
O6    Zn3   S    
C12   O2    A    
C26   C51   A    
C2    C9    A    
O11   Zn1   S    
C3    C16   A    
C17   N3    A    
C65   H37   S    
C21   C47   A    
