data_mof_unit_13158.cif
_audit_creation_date              2012-12-10T19:00:46-0500
_audit_creation_method            fapswitch 2.2
_symmetry_space_group_name_H-M    P1
_symmetry_Int_Tables_number       1
_space_group_crystal_system       triclinic
_cell_length_a                    15.07459
_cell_length_b                    10.821674
_cell_length_c                    9.555433
_cell_angle_alpha                 89.56252
_cell_angle_beta                  90.236082
_cell_angle_gamma                 90.377009
_cell_volume                      1558.70765398

loop_
_atom_site_label
_atom_site_type_symbol
_atom_type_description
_atom_site_fract_x
_atom_site_fract_y
_atom_site_fract_z
_atom_type_partial_charge
C1    C     C_R   0.504866 0.262572 0.500398 0.846311
C2    C     C_R   0.906702 0.529202 0.376184 0.081153
C3    C     C_R   0.954489 0.427695 0.742092 -0.219059
C4    C     C_R   0.046936 0.428587 0.741923 -0.209439
C5    C     C_R   0.093325 0.463055 0.620779 0.120503
C6    C     C_R   0.046658 0.496192 0.497772 0.012485
C7    C     C_R   0.092910 0.529920 0.374584 0.105902
C8    C     C_R   0.045396 0.563008 0.252589 0.143555
C9    C     C_R   0.952577 0.562428 0.254403 -0.268297
C10   C     C_R   0.185695 0.464840 0.620701 -0.222155
C11   C     C_R   0.231898 0.498162 0.499126 -0.093862
C12   C     C_R   0.328697 0.499423 0.499769 0.837416
C13   C     C_R   0.185648 0.529950 0.376670 -0.217106
C14   C     C_R   0.500013 0.062609 0.624500 0.063483
C15   C     C_R   0.517933 0.129685 0.502162 -0.177176
C16   C     C_R   0.548246 0.064156 0.383258 0.369792
C17   C     C_R   0.540978 0.935349 0.382440 -0.199667
C18   C     C_R   0.510513 0.870790 0.500867 -0.150130
C19   C     C_R   0.497599 0.935662 0.624291 0.031770
C20   C     C_3   0.423142 0.929242 0.726750 -0.466168
C21   C     C_3   0.425869 0.069879 0.727700 0.225819
C22   C     C_R   0.526606 0.602601 0.073125 0.218039
C23   C     C_R   0.501213 0.737677 0.499768 0.823435
C24   C     C_R   0.463527 0.404984 0.074879 -0.055410
C25   C     C_R   0.463107 0.405341 0.926123 -0.088316
C26   C     C_R   0.527964 0.601760 0.926020 0.237844
C27   C     C_3   0.617026 0.664184 0.923399 -0.073562
C28   C     C_3   0.614087 0.666836 0.082513 -0.550418
C29   C     C_R   0.671362 0.498921 0.500145 0.797713
C30   C     C_R   0.814361 0.529600 0.377882 -0.231009
C31   C     C_R   0.768256 0.496752 0.499827 -0.063785
C32   C     C_R   0.814962 0.461136 0.620505 -0.241008
C33   C     C_R   0.907463 0.461286 0.621041 0.116751
C34   C     C_R   0.953628 0.495600 0.498301 0.062605
Cu1   Cu    Cu3+1 0.500000 0.499980 0.640670 0.966849
Cu2   Cu    Cu3+1 0.500000 0.500020 0.359330 0.951871
H1    H     H_    0.778578 0.556568 0.284354 0.142736
H2    H     H_    0.558757 0.886513 0.288855 0.167264
H3    H     H_    0.361477 0.889240 0.680849 0.214010
H4    H     H_    0.444183 0.887253 0.828011 0.157364
H5    H     H_    0.446416 0.110663 0.829461 0.093099
H6    H     H_    0.435227 0.326970 0.130606 0.162559
H7    H     H_    0.433960 0.328255 0.871108 0.147214
H8    H     H_    0.615641 0.756952 0.872524 0.163141
H9    H     H_    0.665242 0.609800 0.135252 0.209855
H10   H     H_    0.779495 0.431867 0.713414 0.163018
H11   H     H_    0.608481 0.761981 0.122861 0.180117
H12   H     H_    0.919790 0.401141 0.836892 0.141019
H13   H     H_    0.082220 0.402168 0.836404 0.139899
H14   H     H_    0.221599 0.439217 0.715033 0.157760
H15   H     H_    0.222267 0.555960 0.283556 0.190514
H16   H     H_    0.916462 0.588149 0.160318 0.142783
N1    N     N_R   0.500570 0.500930 0.147930 -0.183874
N2    N     N_R   0.500570 0.500890 0.852020 -0.181942
O1    O     O_R   0.500000 0.319640 0.618810 -0.578105
O2    O     O_R   0.500010 0.319680 0.381230 -0.579690
O3    O     O_R   0.370250 0.499950 0.618800 -0.580858
O4    O     O_R   0.370260 0.499990 0.381220 -0.585380
O5    O     O_R   0.499990 0.680320 0.618770 -0.578231
O6    O     O_R   0.500000 0.680360 0.381190 -0.586058
O7    O     O_R   0.629740 0.500010 0.618780 -0.550670
O8    O     O_R   0.629750 0.500050 0.381200 -0.598882
O9    O     O_3   0.349557 0.122295 0.668345 -0.710228
H17   H     H_    0.305158 0.124507 0.744598 0.320133
N3    N     N_3   0.687756 0.585393 0.870919 -0.534265
H18   H     H_    0.748426 0.628395 0.893370 0.214161
H19   H     H_    0.687238 0.500084 0.923391 0.224960
N4    N     N_3   0.091022 0.597568 0.126802 -0.610955
H20   H     H_    0.070300 0.537946 0.047404 0.218094
H21   H     H_    0.071397 0.686926 0.098820 0.226626
O10   O     O_3   0.582617 0.121250 0.265819 -0.731925
H22   H     H_    0.616307 0.195195 0.296469 0.328003

loop_
_geom_bond_atom_site_label_1
_geom_bond_atom_site_label_2
_ccdc_geom_bond_type
C8    C9    A    
C28   H11   S    
C24   H6    S    
C19   C20   S    
C25   H7    S    
C7    C8    A    
C23   O5    A    
C9    H16   S    
C26   C27   S    
C27   N3    S    
C14   C21   S    
C1    O2    A    
Cu2   O4    S    
C5    C6    A    
C20   H4    S    
C3    C33   A    
C15   C16   A    
C3    H12   S    
Cu1   O5    S    
C18   C19   A    
Cu2   N1    S    
C13   H15   S    
C27   H8    S    
Cu1   Cu2   S    
C16   C17   A    
N3    H19   S    
C1    C15   S    
C12   O4    A    
C2    C34   A    
C22   C28   S    
Cu1   N2    S    
C16   O10   S    
Cu2   O8    S    
C26   N2    A    
C17   C18   A    
C22   N1    A    
C23   O6    A    
C29   O7    A    
C28   H9    S    
Cu1   O1    S    
C18   C23   S    
C25   N2    A    
C20   H3    S    
N4    H20   S    
C24   N1    A    
C6    C34   A    
C30   H1    S    
Cu2   O2    S    
C31   C32   A    
C33   C34   A    
Cu1   O7    S    
C24   C25   A    
C21   H5    S    
C12   O3    A    
C8    N4    S    
C3    C4    A    
C10   H14   S    
C29   O8    A    
C32   H10   S    
C14   C19   A    
C4    C5    A    
Cu2   O6    S    
C11   C12   S    
C6    C7    A    
C2    C30   A    
C4    H13   S    
Cu1   O3    S    
C32   C33   A    
C1    O1    A    
C5    C10   A    
C29   C31   S    
C11   C13   A    
C30   C31   A    
C17   H2    S    
C21   O9    S    
C10   C11   A    
O9    H17   S    
C7    C13   A    
O10   H22   S    
C20   C21   S    
N4    H21   S    
N3    H18   S    
C22   C26   A    
C27   C28   S    
C14   C15   A    
C2    C9    A    
