data_mof_unit_31085.cif
_audit_creation_date              2012-12-10T18:06:50-0500
_audit_creation_method            fapswitch 2.2
_symmetry_space_group_name_H-M    P1
_symmetry_Int_Tables_number       1
_space_group_crystal_system       triclinic
_cell_length_a                    12.615153
_cell_length_b                    13.166133
_cell_length_c                    15.505368
_cell_angle_alpha                 83.424301
_cell_angle_beta                  98.819177
_cell_angle_gamma                 96.638234
_cell_volume                      2515.50002147

loop_
_atom_site_label
_atom_site_type_symbol
_atom_type_description
_atom_site_fract_x
_atom_site_fract_y
_atom_site_fract_z
_atom_type_partial_charge
C1    C     C_R   0.444895 0.308253 0.512969 0.866966
C2    C     C_R   0.681446 0.545119 0.927893 -0.011399
C3    C     C_R   0.569749 0.539880 0.896102 -0.044766
C4    C     C_R   0.436010 0.515066 0.336070 0.927010
C5    C     C_R   0.754909 0.527441 0.873447 -0.263957
C6    C     C_R   0.718454 0.504939 0.787633 0.567991
C7    C     C_R   0.533837 0.504142 0.814059 0.489488
C8    C     C_R   0.729139 0.926134 0.562302 -0.120831
C9    C     C_R   0.595296 0.798197 0.500410 -0.032801
C10   C     C_R   0.301598 0.164710 0.500627 -0.160431
C11   C     C_R   0.269515 0.061221 0.494122 -0.131852
C12   C     C_R   0.453907 0.567121 0.096166 0.009264
C13   C     C_R   0.346652 0.991910 0.503668 -0.157971
C14   C     C_R   0.457901 0.025108 0.523967 0.090580
C15   C     C_R   0.488093 0.126871 0.544099 0.000570
C16   C     C_R   0.557048 0.691296 0.491790 0.832739
C17   C     C_R   0.540187 0.960719 0.524877 0.004498
C18   C     C_R   0.648487 0.992143 0.559423 0.019079
C19   C     C_R   0.673689 0.088074 0.591511 0.606326
C20   C     C_R   0.594380 0.154605 0.583983 -0.252773
C21   C     C_R   0.517642 0.866514 0.490266 -0.199960
C22   C     C_R   0.702195 0.828487 0.534200 -0.223409
C23   C     C_R   0.345585 0.582329 0.061213 0.025289
C24   C     C_R   0.411040 0.198474 0.522873 -0.059778
C25   C     C_R   0.138540 0.643157 0.621262 -0.294238
C26   C     C_R   0.760352 0.378621 0.396735 0.529440
C27   C     C_R   0.856533 0.353864 0.376153 -0.247484
C28   C     C_R   0.564969 0.487884 0.664038 0.927042
C29   C     C_R   0.952695 0.400231 0.415415 -0.246600
C30   C     C_R   0.953330 0.472524 0.476092 0.025409
C31   C     C_R   0.853342 0.495814 0.495414 0.152163
C32   C     C_R   0.049183 0.522053 0.518225 0.013133
C33   C     C_R   0.044080 0.593987 0.578858 0.166916
C34   C     C_R   0.532210 0.569095 0.039698 0.094134
C35   C     C_R   0.944909 0.615835 0.596538 -0.215338
C36   C     C_R   0.850876 0.567146 0.555280 -0.090411
C37   C     C_R   0.150902 0.502950 0.502636 -0.034458
C38   C     C_R   0.236702 0.620568 0.602964 0.056464
C39   C     C_R   0.401955 0.536894 0.242001 -0.150062
C40   C     C_R   0.607171 0.494984 0.756973 -0.316715
C41   C     C_R   0.267924 0.579863 0.117699 0.640830
C42   C     C_R   0.296305 0.557538 0.207855 -0.279425
C43   C     C_R   0.479370 0.542181 0.186161 -0.224120
C44   C     C_R   0.496832 0.564570 0.949377 0.122290
C45   C     C_R   0.390777 0.587302 0.915159 -0.148355
C46   C     C_R   0.316669 0.597614 0.970512 -0.182279
C47   C     C_R   0.644190 0.574582 0.070305 -0.197445
C48   C     C_R   0.717855 0.565738 0.014188 -0.125664
Cl1   Cl    Cl    0.641724 0.316469 0.343679 -0.592587
F1    F     F_    0.775435 0.118642 0.628437 -0.650815
F2    F     F_    0.428408 0.469333 0.792117 -0.648086
F3    F     F_    0.792088 0.492190 0.735650 -0.646897
F4    F     F_    0.164354 0.596579 0.085687 -0.672825
H1    H     H_    0.235564 0.613295 0.942020 0.205899
H2    H     H_    0.311136 0.657609 0.634820 0.137720
H3    H     H_    0.939904 0.670451 0.642710 0.162042
H4    H     H_    0.136410 0.698135 0.667772 0.150505
H5    H     H_    0.163818 0.450399 0.457972 0.123028
H6    H     H_    0.024432 0.377472 0.396583 0.156190
H7    H     H_    0.856877 0.298544 0.329601 0.189470
H8    H     H_    0.777263 0.586160 0.572065 0.217471
H9    H     H_    0.803159 0.571148 0.039332 0.168525
H10   H     H_    0.235534 0.555207 0.250574 0.186112
H11   H     H_    0.558940 0.522211 0.213487 0.196246
H12   H     H_    0.840640 0.532391 0.896937 0.197773
H13   H     H_    0.364652 0.600357 0.845451 0.200941
H14   H     H_    0.677067 0.589415 0.136682 0.147012
H15   H     H_    0.763406 0.775595 0.542608 0.147043
H16   H     H_    0.811977 0.948335 0.589046 0.191847
H17   H     H_    0.438595 0.842659 0.457138 0.148344
H18   H     H_    0.241074 0.218634 0.485887 0.156738
H19   H     H_    0.316788 0.912630 0.497049 0.128532
H20   H     H_    0.184898 0.035164 0.478104 0.150443
H21   H     H_    0.616911 0.227541 0.610937 0.199329
N1    N     N_R   0.239390 0.551900 0.544730 -0.105102
N2    N     N_R   0.759950 0.448600 0.455730 -0.165415
O1    O     O_R   0.374950 0.371210 0.521360 -0.616825
O2    O     O_R   0.542050 0.338030 0.492790 -0.562277
O3    O     O_R   0.368720 0.526070 0.390200 -0.631397
O4    O     O_R   0.535820 0.492890 0.361630 -0.573466
O5    O     O_R   0.457950 0.661970 0.507210 -0.628343
O6    O     O_R   0.625050 0.628790 0.478640 -0.650499
O7    O     O_R   0.464180 0.507110 0.638370 -0.551510
O8    O     O_R   0.631280 0.473930 0.609800 -0.591776
Zn1   Zn    Zn3+2 0.388420 0.522150 0.519080 0.972081
Zn2   Zn    Zn3+2 0.611580 0.477850 0.480920 0.999430

loop_
_geom_bond_atom_site_label_1
_geom_bond_atom_site_label_2
_ccdc_geom_bond_type
C28   O8    A    
C1    O1    A    
C41   C42   A    
C19   C20   A    
C45   C46   A    
C12   C23   A    
C26   C27   A    
C9    C16   S    
O8    Zn2   S    
C4    O4    A    
C12   C43   A    
C3    C7    A    
C27   H7    S    
C30   C31   A    
C9    C22   A    
C27   C29   A    
C28   C40   S    
C18   C19   A    
O4    Zn2   S    
N1    Zn1   S    
C38   H2    S    
C29   H6    S    
C26   N2    A    
C7    C40   A    
C37   H5    S    
C10   H18   S    
O2    Zn2   S    
C37   N1    A    
O1    Zn1   S    
C23   C46   A    
C13   C14   A    
C28   O7    A    
C1    O2    A    
C14   C17   A    
C25   H4    S    
C47   H14   S    
C43   H11   S    
C39   C42   A    
C38   N1    A    
C15   C20   A    
C3    C44   A    
C34   C44   A    
C4    O3    A    
C5    H12   S    
C11   H20   S    
C26   Cl1   S    
C39   C43   A    
C2    C48   A    
O6    Zn2   S    
C8    C22   A    
C8    C18   A    
C35   C36   A    
C29   C30   A    
C25   C38   A    
C48   H9    S    
C47   C48   A    
C4    C39   S    
C22   H15   S    
C46   H1    S    
C16   O6    A    
C17   C18   A    
C8    H16   S    
C20   H21   S    
C32   C37   A    
C41   F4    S    
C15   C24   A    
O7    Zn1   S    
C6    C40   A    
C2    C5    A    
C12   C34   A    
C36   H8    S    
N2    Zn2   S    
O3    Zn1   S    
C44   C45   A    
C35   H3    S    
C31   C36   A    
C13   H19   S    
C23   C41   A    
C21   H17   S    
C10   C24   A    
C32   C33   A    
C2    C3    A    
C7    F2    S    
C30   C32   A    
C11   C13   A    
C19   F1    S    
C9    C21   A    
C31   N2    A    
C5    C6    A    
C16   O5    A    
C33   C35   A    
C17   C21   A    
C10   C11   A    
C1    C24   S    
C45   H13   S    
C14   C15   A    
C34   C47   A    
C6    F3    S    
C42   H10   S    
O5    Zn1   S    
C25   C33   A    
