data_mof_unit_28263.cif
_audit_creation_date              2012-10-26T21:10:26-0400
_audit_creation_method            fapswitch 2.2
_symmetry_space_group_name_H-M    P1
_symmetry_Int_Tables_number       1
_space_group_crystal_system       triclinic
_cell_length_a                    10.898437
_cell_length_b                    10.93054
_cell_length_c                    9.741552
_cell_angle_alpha                 90.363999
_cell_angle_beta                  91.199935
_cell_angle_gamma                 90.250666
_cell_volume                      1160.18050018

loop_
_atom_site_label
_atom_site_type_symbol
_atom_type_description
_atom_site_fract_x
_atom_site_fract_y
_atom_site_fract_z
_atom_type_partial_charge
C1    C     C_R   0.501475 0.265542 0.499793 0.551647
C2    C     C_R   0.821997 0.514644 0.983367 -0.128150
C3    C     C_R   0.789962 0.394368 0.015665 -0.117741
C4    C     C_R   0.262268 0.501165 0.498348 0.543447
C5    C     C_R   0.805843 0.300598 0.919496 -0.112083
C6    C     C_R   0.854603 0.326782 0.791252 -0.076205
C7    C     C_R   0.887473 0.447270 0.758848 0.058824
C8    C     C_2   0.499921 0.932350 0.387544 -0.163283
C9    C     C_2   0.492013 0.866569 0.502791 -0.121676
C10   C     C_2   0.494618 0.066344 0.387098 -0.165562
C11   C     C_2   0.507670 0.133574 0.501907 -0.119653
C12   C     C_R   0.178615 0.597823 0.971276 -0.065290
C13   C     C_2   0.440858 0.420631 0.922689 0.015728
C14   C     C_2   0.428933 0.429871 0.076351 0.022298
C15   C     C_R   0.498356 0.734499 0.500354 0.551747
C16   C     C_R   0.737548 0.498851 0.501710 0.545873
C17   C     C_R   0.181784 0.691090 0.070264 -0.069369
C18   C     C_R   0.147209 0.666596 0.204756 -0.071786
C19   C     C_R   0.109082 0.548431 0.240146 0.056963
C20   C     C_R   0.106436 0.455213 0.140761 -0.092414
C21   C     C_R   0.141929 0.479710 0.007102 -0.125311
C22   C     C_2   0.525006 0.619668 0.895160 0.385279
C23   C     C_R   0.930497 0.523019 0.381884 -0.155377
C24   C     C_R   0.871417 0.498629 0.504615 -0.003463
C25   C     C_R   0.941694 0.475084 0.624988 -0.035311
C26   C     C_R   0.068737 0.476557 0.618557 -0.158928
C27   C     C_R   0.128066 0.501668 0.495856 -0.005255
C28   C     C_R   0.057363 0.524734 0.375696 -0.033823
C29   C     C_R   0.870922 0.541167 0.855446 -0.077096
Cu1   Cu    Cu3+1 0.500020 0.500020 0.638630 0.951974
Cu2   Cu    Cu3+1 0.499980 0.499980 0.361370 0.946040
H1    H     H_    0.205565 0.616964 0.867305 0.147931
H2    H     H_    0.359977 0.373936 0.124669 0.125494
H3    H     H_    0.210368 0.782445 0.042554 0.126450
H4    H     H_    0.578183 0.531411 0.112356 0.217040
H5    H     H_    0.147533 0.739777 0.280251 0.099305
H6    H     H_    0.075351 0.364083 0.166493 0.105887
H7    H     H_    0.140985 0.406444 0.932202 0.095850
H8    H     H_    0.877686 0.541900 0.289070 0.132805
H9    H     H_    0.121694 0.455736 0.710096 0.124901
H10   H     H_    0.896206 0.634491 0.831725 0.098727
H11   H     H_    0.809054 0.587460 0.057293 0.093267
H12   H     H_    0.752748 0.373819 0.115083 0.123924
H13   H     H_    0.610474 0.663098 0.867200 0.095345
H14   H     H_    0.780671 0.207601 0.944472 0.101745
H15   H     H_    0.867084 0.253534 0.717530 0.097173
H16   H     H_    0.508822 0.887077 0.288664 0.164778
H17   H     H_    0.477930 0.908071 0.602286 0.106218
H18   H     H_    0.481425 0.110337 0.288213 0.144805
H19   H     H_    0.525519 0.093215 0.601397 0.099491
H20   H     H_    0.398312 0.341860 0.872643 0.103585
N1    N     N_2   0.498640 0.498660 0.846910 -0.247108
N2    N     N_2   0.498610 0.498630 0.153040 -0.317644
O1    O     O_R   0.500020 0.321960 0.617040 -0.508968
O2    O     O_R   0.499980 0.321920 0.382900 -0.505744
O3    O     O_R   0.319660 0.500030 0.617070 -0.514862
O4    O     O_R   0.319620 0.499990 0.382930 -0.483433
O5    O     O_R   0.500020 0.678080 0.617100 -0.509698
O6    O     O_R   0.499980 0.678040 0.382960 -0.480475
O7    O     O_R   0.680380 0.500010 0.617070 -0.498931
O8    O     O_R   0.680340 0.499970 0.382930 -0.525483
O9    O     O_2   0.449456 0.678946 0.957876 -0.544421

loop_
_geom_bond_atom_site_label_1
_geom_bond_atom_site_label_2
_ccdc_geom_bond_type
C4    O4    A    
C12   C17   A    
C16   O8    A    
C23   C24   A    
C18   H5    S    
C24   C25   A    
C6    C7    A    
C7    C29   A    
H4    N2    S    
C13   N1    D    
Cu2   O8    S    
C19   C20   A    
C1    C11   S    
C1    O1    A    
C26   H9    S    
Cu2   O4    S    
C14   H2    S    
C17   C18   A    
C1    O2    A    
C8    H16   S    
C29   H10   S    
C16   C24   S    
C11   H19   S    
C13   H20   S    
C13   C14   S    
C4    O3    A    
C20   H6    S    
Cu1   O1    S    
C3    H12   S    
C26   C27   A    
Cu1   Cu2   S    
Cu1   O3    S    
C2    H11   S    
C2    C29   A    
C23   H8    S    
Cu1   O5    S    
C8    C10   S    
C2    C3    A    
C10   C11   D    
C12   H1    S    
C19   C28   S    
C5    C6    A    
C15   O5    A    
Cu2   N2    S    
C22   O9    D    
C17   H3    S    
C14   N2    D    
C20   C21   A    
C9    H17   S    
C22   N1    S    
C18   C19   A    
C16   O7    A    
Cu2   O6    S    
C27   C28   A    
Cu1   N1    S    
C15   O6    A    
C4    C27   S    
C6    H15   S    
Cu2   O2    S    
C25   C26   A    
C23   C28   A    
C10   H18   S    
C5    H14   S    
C12   C21   A    
C22   H13   S    
C21   H7    S    
C9    C15   S    
Cu1   O7    S    
C8    C9    D    
C3    C5    A    
C7    C25   S    
