data_mof_unit_38850.cif
_audit_creation_date              2012-12-10T20:37:27-0500
_audit_creation_method            fapswitch 2.2
_symmetry_space_group_name_H-M    P1
_symmetry_Int_Tables_number       1
_space_group_crystal_system       triclinic
_cell_length_a                    15.719777
_cell_length_b                    10.6791
_cell_length_c                    9.860812
_cell_angle_alpha                 90.046972
_cell_angle_beta                  90.063242
_cell_angle_gamma                 89.872574
_cell_volume                      1655.35913344

loop_
_atom_site_label
_atom_site_type_symbol
_atom_type_description
_atom_site_fract_x
_atom_site_fract_y
_atom_site_fract_z
_atom_type_partial_charge
C1    C     C_R   0.502191 0.260074 0.500044 0.892120
C2    C     C_3   0.083251 0.506867 0.500314 -0.018234
C3    C     C_3   0.972665 0.600448 0.418740 -0.060603
C4    C     C_3   0.916937 0.508426 0.499569 -0.011826
C5    C     C_3   0.027798 0.488911 0.373315 0.380362
C6    C     C_3   0.972808 0.396861 0.454381 0.365578
C7    C     C_1   0.173998 0.504357 0.500229 0.063847
C8    C     C_1   0.826108 0.505507 0.500181 0.096074
C9    C     C_R   0.505936 0.063753 0.623055 0.130268
C10   C     C_R   0.513572 0.128588 0.501238 -0.064177
C11   C     C_R   0.535755 0.064627 0.382120 -0.206852
C12   C     C_R   0.337967 0.500094 0.499942 0.915280
C13   C     C_R   0.535740 0.935077 0.382140 -0.190798
C14   C     C_R   0.513961 0.871393 0.501463 -0.079343
C15   C     C_R   0.507080 0.936210 0.623391 0.074551
C16   C     C_3   0.441972 0.927352 0.733624 -0.407987
C17   C     C_3   0.440651 0.070003 0.734070 -0.256859
C18   C     C_R   0.448441 0.578539 0.071238 0.121836
C19   C     C_R   0.555982 0.426759 0.072345 -0.242604
C20   C     C_R   0.557365 0.427968 0.927195 0.537402
C21   C     C_R   0.448066 0.578041 0.928740 0.079887
C22   C     C_3   0.353231 0.580841 0.923160 0.352047
C23   C     C_R   0.502075 0.739987 0.500104 0.882529
C24   C     C_3   0.353723 0.582889 0.077537 -0.529541
C25   C     C_R   0.662071 0.500099 0.500107 0.897045
C26   C     C_3   0.971626 0.528217 0.628266 -0.308485
C27   C     C_3   0.027092 0.416739 0.581602 0.470564
C28   C     C_1   0.249201 0.502087 0.499937 -0.173000
C29   C     C_1   0.750887 0.502691 0.500305 -0.159997
C30   C     C_3   0.028959 0.619568 0.546073 -0.327907
H1    H     H_    0.469096 0.886937 0.828156 0.203261
H2    H     H_    0.466846 0.111249 0.828893 0.149247
H3    H     H_    0.598184 0.365557 0.128234 0.163882
H4    H     H_    0.326475 0.493918 0.877042 0.090471
H5    H     H_    0.330367 0.672144 0.122321 0.225134
H6    H     H_    0.325881 0.496911 0.122710 0.193904
H7    H     H_    0.946118 0.545350 0.731577 0.159452
H8    H     H_    0.054764 0.710087 0.583074 0.174819
H9    H     H_    0.547889 0.113714 0.288011 0.168256
H10   H     H_    0.547641 0.885788 0.287953 0.174968
H11   H     H_    0.382111 0.882246 0.698554 0.250782
N1    N     N_R   0.499430 0.499140 0.142800 -0.119368
N2    N     N_R   0.499430 0.499180 0.857150 -0.181252
O1    O     O_R   0.500010 0.316790 0.614690 -0.598154
O2    O     O_R   0.500000 0.316760 0.385350 -0.626045
O3    O     O_R   0.376780 0.500010 0.614650 -0.621490
O4    O     O_R   0.376770 0.499970 0.385310 -0.606585
O5    O     O_R   0.500000 0.683240 0.614650 -0.606718
O6    O     O_R   0.499990 0.683210 0.385310 -0.617775
O7    O     O_R   0.623230 0.500030 0.614690 -0.585611
O8    O     O_R   0.623220 0.499990 0.385350 -0.609884
Zn1   Zn    Zn3+2 0.500010 0.500020 0.653130 0.996884
Zn2   Zn    Zn3+2 0.499990 0.499980 0.346870 0.966279
O9    O     O_3   0.062898 0.322856 0.664663 -0.602512
C31   C     C_3   0.998553 0.269131 0.744960 -0.319699
H12   H     H_    0.944622 0.234154 0.682424 0.189640
H13   H     H_    0.975292 0.336790 0.822211 0.147183
H14   H     H_    0.025813 0.187788 0.799885 0.195042
C32   C     C_2   0.356462 0.126395 0.692301 0.454090
H15   H     H_    0.328476 0.199914 0.753877 0.062661
O10   O     O_2   0.319529 0.091357 0.590044 -0.569307
O11   O     O_3   0.610692 0.349199 0.854892 -0.578213
C33   C     C_3   0.696349 0.373917 0.888378 -0.303492
H16   H     H_    0.710586 0.476136 0.888948 0.159129
H17   H     H_    0.713516 0.330887 0.987210 0.152986
H18   H     H_    0.737545 0.330418 0.810031 0.189430
O12   O     O_3   0.324371 0.694492 0.866184 -0.588611
C34   C     C_3   0.235491 0.688815 0.848287 -0.297042
H19   H     H_    0.202245 0.673165 0.946393 0.174456
H20   H     H_    0.217866 0.614768 0.774123 0.173561
H21   H     H_    0.213240 0.779729 0.806877 0.190433
O13   O     O_3   0.935771 0.284240 0.408293 -0.623311
C35   C     C_3   0.000158 0.196846 0.377317 -0.275913
H22   H     H_    0.035622 0.168102 0.469608 0.206479
H23   H     H_    0.044764 0.232924 0.299381 0.198222
H24   H     H_    0.969871 0.111619 0.334972 0.186245
O14   O     O_3   0.065622 0.468636 0.245295 -0.609320
C36   C     C_3   0.002367 0.463378 0.144105 -0.326499
H25   H     H_    0.979023 0.558695 0.119081 0.168331
H26   H     H_    0.948278 0.401688 0.172246 0.195354
H27   H     H_    0.031223 0.424094 0.050680 0.189610
C37   C     C_2   0.942870 0.706832 0.331782 0.408022
H28   H     H_    0.989214 0.766390 0.282369 0.059372
O15   O     O_2   0.867099 0.727069 0.315987 -0.571959

loop_
_geom_bond_atom_site_label_1
_geom_bond_atom_site_label_2
_ccdc_geom_bond_type
C31   H12   S    
C33   H17   S    
C18   C21   A    
C35   H22   S    
C19   C20   A    
C4    C8    S    
C27   O9    S    
O14   C36   S    
C16   H1    S    
C6    O13   S    
C26   C27   S    
C24   H6    S    
C12   C28   S    
C18   C24   S    
C8    C29   T    
C18   N1    A    
N1    Zn2   S    
C5    C6    S    
C36   H26   S    
N2    Zn1   S    
C23   O6    A    
C15   C16   S    
O3    Zn1   S    
C30   H8    S    
C25   O7    A    
C13   H10   S    
C21   N2    A    
C2    C7    S    
C16   C17   S    
O7    Zn1   S    
C2    C27   S    
C9    C10   A    
C19   N1    A    
O4    Zn2   S    
O1    Zn1   S    
C33   H18   S    
O2    Zn2   S    
C32   H15   S    
C13   C14   A    
C35   H23   S    
C12   O4    A    
C25   C29   S    
C22   H4    S    
C32   O10   D    
C24   H5    S    
O12   C34   S    
C4    C6    S    
C19   H3    S    
C36   H25   S    
C34   H19   S    
C7    C28   T    
O8    Zn2   S    
C14   C23   S    
C3    C30   S    
C25   O8    A    
O11   C33   S    
C1    O1    A    
C6    C27   S    
C3    C37   S    
C11   H9    S    
C17   C32   S    
C12   O3    A    
C26   C30   S    
C37   O15   D    
C31   H13   S    
C35   H24   S    
C22   C24   S    
C2    C5    S    
C5    O14   S    
C3    C4    S    
C20   N2    A    
C9    C17   S    
O9    C31   S    
C23   O5    A    
C1    C10   S    
O13   C35   S    
C3    C5    S    
C4    C26   S    
C26   H7    S    
C2    C30   S    
C9    C15   A    
C11   C13   A    
C36   H27   S    
C1    O2    A    
C34   H21   S    
O6    Zn2   S    
C20   O11   S    
C22   O12   S    
C10   C11   A    
C33   H16   S    
O5    Zn1   S    
C34   H20   S    
C37   H28   S    
C31   H14   S    
C17   H2    S    
C14   C15   A    
C21   C22   S    
C16   H11   S    
