data_mof_unit_47257.cif
_audit_creation_date              2012-12-11T15:08:51-0500
_audit_creation_method            fapswitch 2.2
_symmetry_space_group_name_H-M    P1
_symmetry_Int_Tables_number       1
_space_group_crystal_system       triclinic
_cell_length_a                    19.375693
_cell_length_b                    11.263543
_cell_length_c                    18.709016
_cell_angle_alpha                 90.016587
_cell_angle_beta                  90.190691
_cell_angle_gamma                 89.999825
_cell_volume                      4083.01324634

loop_
_atom_site_label
_atom_site_type_symbol
_atom_type_description
_atom_site_fract_x
_atom_site_fract_y
_atom_site_fract_z
_atom_type_partial_charge
C1    C     C_R   0.272726 0.042963 0.854443 0.532622
C2    C     C_3   0.690351 0.516384 0.958916 -0.232981
C3    C     C_R   0.226935 0.543392 0.354262 0.538307
C4    C     C_R   0.468743 0.823130 0.645337 0.543533
C5    C     C_R   0.531261 0.823146 0.354668 0.543230
C6    C     C_R   0.968743 0.323130 0.645337 0.543388
C7    C     C_R   0.031261 0.323146 0.354668 0.543220
C8    C     C_R   0.260969 0.640154 0.643508 0.540496
C9    C     C_R   0.739031 0.640166 0.356491 0.539608
C10   C     C_R   0.760969 0.140155 0.643507 0.540968
C11   C     C_R   0.239032 0.140166 0.356491 0.540500
C12   C     C_3   0.473699 0.911428 0.038520 -0.109420
C13   C     C_3   0.816940 0.040669 0.046352 -0.235905
C14   C     C_3   0.512337 0.923400 0.966538 -0.113870
C15   C     C_3   0.978813 0.415057 0.036294 -0.108943
C16   C     C_3   0.019110 0.416937 0.964754 -0.108559
C17   C     C_3   0.430240 0.808401 0.007273 -0.158628
C18   C     C_3   0.566517 0.832474 0.991814 -0.164119
C19   C     C_3   0.931097 0.316139 0.007020 -0.160271
C20   C     C_3   0.068346 0.319585 0.993177 -0.158890
C21   C     C_3   0.469401 0.821287 0.936313 0.054332
C22   C     C_3   0.527729 0.821356 0.063372 0.058739
C23   C     C_3   0.971368 0.319717 0.936252 0.056124
C24   C     C_3   0.188121 0.028154 0.956210 -0.235258
C25   C     C_3   0.028129 0.319480 0.063893 0.056562
C26   C     C_3   0.320934 0.551392 0.963212 -0.235203
C27   C     C_3   0.685887 0.524572 0.041203 -0.240878
C28   C     C_3   0.824754 0.060711 0.965036 -0.232229
C29   C     C_3   0.178573 0.052739 0.036540 -0.234807
C30   C     C_3   0.179464 0.523167 0.026021 -0.207554
C31   C     C_3   0.823344 0.531292 0.973731 -0.208023
C32   C     C_3   0.686475 0.014460 0.026435 -0.211326
C33   C     C_R   0.728531 0.045394 0.146717 0.530470
C34   C     C_3   0.320736 0.022798 0.974823 -0.208477
C35   C     C_3   0.239980 0.708007 0.056442 -0.257248
C36   C     C_3   0.752536 0.705029 0.944818 -0.254261
C37   C     C_3   0.735815 0.209083 0.056393 -0.255890
C38   C     C_3   0.259675 0.207397 0.943408 -0.256685
C39   C     C_3   0.240947 0.574820 0.070244 0.065319
C40   C     C_3   0.758685 0.572673 0.930841 0.062986
C41   C     C_3   0.743369 0.076794 0.071232 0.066004
C42   C     C_3   0.259343 0.073938 0.930051 0.065501
C43   C     C_3   0.254744 0.609321 0.932120 0.054768
C44   C     C_R   0.772509 0.542983 0.854653 0.530611
C45   C     C_3   0.745227 0.604437 0.069419 0.057793
C46   C     C_3   0.756806 0.111777 0.932996 0.054363
C47   C     C_3   0.244812 0.110207 0.067785 0.054705
C48   C     C_3   0.194363 0.524265 0.945116 -0.253756
C49   C     C_3   0.814030 0.542787 0.054749 -0.246116
C50   C     C_3   0.699982 0.020764 0.945507 -0.256737
C51   C     C_3   0.305189 0.025168 0.055483 -0.252719
C52   C     C_3   0.238330 0.725453 0.974448 -0.221997
C53   C     C_3   0.741602 0.721325 0.026103 -0.220981
C54   C     C_3   0.736180 0.226027 0.974641 -0.223864
C55   C     C_R   0.227619 0.543811 0.145923 0.531957
C56   C     C_3   0.261322 0.225921 0.025245 -0.222845
C57   C     C_3   0.503640 0.700915 0.460323 -0.227823
C58   C     C_3   0.496361 0.700898 0.539648 -0.227880
C59   C     C_3   0.003640 0.200915 0.460323 -0.227821
C60   C     C_3   0.996361 0.200898 0.539648 -0.227854
C61   C     C_R   0.442608 0.817130 0.862317 0.538972
C62   C     C_R   0.555707 0.817323 0.137335 0.539985
C63   C     C_R   0.943692 0.317029 0.862463 0.537492
C64   C     C_R   0.056072 0.316994 0.137536 0.537940
C65   C     C_3   0.564633 0.905344 0.473685 -0.216412
C66   C     C_3   0.522834 0.730490 0.961661 -0.109860
C67   C     C_3   0.435372 0.905338 0.526362 -0.216321
C68   C     C_3   0.064633 0.405344 0.473685 -0.216374
C69   C     C_3   0.935372 0.405337 0.526362 -0.216276
C70   C     C_3   0.440824 0.887538 0.444401 -0.263759
C71   C     C_3   0.559180 0.887516 0.555639 -0.263719
C72   C     C_3   0.940824 0.387538 0.444401 -0.263770
C73   C     C_3   0.059180 0.387516 0.555639 -0.263729
C74   C     C_3   0.510601 0.829284 0.430922 0.062687
C75   C     C_3   0.489402 0.829257 0.569092 0.062649
C76   C     C_3   0.010601 0.329284 0.430922 0.062673
C77   C     C_3   0.484484 0.718597 0.032972 -0.109661
C78   C     C_3   0.989402 0.329257 0.569092 0.062645
C79   C     C_3   0.179624 0.647205 0.459268 -0.228277
C80   C     C_3   0.820370 0.647183 0.540744 -0.228273
C81   C     C_3   0.679624 0.147206 0.459267 -0.228228
C82   C     C_3   0.320370 0.147183 0.540745 -0.228233
C83   C     C_3   0.184376 0.659660 0.538506 -0.227423
C84   C     C_3   0.815623 0.659653 0.461508 -0.227372
C85   C     C_3   0.684376 0.159660 0.538506 -0.227455
C86   C     C_3   0.315623 0.159653 0.461508 -0.227437
C87   C     C_3   0.252595 0.454500 0.472971 -0.214832
C88   C     C_3   0.020162 0.222899 0.964137 -0.112864
C89   C     C_3   0.747396 0.454474 0.526962 -0.214892
C90   C     C_3   0.752595 0.954500 0.472970 -0.214777
C91   C     C_3   0.247396 0.954474 0.526963 -0.214910
C92   C     C_3   0.304779 0.647990 0.442457 -0.264441
C93   C     C_3   0.695219 0.647962 0.557558 -0.264405
C94   C     C_3   0.804780 0.147990 0.442456 -0.264458
C95   C     C_3   0.195219 0.147962 0.557559 -0.264368
C96   C     C_3   0.240604 0.572538 0.429972 0.066011
C97   C     C_3   0.759394 0.572500 0.570017 0.065798
C98   C     C_3   0.740604 0.072538 0.429971 0.066206
C99   C     C_3   0.980949 0.221010 0.035200 -0.113580
C100  C     C_3   0.259394 0.072500 0.570017 0.065919
C101  C     C_3   0.252854 0.606054 0.567544 0.064744
C102  C     C_3   0.747152 0.606051 0.432447 0.064988
C103  C     C_3   0.752854 0.106054 0.567544 0.064583
C104  C     C_3   0.247152 0.106051 0.432447 0.064721
C105  C     C_3   0.247346 0.472733 0.554726 -0.264706
C106  C     C_3   0.752663 0.472729 0.445214 -0.264691
C107  C     C_3   0.747346 0.972733 0.554726 -0.264705
C108  C     C_3   0.252663 0.972729 0.445214 -0.264649
C109  C     C_R   0.261977 0.641285 0.854917 0.534459
C110  C     C_3   0.312238 0.529246 0.043902 -0.236250
C111  C     C_R   0.738649 0.638017 0.146299 0.532511
C112  C     C_R   0.762743 0.143176 0.855588 0.535606
C113  C     C_R   0.237714 0.142226 0.144847 0.535368
C114  C     C_3   0.317538 0.648530 0.524188 -0.217075
C115  C     C_3   0.682466 0.648507 0.475822 -0.216953
C116  C     C_3   0.817538 0.148530 0.524187 -0.217095
C117  C     C_3   0.182466 0.148507 0.475823 -0.217058
C118  C     C_R   0.273071 0.043357 0.645728 0.538518
C119  C     C_R   0.726935 0.043392 0.354262 0.537601
C120  C     C_R   0.773071 0.543357 0.645728 0.538758
Cr1   Cr    Cr6+3 0.229620 0.836040 0.749110 0.991840
Cr2   Cr    Cr6+3 0.613980 0.676590 0.250790 0.993376
Cr3   Cr    Cr6+3 0.886020 0.176590 0.749210 0.994032
Cr4   Cr    Cr6+3 0.113980 0.176590 0.250790 0.993535
Cr5   Cr    Cr6+3 0.770380 0.836040 0.250890 0.991605
Cr6   Cr    Cr6+3 0.729620 0.336040 0.749110 0.991775
Cr7   Cr    Cr6+3 0.270380 0.336040 0.250890 0.991853
Cr8   Cr    Cr6+3 0.387630 0.990680 0.750730 0.996409
Cr9   Cr    Cr6+3 0.612370 0.990680 0.249270 0.996858
Cr10  Cr    Cr6+3 0.887630 0.490680 0.750730 0.996772
Cr11  Cr    Cr6+3 0.112370 0.490680 0.249270 0.996302
Cr12  Cr    Cr6+3 0.386020 0.676590 0.749210 0.993539
H1    H     H_    0.375502 0.791224 0.016789 0.093500
H2    H     H_    0.708256 0.740545 0.913742 0.100440
H3    H     H_    0.193297 0.929070 0.537509 0.118749
H4    H     H_    0.289726 0.425532 0.582900 0.109188
H5    H     H_    0.710299 0.425519 0.417007 0.109044
H6    H     H_    0.789726 0.925532 0.582899 0.109269
H7    H     H_    0.210299 0.925519 0.417007 0.109181
H8    H     H_    0.319146 0.435072 0.055780 0.131253
H9    H     H_    0.682617 0.426115 0.940301 0.133147
H10   H     H_    0.830020 0.948188 0.059783 0.127632
H11   H     H_    0.181747 0.933697 0.945260 0.130620
H12   H     H_    0.354171 0.575243 0.073681 0.111839
H13   H     H_    0.777953 0.259701 0.082588 0.103116
H14   H     H_    0.646052 0.564783 0.935138 0.107581
H15   H     H_    0.855152 0.095406 0.075759 0.110130
H16   H     H_    0.146420 0.072523 0.925397 0.109542
H17   H     H_    0.366283 0.609323 0.953966 0.136914
H18   H     H_    0.634560 0.561688 0.055728 0.138872
H19   H     H_    0.868322 0.121659 0.954527 0.135808
H20   H     H_    0.133751 0.112634 0.044386 0.135762
H21   H     H_    0.331571 0.465891 0.935620 0.116256
H22   H     H_    0.689374 0.435924 0.065802 0.112642
H23   H     H_    0.837767 0.975029 0.938689 0.117630
H24   H     H_    0.213141 0.246230 0.918378 0.103515
H25   H     H_    0.166908 0.968297 0.064855 0.117337
H26   H     H_    0.681891 0.925099 0.046070 0.100713
H27   H     H_    0.336414 0.936563 0.954800 0.098983
H28   H     H_    0.164252 0.437892 0.047622 0.099740
H29   H     H_    0.836656 0.441980 0.956954 0.100903
H30   H     H_    0.716448 0.934092 0.924227 0.109665
H31   H     H_    0.292180 0.936272 0.075525 0.111588
H32   H     H_    0.207584 0.435186 0.925531 0.110744
H33   H     H_    0.815327 0.454442 0.080788 0.105950
H34   H     H_    0.437765 0.973825 0.415967 0.109701
H35   H     H_    0.273046 0.795491 0.957985 0.109545
H36   H     H_    0.562236 0.973804 0.584112 0.109872
H37   H     H_    0.937765 0.473825 0.415967 0.109660
H38   H     H_    0.062236 0.473805 0.584112 0.109789
H39   H     H_    0.688845 0.750219 0.035542 0.102400
H40   H     H_    0.770382 0.298831 0.959762 0.110614
H41   H     H_    0.226195 0.295640 0.041118 0.109345
H42   H     H_    0.184823 0.751464 0.960144 0.130640
H43   H     H_    0.778830 0.786571 0.046528 0.138534
H44   H     H_    0.682240 0.246813 0.958883 0.131911
H45   H     H_    0.618420 0.836724 0.969961 0.098068
H46   H     H_    0.314684 0.252698 0.039587 0.130566
H47   H     H_    0.635290 0.056101 0.036887 0.139807
H48   H     H_    0.367643 0.078092 0.965843 0.136109
H49   H     H_    0.132475 0.578340 0.034907 0.136770
H50   H     H_    0.869190 0.585573 0.958805 0.139234
H51   H     H_    0.147709 0.553906 0.915394 0.124530
H52   H     H_    0.857321 0.595932 0.077277 0.130785
H53   H     H_    0.651680 0.046247 0.917030 0.124871
H54   H     H_    0.351224 0.056334 0.085471 0.123059
H55   H     H_    0.546656 0.643638 0.446046 0.136111
H56   H     H_    0.876083 0.302302 0.018353 0.091309
H57   H     H_    0.453354 0.643590 0.553914 0.136052
H58   H     H_    0.046655 0.143637 0.446045 0.136111
H59   H     H_    0.953355 0.143589 0.553914 0.136045
H60   H     H_    0.458483 0.656222 0.435694 0.114557
H61   H     H_    0.541533 0.656216 0.564254 0.114536
H62   H     H_    0.958482 0.156222 0.435694 0.114521
H63   H     H_    0.041534 0.156216 0.564254 0.114536
H64   H     H_    0.616699 0.897169 0.453600 0.113340
H65   H     H_    0.383294 0.897195 0.546450 0.113331
H66   H     H_    0.116699 0.397169 0.453600 0.113333
H67   H     H_    0.123155 0.306721 0.981509 0.092752
H68   H     H_    0.883294 0.397193 0.546450 0.113312
H69   H     H_    0.601262 0.830871 0.576064 0.109642
H70   H     H_    0.398749 0.830894 0.423957 0.109622
H71   H     H_    0.101262 0.330871 0.576063 0.109622
H72   H     H_    0.898749 0.330894 0.423957 0.109544
H73   H     H_    0.456750 0.987451 0.071460 0.114468
H74   H     H_    0.523433 0.008692 0.939187 0.114833
H75   H     H_    0.963218 0.494957 0.066787 0.114624
H76   H     H_    0.033394 0.498737 0.935396 0.113181
H77   H     H_    0.449816 0.998673 0.536443 0.117889
H78   H     H_    0.194004 0.751070 0.080773 0.126918
H79   H     H_    0.550214 0.998681 0.463645 0.117824
H80   H     H_    0.949815 0.498672 0.536443 0.117882
H81   H     H_    0.050214 0.498681 0.463644 0.117828
H82   H     H_    0.129259 0.610986 0.445562 0.135227
H83   H     H_    0.870736 0.610976 0.554435 0.135173
H84   H     H_    0.629259 0.110987 0.445561 0.135253
H85   H     H_    0.370736 0.110975 0.554435 0.135204
H86   H     H_    0.179223 0.736393 0.434102 0.114183
H87   H     H_    0.820764 0.736369 0.565945 0.114265
H88   H     H_    0.679223 0.236394 0.434102 0.114117
H89   H     H_    0.799741 0.753218 0.927429 0.124972
H90   H     H_    0.320764 0.236369 0.565945 0.114229
H91   H     H_    0.177778 0.752925 0.552086 0.135107
H92   H     H_    0.822222 0.752915 0.447965 0.135081
H93   H     H_    0.677778 0.252925 0.552086 0.135075
H94   H     H_    0.322222 0.252915 0.447965 0.135035
H95   H     H_    0.139526 0.615579 0.563852 0.115240
H96   H     H_    0.860475 0.615577 0.436148 0.115172
H97   H     H_    0.639526 0.115579 0.563852 0.115283
H98   H     H_    0.360475 0.115577 0.436148 0.115207
H99   H     H_    0.722227 0.880414 0.453628 0.113910
H100  H     H_    0.686177 0.241982 0.078476 0.129441
H101  H     H_    0.277756 0.880375 0.546279 0.113827
H102  H     H_    0.222227 0.380414 0.453629 0.113856
H103  H     H_    0.777757 0.380376 0.546278 0.113788
H104  H     H_    0.698081 0.938419 0.575670 0.109367
H105  H     H_    0.301934 0.938436 0.424269 0.109281
H106  H     H_    0.198081 0.438419 0.575670 0.109298
H107  H     H_    0.801934 0.438436 0.424268 0.109158
H108  H     H_    0.349430 0.609210 0.413718 0.109950
H109  H     H_    0.650560 0.609193 0.586280 0.109967
H110  H     H_    0.849430 0.109210 0.413718 0.109853
H111  H     H_    0.305341 0.250920 0.918788 0.127148
H112  H     H_    0.150560 0.109193 0.586281 0.109969
H113  H     H_    0.296795 0.738746 0.421742 0.108492
H114  H     H_    0.703209 0.738720 0.578310 0.108545
H115  H     H_    0.796795 0.238745 0.421741 0.108363
H116  H     H_    0.203209 0.238720 0.578310 0.108502
H117  H     H_    0.542145 0.654471 0.929947 0.123674
H118  H     H_    0.473556 0.632628 0.059579 0.120433
H119  H     H_    0.035761 0.142029 0.934566 0.122681
H120  H     H_    0.967739 0.138096 0.063914 0.122825
H121  H     H_    0.339179 0.731098 0.543415 0.113252
H122  H     H_    0.286002 0.747787 0.081789 0.103128
H123  H     H_    0.660843 0.731105 0.456630 0.113276
H124  H     H_    0.839178 0.231099 0.543413 0.113215
H125  H     H_    0.160843 0.231105 0.456630 0.113239
H126  H     H_    0.357704 0.580991 0.534104 0.117853
H127  H     H_    0.642302 0.580946 0.465874 0.117867
H128  H     H_    0.857705 0.080993 0.534103 0.117848
H129  H     H_    0.142302 0.080947 0.465875 0.117858
H130  H     H_    0.306687 0.429092 0.462393 0.118807
H131  H     H_    0.693298 0.429069 0.537508 0.118747
H132  H     H_    0.806687 0.929092 0.462393 0.118815
O1    O     O_R   0.214130 0.708570 0.829890 -0.527755
O2    O     O_R   0.542830 0.717300 0.331620 -0.530438
O3    O     O_R   0.957170 0.217300 0.668380 -0.530371
O4    O     O_R   0.042830 0.217300 0.331620 -0.530489
O5    O     O_R   0.320870 0.624890 0.673130 -0.510433
O6    O     O_R   0.679130 0.624890 0.326870 -0.511046
O7    O     O_R   0.820870 0.124890 0.673130 -0.510186
O8    O     O_R   0.179130 0.124890 0.326870 -0.510430
O9    O     O_3   0.334430 0.834430 0.749680 -0.283537
O10   O     O_3   0.665570 0.834430 0.250320 -0.280275
O11   O     O_3   0.834430 0.334430 0.749680 -0.282971
O12   O     O_R   0.785870 0.708570 0.170110 -0.528868
O13   O     O_3   0.165570 0.334430 0.250320 -0.282433
O14   O     O_R   0.236050 0.959150 0.825270 -0.513912
O15   O     O_R   0.763950 0.959150 0.174730 -0.513464
O16   O     O_R   0.736050 0.459150 0.825270 -0.515000
O17   O     O_R   0.263950 0.459150 0.174730 -0.513849
O18   O     O_R   0.332100 0.076650 0.832310 -0.533435
O19   O     O_R   0.667900 0.076650 0.167690 -0.533440
O20   O     O_R   0.832100 0.576650 0.832310 -0.532320
O21   O     O_R   0.167900 0.576650 0.167690 -0.533166
O22   O     O_R   0.446500 0.918620 0.826240 -0.503679
O23   O     O_R   0.714130 0.208570 0.829890 -0.527997
O24   O     O_R   0.553500 0.918620 0.173760 -0.503690
O25   O     O_R   0.946500 0.418620 0.826240 -0.503876
O26   O     O_R   0.053500 0.418620 0.173760 -0.503890
O27   O     O_R   0.457310 0.715830 0.831280 -0.524300
O28   O     O_R   0.542690 0.715830 0.168720 -0.523632
O29   O     O_R   0.957310 0.215830 0.831280 -0.524347
O30   O     O_R   0.042690 0.215830 0.168720 -0.524396
O31   O     O_R   0.321000 0.623520 0.824130 -0.519391
O32   O     O_R   0.679000 0.623520 0.175870 -0.519833
O33   O     O_R   0.821000 0.123520 0.824130 -0.519007
O34   O     O_R   0.285870 0.208570 0.170110 -0.528221
O35   O     O_R   0.179000 0.123520 0.175870 -0.518995
O36   O     O_R   0.213990 0.710040 0.667000 -0.532691
O37   O     O_R   0.786010 0.710040 0.333000 -0.533101
O38   O     O_R   0.713990 0.210040 0.667000 -0.532395
O39   O     O_R   0.286010 0.210040 0.333000 -0.532738
O40   O     O_R   0.235920 0.960520 0.674260 -0.511220
O41   O     O_R   0.764080 0.960520 0.325740 -0.511795
O42   O     O_R   0.735920 0.460520 0.674260 -0.511149
O43   O     O_R   0.264080 0.460520 0.325740 -0.511410
O44   O     O_R   0.331960 0.078120 0.669410 -0.533702
O45   O     O_R   0.446360 0.919990 0.675230 -0.506794
O46   O     O_R   0.668040 0.078120 0.330590 -0.534161
O47   O     O_R   0.831960 0.578120 0.669410 -0.533381
O48   O     O_R   0.168040 0.578120 0.330590 -0.533810
O49   O     O_R   0.553640 0.919990 0.324770 -0.507009
O50   O     O_R   0.946360 0.419990 0.675230 -0.506860
O51   O     O_R   0.053640 0.419990 0.324770 -0.506894
O52   O     O_R   0.457170 0.717300 0.668380 -0.530393

loop_
_geom_bond_atom_site_label_1
_geom_bond_atom_site_label_2
_ccdc_geom_bond_type
C37   H100  S    
C9    O6    A    
C31   H29   S    
C113  O34   A    
C46   C112  S    
C11   O8    A    
C34   C42   S    
C4    O52   A    
C33   O19   A    
C14   C21   S    
C90   C107  S    
Cr2   O10   S    
C81   H84   S    
C54   H44   S    
C5    C74   S    
Cr9   O19   S    
C36   C53   S    
C18   H45   S    
C89   C106  S    
C70   C74   S    
C35   H122  S    
C91   C100  S    
C94   H115  S    
C85   C103  S    
C83   H91   S    
C59   C60   S    
Cr9   O10   S    
C85   H97   S    
C57   H60   S    
Cr1   O1    S    
Cr11  O21   S    
C19   C99   S    
C61   O27   A    
C81   H88   S    
Cr4   O4    S    
C17   C21   S    
C19   C23   S    
C19   H56   S    
C49   H52   S    
C16   C20   S    
C85   H93   S    
C13   H10   S    
C68   H81   S    
C87   H130  S    
Cr4   O35   S    
C48   H32   S    
C10   O7    A    
C14   H74   S    
C17   H1    S    
C120  O47   A    
C104  C117  S    
C116  H124  S    
C66   C77   S    
C18   C66   S    
C26   H17   S    
C10   O38   A    
C45   C111  S    
C82   H90   S    
C58   H61   S    
C12   H73   S    
Cr12  O52   S    
C107  H6    S    
C103  C116  S    
C79   C96   S    
C115  H127  S    
Cr7   O34   S    
C67   H77   S    
C62   O24   A    
Cr8   O9    S    
C57   H55   S    
C88   C99   S    
Cr8   O45   S    
C2    C40   S    
C108  H105  S    
C81   C98   S    
C55   O17   A    
C103  C107  S    
C77   H118  S    
C73   H38   S    
C70   H70   S    
Cr8   O44   S    
C21   C66   S    
C50   H30   S    
C84   C102  S    
C3    O48   A    
Cr8   O18   S    
C86   C104  S    
C56   H46   S    
C95   C117  S    
C38   H111  S    
C73   H71   S    
C28   C46   S    
C34   C51   S    
C29   C47   S    
C30   C48   S    
C43   C52   S    
C15   C25   S    
C24   H11   S    
C12   C22   S    
C63   O29   A    
Cr1   O36   S    
C64   O26   A    
C8    O36   A    
C119  O46   A    
C32   C41   S    
C89   H131  S    
C90   H132  S    
C5    O49   A    
C65   H64   S    
Cr5   O37   S    
C34   H27   S    
C27   H22   S    
C45   C53   S    
Cr3   O33   S    
Cr4   O30   S    
Cr3   O11   S    
C60   C78   S    
C92   C96   S    
C54   H40   S    
C109  O1    A    
C53   H39   S    
C106  H5    S    
C109  O31   A    
C111  O12   A    
C62   O28   A    
C65   C74   S    
C25   C64   S    
C69   C72   S    
C69   H68   S    
C87   C105  S    
Cr12  O27   S    
C61   O22   A    
C11   C104  S    
C27   H18   S    
C23   C88   S    
C67   C75   S    
C13   H15   S    
Cr3   O29   S    
C93   C97   S    
C6    O3    A    
Cr2   O2    S    
Cr3   O7    S    
Cr4   O8    S    
C83   C101  S    
C18   C22   S    
C36   H2    S    
C108  H7    S    
C7    C76   S    
Cr9   O49   S    
C68   C76   S    
C38   C56   S    
C91   H101  S    
C67   C70   S    
C72   H37   S    
C89   H103  S    
C51   H54   S    
C93   H109  S    
C57   C58   S    
C44   O16   A    
C82   H85   S    
Cr12  O9    S    
Cr10  O25   S    
C30   C39   S    
C37   C41   S    
C40   C44   S    
Cr11  O51   S    
C28   H19   S    
C26   H21   S    
C43   C109  S    
C59   C76   S    
C15   H75   S    
C60   H63   S    
C47   C56   S    
C107  H104  S    
Cr10  O50   S    
C52   H42   S    
C24   C42   S    
C34   H48   S    
C80   C84   S    
C80   H87   S    
C13   C41   S    
Cr2   O32   S    
C15   C19   S    
C53   H43   S    
C10   C103  S    
C35   H78   S    
C52   H35   S    
C80   C97   S    
C20   C25   S    
C94   C98   S    
C44   O20   A    
C55   O21   A    
C31   C40   S    
C24   C29   S    
C4    C75   S    
C102  C115  S    
C25   C99   S    
C79   H82   S    
C39   C55   S    
C9    C102  S    
C12   C17   S    
C28   H23   S    
C13   C28   S    
C51   H31   S    
C2    C27   S    
C112  O23   A    
C119  O41   A    
C8    C101  S    
C21   C61   S    
C95   H112  S    
C72   H72   S    
C117  H129  S    
C16   C23   S    
C27   C45   S    
C23   C63   S    
C5    O2    A    
C113  O35   A    
C92   H113  S    
C101  C114  S    
C31   C49   S    
C80   H83   S    
Cr5   O10   S    
Cr1   O40   S    
C86   H98   S    
Cr1   O14   S    
C84   H92   S    
Cr12  O5    S    
C94   C116  S    
C95   C100  S    
C47   C51   S    
C82   C86   S    
C35   C39   S    
C49   H33   S    
C6    O50   A    
Cr6   O38   S    
C45   C49   S    
Cr7   O43   S    
C46   C54   S    
C17   C77   S    
Cr2   O28   S    
C69   H80   S    
Cr7   O13   S    
C110  H12   S    
C88   H119  S    
C31   H50   S    
C30   H49   S    
C100  C118  S    
C104  C108  S    
C47   C113  S    
C114  H121  S    
C91   C108  S    
C22   C77   S    
C99   H120  S    
C67   H65   S    
C48   H51   S    
C29   H25   S    
Cr4   O13   S    
Cr6   O42   S    
Cr11  O48   S    
Cr12  O31   S    
C56   H41   S    
C33   C41   S    
C1    O14   A    
C79   C83   S    
C20   C88   S    
C7    O51   A    
Cr1   O9    S    
Cr11  O13   S    
C6    C78   S    
C93   H114  S    
Cr2   O6    S    
Cr3   O3    S    
C1    C42   S    
C91   H3    S    
C35   C52   S    
C120  O42   A    
C59   H58   S    
C58   C75   S    
Cr5   O12   S    
Cr6   O11   S    
C14   C18   S    
C38   H24   S    
C72   C76   S    
C98   C119  S    
C83   H95   S    
C30   H28   S    
C92   H108  S    
C87   H102  S    
C38   C42   S    
C70   H34   S    
Cr7   O39   S    
C1    O18   A    
C4    O45   A    
C15   C16   S    
C68   H66   S    
C93   C115  S    
Cr10  O20   S    
C39   C110  S    
C118  O44   A    
C73   C78   S    
C32   H47   S    
C3    C96   S    
C43   C48   S    
C26   C110  S    
C116  H128  S    
C66   H117  S    
Cr6   O23   S    
Cr5   O41   S    
C69   C78   S    
C26   C43   S    
C32   H26   S    
Cr10  O47   S    
C59   H62   S    
C101  C105  S    
C36   C40   S    
C24   H16   S    
C79   H86   S    
Cr5   O15   S    
C68   C73   S    
C65   C71   S    
Cr6   O16   S    
C89   C97   S    
C57   C74   S    
C20   H67   S    
C9    O37   A    
C8    O5    A    
C95   H116  S    
C22   C62   S    
C117  H125  S    
C11   O39   A    
C105  H106  S    
C87   C96   S    
C58   H57   S    
C118  O40   A    
C114  H126  S    
C32   C50   S    
C105  H4    S    
C37   C54   S    
C12   C14   S    
C71   H36   S    
C86   H94   S    
C90   H99   S    
C84   H96   S    
C33   O15   A    
C71   H69   S    
C111  O32   A    
Cr11  O26   S    
C82   C100  S    
Cr9   O24   S    
C16   H76   S    
Cr9   O46   S    
C2    H14   S    
C46   C50   S    
C112  O33   A    
C106  H107  S    
Cr7   O17   S    
C97   C120  S    
C110  H8    S    
C94   H110  S    
Cr8   O22   S    
C29   H20   S    
C71   C75   S    
C60   H59   S    
C36   H89   S    
C102  C106  S    
C7    O4    A    
C81   C85   S    
C65   H79   S    
C115  H123  S    
C63   O25   A    
C2    H9    S    
C3    O43   A    
C64   O30   A    
C37   H13   S    
Cr10  O11   S    
C50   H53   S    
C92   C114  S    
C90   C98   S    
