data_mof_unit_59377.cif
_audit_creation_date              2013-03-05T15:54:01-0500
_audit_creation_method            fapswitch 2.2
_symmetry_space_group_name_H-M    P1
_symmetry_Int_Tables_number       1
_space_group_crystal_system       triclinic
_cell_length_a                    15.803931
_cell_length_b                    10.658959
_cell_length_c                    10.049694
_cell_angle_alpha                 91.271309
_cell_angle_beta                  89.440355
_cell_angle_gamma                 93.476123
_cell_volume                      1689.31484343

loop_
_atom_site_label
_atom_site_type_symbol
_atom_site_description
_atom_site_fract_x
_atom_site_fract_y
_atom_site_fract_z
_atom_type_partial_charge
O1    O     O_R   0.500000 0.316780 0.614690 -0.640145
O2    O     O_R   0.499990 0.316750 0.385360 -0.602888
C1    C     C_R   0.510994 0.261535 0.499028 0.893425
O3    O     O_R   0.377150 0.500020 0.614720 -0.538681
O4    O     O_R   0.377140 0.499990 0.385380 -0.642213
C2    C     C_R   0.339199 0.504229 0.500632 0.902337
Zn1   Zn    Zn3+2 0.500010 0.500020 0.653130 1.035243
Zn2   Zn    Zn3+2 0.499990 0.499980 0.346870 1.043043
O5    O     O_R   0.500010 0.683250 0.614640 -0.603697
O6    O     O_R   0.500000 0.683220 0.385310 -0.598748
O7    O     O_R   0.622860 0.500010 0.614620 -0.645514
O8    O     O_R   0.622850 0.499980 0.385280 -0.573050
C3    C     C_R   0.490271 0.739278 0.502451 0.880920
C4    C     C_R   0.661131 0.504310 0.499279 0.884350
C5    C     C_3   0.050230 0.525258 0.643870 0.028910
C6    C     C_3   0.044035 0.386259 0.428128 0.008584
C7    C     C_3   0.944998 0.392932 0.403889 0.320205
H1    H     H_    0.050178 0.316644 0.505836 0.222467
C8    C     C_1   0.749815 0.511147 0.496947 0.024197
C9    C     C_3   0.084111 0.514230 0.492885 -0.176592
C10   C     C_3   0.948434 0.509967 0.641510 -0.008344
C11   C     C_3   0.916969 0.514934 0.488622 -0.314119
C12   C     C_3   0.955880 0.643671 0.419967 0.361011
C13   C     C_3   0.057576 0.630781 0.407599 -0.319966
C14   C     C_1   0.825007 0.514483 0.493015 0.204221
C15   C     C_1   0.176138 0.511851 0.497054 0.123431
C16   C     C_1   0.250975 0.509003 0.500519 0.000479
C17   C     C_R   0.589420 0.110047 0.721786 -0.104063
C18   C     C_R   0.593050 0.042484 0.840415 -0.187960
C19   C     C_R   0.535739 0.937101 0.861298 0.224290
C20   C     C_R   0.481216 0.895677 0.756006 0.207264
C21   C     C_R   0.497068 0.943907 0.628114 -0.046835
C22   C     C_R   0.536123 0.063952 0.617335 -0.001768
C23   C     C_R   0.526209 0.127388 0.497213 -0.171270
C24   C     C_R   0.506256 0.058960 0.380405 0.248926
C25   C     C_R   0.469796 0.937105 0.390724 -0.095224
C26   C     C_R   0.476926 0.874558 0.509984 -0.161197
H2    H     H_    0.599029 0.637855 0.126948 0.195215
C27   C     C_R   0.404009 0.298427 0.124511 -0.004779
C28   C     C_R   0.384071 0.192505 0.043248 -0.128342
H3    H     H_    0.354235 0.106945 0.083904 0.201820
C29   C     C_R   0.392167 0.198017 0.907668 -0.235940
H4    H     H_    0.365032 0.119234 0.849164 0.221982
C30   C     C_R   0.400970 0.316182 0.854049 0.317661
C31   C     C_R   0.448968 0.411611 0.925378 0.053367
C32   C     C_R   0.450139 0.407361 0.069409 0.108227
N1    N     N_R   0.499210 0.498800 0.142780 -0.127169
C33   C     C_R   0.554063 0.576500 0.072334 0.025109
C34   C     C_R   0.555565 0.574476 0.929937 0.043770
N2    N     N_R   0.499180 0.498720 0.857170 -0.132182
N3    N     N_R   0.914954 0.390959 0.705285 0.253755
O9    O     O_R   0.852610 0.392490 0.791154 -0.322363
O10   O     O_R   0.952268 0.285894 0.691619 -0.255437
C35   C     C_1   0.083255 0.648022 0.703423 0.266283
N4    N     N_1   0.109479 0.741738 0.752141 -0.032227
C36   C     C_1   0.912205 0.613122 0.724105 0.334611
N5    N     N_1   0.883922 0.691396 0.789383 -0.039808
N6    N     N_R   0.920804 0.664240 0.285456 0.236771
O11   O     O_R   0.842329 0.630149 0.258163 -0.302156
O12   O     O_R   0.954506 0.757299 0.217129 -0.296061
N7    N     N_R   0.536364 0.106489 0.254869 0.218666
O13   O     O_R   0.506694 0.058052 0.144740 -0.409350
O14   O     O_R   0.605086 0.180150 0.249985 -0.330573
C37   C     C_1   0.652593 0.210763 0.699017 0.287303
N8    N     N_1   0.704534 0.289718 0.682661 -0.083701
C38   C     C_1   0.655202 0.083923 0.939844 0.435932
N9    N     N_1   0.705596 0.117230 0.017785 0.003200
N10   N     N_R   0.536406 0.869605 0.983933 0.217609
O15   O     O_R   0.605814 0.864160 0.051728 -0.386992
O16   O     O_R   0.466802 0.818740 0.033341 -0.345022
N11   N     N_R   0.403224 0.821234 0.778321 0.236763
O17   O     O_R   0.333467 0.856282 0.726716 -0.374392
O18   O     O_R   0.402740 0.710561 0.830038 -0.303675
C39   C     C_1   0.405537 0.889640 0.298318 0.353317
N12   N     N_1   0.351764 0.852065 0.228023 -0.110051
N13   N     N_R   0.084022 0.432076 0.734281 0.264977
O19   O     O_R   0.065994 0.438528 0.861037 -0.236697
O20   O     O_R   0.132731 0.344817 0.693213 -0.270074
C40   C     C_1   0.360738 0.285204 0.249928 0.351687
N14   N     N_1   0.323292 0.264266 0.347393 -0.135903
N15   N     N_R   0.328637 0.347058 0.780974 0.247769
O21   O     O_R   0.282825 0.436742 0.825529 -0.288002
O22   O     O_R   0.298120 0.269661 0.688851 -0.347693
C41   C     C_1   0.620478 0.648822 0.861331 0.312357
N16   N     N_1   0.672881 0.708636 0.806378 -0.143858
N17   N     N_R   0.090263 0.330243 0.314413 0.263533
O23   O     O_R   0.066591 0.217506 0.271734 -0.222126
O24   O     O_R   0.160027 0.381961 0.265350 -0.372467
N18   N     N_R   0.900682 0.273268 0.448454 0.256393
O25   O     O_R   0.818483 0.262831 0.459224 -0.321738
O26   O     O_R   0.939198 0.168635 0.442409 -0.222858
N19   N     N_R   0.921823 0.403502 0.261599 0.241609
O27   O     O_R   0.842885 0.382249 0.227152 -0.250285
O28   O     O_R   0.977542 0.416314 0.166207 -0.272779
C42   C     C_1   0.108982 0.748131 0.441181 0.297772
N20   N     N_1   0.150094 0.839317 0.465497 -0.069896
C43   C     C_1   0.085553 0.613008 0.267385 0.391922
N21   N     N_1   0.108367 0.603426 0.157878 -0.005437
N22   N     N_R   0.929749 0.754290 0.500824 0.210541
O29   O     O_R   0.981303 0.827032 0.572151 -0.342611
O30   O     O_R   0.851059 0.783980 0.496926 -0.308307

loop_
_geom_bond_atom_site_label_1
_geom_bond_atom_site_label_2
_geom_bond_distance
_ccdc_geom_bond_type
C12   N6    1.491717 S    
C12   N22   1.493676 S    
C42   N20   1.158671 T    
C43   N21   1.159011 T    
C31   C32   1.449512 A    
Zn1   O7    1.976005 S    
C15   C16   1.185819 T    
C34   C41   1.437919 S    
C25   C26   1.393139 A    
N13   O20   1.300605 A    
C19   C20   1.417068 A    
O7    C4    1.302622 A    
N17   O24   1.300139 A    
N6    O12   1.303110 A    
C36   N5    1.158211 T    
C23   C24   1.396693 A    
N7    O14   1.302177 A    
O5    C3    1.302274 A    
C35   N4    1.158172 T    
C9    C13   1.603516 S    
N10   O15   1.301869 A    
C11   C14   1.453316 S    
N1    C33   1.365864 A    
C12   C13   1.624659 S    
N18   O26   1.302560 A    
H2    C33   1.081333 S    
C2    C16   1.398313 S    
C6    C9    1.596606 S    
C28   C29   1.369517 A    
C38   N9    1.157335 T    
C10   C11   1.622523 S    
C6    N17   1.484102 S    
C7    N19   1.487970 S    
C29   C30   1.379672 A    
O3    Zn1   1.983365 S    
N15   O22   1.302643 A    
N15   O21   1.302730 A    
C5    C9    1.608330 S    
C39   N12   1.157406 T    
C13   C43   1.484282 S    
C5    C35   1.493783 S    
C7    N18   1.492939 S    
N13   O19   1.303852 A    
O3    C2    1.302033 A    
C30   N15   1.423777 S    
C13   C42   1.483879 S    
C27   C28   1.400670 A    
N11   O18   1.299159 A    
N17   O23   1.301404 A    
C6    C7    1.592449 S    
C1    C23   1.463937 S    
N6    O11   1.301145 A    
N3    O9    1.304013 A    
O1    C1    1.306194 A    
C24   C25   1.394214 A    
C27   C40   1.433697 S    
C18   C19   1.417576 A    
C10   C36   1.500779 S    
C20   C21   1.409397 A    
Zn2   O8    1.983363 S    
N19   O28   1.299171 A    
C22   C23   1.411323 A    
C24   N7    1.436002 S    
C21   C26   1.413152 A    
C41   N16   1.157581 T    
C25   C39   1.443936 S    
C27   C32   1.450635 A    
C17   C37   1.441535 S    
Zn2   O6    1.982550 S    
C28   H3    1.087017 S    
N22   O30   1.302878 A    
O8    C4    1.299414 A    
C17   C22   1.413138 A    
C40   N14   1.158362 T    
C29   H4    1.083557 S    
C10   N3    1.499295 S    
C30   C31   1.417252 A    
Zn1   O5    1.999378 S    
C32   N1    1.408073 A    
C17   C18   1.409850 A    
O1    Zn1   1.982550 S    
C3    C26   1.470090 S    
C4    C8    1.399027 S    
O2    Zn2   1.999379 S    
Zn1   N2    2.050803 S    
O6    C3    1.320202 A    
O4    Zn2   1.976005 S    
C7    C11   1.620426 S    
N22   O29   1.299593 A    
C21   C22   1.392481 A    
O2    C1    1.314401 A    
Zn2   N1    2.050954 S    
N11   O17   1.301387 A    
C37   N8    1.152760 T    
O4    C2    1.300195 A    
C9    C15   1.457167 S    
C31   N2    1.374759 A    
C33   C34   1.430720 A    
C20   N11   1.443271 S    
N19   O27   1.303142 A    
C5    N13   1.486977 S    
N7    O13   1.291044 A    
C8    C14   1.187008 T    
C18   C38   1.450978 S    
C5    C10   1.607501 S    
C6    H1    1.098101 S    
C34   N2    1.371187 A    
N10   O16   1.295960 A    
C11   C12   1.633571 S    
N3    O10   1.300932 A    
N18   O25   1.300731 A    
C19   N10   1.441224 S    
