data_mof_unit_57803.cif
_audit_creation_date              2012-12-11T16:29:30-0500
_audit_creation_method            fapswitch 2.2
_symmetry_space_group_name_H-M    P1
_symmetry_Int_Tables_number       1
_space_group_crystal_system       triclinic
_cell_length_a                    6.946318
_cell_length_b                    17.275685
_cell_length_c                    18.846008
_cell_angle_alpha                 106.056545
_cell_angle_beta                  90.234076
_cell_angle_gamma                 90.982752
_cell_volume                      2172.92928493

loop_
_atom_site_label
_atom_site_type_symbol
_atom_type_description
_atom_site_fract_x
_atom_site_fract_y
_atom_site_fract_z
_atom_type_partial_charge
O1    O     O_R   0.494360 0.415680 0.413760 -0.502197
O2    O     O_R   0.818810 0.432910 0.557230 -0.542264
O3    O     O_R   0.994290 0.584320 0.586240 -0.531033
C1    C     C_R   0.650220 0.416371 0.580981 0.745493
O4    O     O_R   0.823740 0.406440 0.412520 -0.548031
O5    O     O_R   0.999250 0.557660 0.440500 -0.530498
C2    C     C_R   0.650727 0.379152 0.388114 0.718779
O6    O     O_R   0.489400 0.442340 0.559500 -0.481262
O7    O     O_3   0.662500 0.549650 0.509350 -0.353931
V1    V     V_3+5 0.935340 0.490790 0.498270 1.550219
O8    O     O_R   0.329270 0.567090 0.442770 -0.508920
C3    C     C_R   0.161307 0.583146 0.418578 0.770973
O9    O     O_R   0.324340 0.593560 0.587480 -0.531487
C4    C     C_R   0.155127 0.618718 0.613696 0.728674
V2    V     V_3+5 0.435970 0.509210 0.501730 1.631226
O10   O     O_3   0.158940 0.450350 0.490650 -0.331964
C5    C     C_R   0.188417 0.587966 0.761979 -0.039343
C6    C     C_R   0.239877 0.578605 0.831948 -0.103123
C7    C     C_R   0.196325 0.639973 0.895977 -0.100201
C8    C     C_R   0.110487 0.710101 0.888310 0.226264
C9    C     C_R   0.123567 0.730404 0.820662 0.011090
C10   C     C_R   0.150878 0.666960 0.754458 -0.048130
C11   C     C_R   0.116843 0.812033 0.818412 -0.094009
C12   C     C_R   0.133219 0.829637 0.749757 -0.004839
C13   C     C_R   0.119377 0.766856 0.682573 -0.006688
C14   C     C_R   0.139655 0.684757 0.684235 -0.116545
C15   C     C_R   0.161532 0.910021 0.747052 -0.262532
C16   C     C_R   0.172473 0.929115 0.680319 0.261503
C17   C     C_R   0.131977 0.869834 0.614609 0.305985
C18   C     C_R   0.090019 0.790315 0.616339 0.125059
H1    H     H_    0.180635 0.959154 0.796695 0.152348
C19   C     C_1   0.111811 0.864296 0.132991 -0.029354
C20   C     C_1   0.118628 0.821345 0.176239 0.168811
C21   C     C_1   0.127773 0.770690 0.227732 0.102620
C22   C     C_1   0.135985 0.728129 0.271291 0.087703
C23   C     C_1   0.145751 0.677693 0.322953 0.101802
C24   C     C_1   0.153484 0.635027 0.366424 -0.101043
C25   C     C_1   0.642242 0.364247 0.632856 -0.068621
C26   C     C_1   0.638119 0.321529 0.676323 0.105458
C27   C     C_1   0.634464 0.271275 0.728186 0.073373
C28   C     C_1   0.631677 0.228959 0.772015 0.085343
C29   C     C_1   0.628016 0.178733 0.823907 0.095576
C30   C     C_1   0.623665 0.136129 0.867478 -0.140571
H2    H     H_    0.380359 0.125173 0.433914 0.180171
C31   C     C_R   0.726324 0.404493 0.240408 -0.101982
C32   C     C_R   0.815306 0.413186 0.175100 -0.058906
C33   C     C_R   0.836415 0.344827 0.115154 0.239289
C34   C     C_R   0.767238 0.270430 0.119079 -0.164307
C35   C     C_R   0.692825 0.258583 0.184947 0.014862
C36   C     C_R   0.682915 0.325579 0.248910 0.026127
C37   C     C_R   0.632351 0.180327 0.186882 -0.123772
C38   C     C_R   0.588657 0.165142 0.255606 -0.032883
C39   C     C_R   0.563601 0.232220 0.319620 -0.006656
C40   C     C_R   0.627439 0.311875 0.317983 -0.115969
C41   C     C_R   0.570967 0.084500 0.263023 0.222664
C42   C     C_R   0.494547 0.071025 0.327694 -0.058515
C43   C     C_R   0.447271 0.136132 0.385548 -0.227294
C44   C     C_R   0.476908 0.214792 0.382531 0.222666
H3    H     H_    0.778862 0.221266 0.069440 0.136972
O11   O     O_R   0.775690 0.057750 0.940570 -0.529058
O12   O     O_R   0.441200 0.093570 0.087490 -0.534302
O13   O     O_R   0.265840 0.942320 0.059480 -0.517875
C45   C     C_R   0.612109 0.115158 0.116043 0.750587
O14   O     O_R   0.446270 0.067110 0.942790 -0.530733
O15   O     O_R   0.270950 0.915660 0.913750 -0.541481
C46   C     C_R   0.615162 0.084155 0.919478 0.692708
O16   O     O_R   0.770580 0.084400 0.086300 -0.529486
O17   O     O_3   0.602640 0.950400 0.990690 -0.333766
V3    V     V_3+5 0.329740 0.009200 0.001730 1.533979
O18   O     O_R   0.940900 0.906360 0.912450 -0.519214
C47   C     C_R   0.109314 0.880332 0.887434 0.729159
O19   O     O_R   0.935830 0.932820 0.057160 -0.490583
C48   C     C_R   0.104052 0.916464 0.081091 0.786163
V4    V     V_3+5 0.829130 0.990680 0.998180 1.580721
O20   O     O_3   0.106100 0.049590 0.009310 -0.372277
Br1   Br    Br    0.124986 0.898728 0.522802 -0.399482
C49   C     C_2   0.656503 0.478258 0.293457 0.473118
H4    H     H_    0.757668 0.523486 0.324760 0.057397
O21   O     O_2   0.484007 0.490279 0.299465 -0.532350
C50   C     C_2   0.883916 0.492671 0.166794 0.404064
H5    H     H_    0.001226 0.495263 0.129703 0.118554
O22   O     O_2   0.809320 0.555892 0.199380 -0.525296
Br2   Br    Br    0.943445 0.349868 0.022414 -0.568893
Br3   Br    Br    0.694483 0.993208 0.197324 -0.503566
C51   C     C_2   0.456961 0.989847 0.338073 0.501143
H6    H     H_    0.448921 0.982935 0.393545 0.084308
O23   O     O_2   0.424741 0.930884 0.286017 -0.505800
Br4   Br    Br    0.341691 0.286320 0.460746 -0.516812
C52   C     C_2   0.134713 0.513842 0.703326 0.398113
H7    H     H_    0.991209 0.508011 0.679721 0.038325
O24   O     O_2   0.246288 0.458654 0.682231 -0.503251
C53   C     C_2   0.323228 0.502297 0.838543 0.467424
H8    H     H_    0.258880 0.470197 0.874738 0.044520
O25   O     O_2   0.468130 0.475878 0.804627 -0.501843
C54   C     C_2   0.235032 0.630652 0.971008 0.501789
H9    H     H_    0.255935 0.571904 0.979554 0.034318
O26   O     O_2   0.250115 0.689498 0.024532 -0.505113
Br5   Br    Br    0.908617 0.753426 0.956895 -0.499099
Br6   Br    Br    0.226539 0.039124 0.682545 -0.471130
Br7   Br    Br    0.926144 0.729244 0.537746 -0.489162

loop_
_geom_bond_atom_site_label_1
_geom_bond_atom_site_label_2
_ccdc_geom_bond_type
C41   C42   A    
C27   C28   T    
C28   C29   S    
C54   H9    S    
C12   C15   A    
C1    O6    A    
C42   C51   S    
C17   Br1   S    
C51   H6    S    
C36   C40   A    
C23   C24   T    
C6    C7    A    
O5    C3    A    
C25   C26   T    
O17   V4    S    
V2    O10   S    
C18   Br7   S    
C42   C43   A    
C21   C22   T    
C3    C24   S    
O12   C45   A    
O8    V2    S    
C7    C8    A    
O17   V3    S    
C35   C37   A    
O18   V4    S    
C11   C12   A    
O13   C48   A    
O18   C47   A    
O1    V2    S    
C33   Br2   S    
C52   O24   D    
O7    V1    S    
C38   C41   A    
C49   H4    S    
C49   O21   D    
O11   C46   A    
O9    C4    A    
C20   C21   S    
C51   O23   D    
C45   O16   A    
V4    O20   S    
C15   H1    S    
C37   C38   A    
C11   C47   S    
C5    C52   S    
C12   C13   A    
C50   O22   D    
C52   H7    S    
C19   C48   S    
O4    C2    A    
C50   H5    S    
C13   C14   A    
O15   C47   A    
O13   V3    S    
C22   C23   S    
O14   C46   A    
O2    C1    A    
C17   C18   A    
C33   C34   A    
H2    C43   S    
O8    C3    A    
C53   O25   D    
C5    C6    A    
C37   C45   S    
O16   V4    S    
O14   V3    S    
C4    C14   S    
O3    C4    A    
C16   Br6   S    
O19   V4    S    
C34   C35   A    
C1    C25   S    
O6    V2    S    
C9    C11   A    
C29   C30   T    
O2    V1    S    
C26   C27   S    
C7    C54   S    
C38   C39   A    
C34   H3    S    
O12   V3    S    
C13   C18   A    
C32   C33   A    
C16   C17   A    
O1    C2    A    
O19   C48   A    
C44   Br4   S    
O5    V1    S    
C39   C44   A    
C54   O26   D    
C39   C40   A    
C5    C10   A    
C6    C53   S    
C19   C20   T    
O9    V2    S    
O7    V2    S    
O4    V1    S    
O3    V1    S    
V1    O10   S    
C32   C50   S    
C43   C44   A    
C31   C36   A    
C30   C46   S    
O15   V3    S    
O11   V4    S    
C53   H8    S    
V3    O20   S    
C31   C32   A    
C8    Br5   S    
C8    C9    A    
C35   C36   A    
C10   C14   A    
C15   C16   A    
C31   C49   S    
C2    C40   S    
C41   Br3   S    
C9    C10   A    
