data_mof_unit_26933.cif
_audit_creation_date              2013-03-05T16:41:04-0500
_audit_creation_method            fapswitch 2.2
_symmetry_space_group_name_H-M    P1
_symmetry_Int_Tables_number       1
_space_group_crystal_system       triclinic
_cell_length_a                    18.569059
_cell_length_b                    18.725396
_cell_length_c                    19.09389
_cell_angle_alpha                 110.152671
_cell_angle_beta                  109.830535
_cell_angle_gamma                 109.005176
_cell_volume                      5073.87514212

loop_
_atom_site_label
_atom_site_type_symbol
_atom_site_description
_atom_site_fract_x
_atom_site_fract_y
_atom_site_fract_z
_atom_type_partial_charge
O1    O     O_R   0.408360 0.551710 0.460090 -0.616506
O2    O     O_R   0.408400 0.448280 0.356670 -0.624699
C1    C     C_R   0.381239 0.502165 0.380500 0.878748
O3    O     O_R   0.591600 0.643340 0.551710 -0.624649
O4    O     O_R   0.591630 0.539900 0.448290 -0.621273
C2    C     C_R   0.621659 0.620798 0.502185 0.886624
Zn1   Zn    Zn3+2 0.499980 0.569060 0.569060 0.959404
Zn2   Zn    Zn3+2 0.500020 0.430940 0.430940 0.950133
O5    O     O_R   0.591600 0.551720 0.643330 -0.625322
O6    O     O_R   0.591640 0.448290 0.539910 -0.628987
O7    O     O_R   0.408370 0.460100 0.551710 -0.615395
O8    O     O_R   0.408400 0.356660 0.448290 -0.623251
C3    C     C_R   0.618447 0.498174 0.619821 0.878851
C4    C     C_R   0.379707 0.379637 0.499394 0.893628
H1    H     H_    0.839071 0.866625 0.907476 0.191271
C5    C     C_R   0.748123 0.839109 0.782887 -0.132607
H2    H     H_    0.708483 0.860490 0.805225 0.152306
C6    C     C_R   0.727373 0.810464 0.697037 -0.107168
H3    H     H_    0.672974 0.812366 0.654181 0.144628
C7    C     C_R   0.777891 0.781408 0.667327 0.091649
C8    C     C_R   0.852021 0.785954 0.725800 -0.135670
H4    H     H_    0.894110 0.767680 0.705140 0.158390
C9    C     C_R   0.874398 0.817835 0.812169 -0.122527
H5    H     H_    0.933848 0.825105 0.857301 0.147980
C10   C     C_R   0.821740 0.842788 0.840527 -0.078897
C11   C     C_R   0.826447 0.818520 0.574435 -0.253967
H6    H     H_    0.886793 0.873277 0.633670 0.161469
C12   C     C_R   0.810602 0.810861 0.494698 -0.068245
C13   C     C_R   0.728781 0.744557 0.418069 0.019454
C14   C     C_R   0.669171 0.681246 0.422690 -0.258653
H7    H     H_    0.607434 0.627652 0.364163 0.154442
C15   C     C_R   0.686057 0.688651 0.502426 -0.076886
C16   C     C_R   0.762602 0.760893 0.579858 -0.015161
C17   C     C_R   0.621904 0.744331 0.296304 -0.146293
H8    H     H_    0.583584 0.748065 0.327919 0.120751
C18   C     C_R   0.592961 0.742019 0.217550 -0.223794
H9    H     H_    0.533667 0.745412 0.189613 0.146290
C19   C     C_R   0.639589 0.733948 0.174160 -0.190579
H10   H     H_    0.615140 0.730400 0.112200 0.172966
C20   C     C_R   0.715509 0.727625 0.209247 0.359585
C21   C     C_R   0.745891 0.732702 0.289968 -0.204044
H11   H     H_    0.805294 0.729891 0.318427 0.133039
C22   C     C_R   0.699705 0.741755 0.334174 0.095516
H12   H     H_    0.512616 0.896008 0.619600 0.145092
C23   C     C_R   0.405985 0.762998 0.552258 -0.166535
H13   H     H_    0.391704 0.773057 0.604196 0.128281
C24   C     C_R   0.355426 0.681085 0.475963 -0.089037
H14   H     H_    0.301698 0.628573 0.469292 0.134116
C25   C     C_R   0.373906 0.667114 0.408436 0.138219
C26   C     C_R   0.441861 0.737152 0.417179 -0.181530
H15   H     H_    0.455423 0.728360 0.364858 0.119654
C27   C     C_R   0.491436 0.819448 0.493267 -0.146142
H16   H     H_    0.542507 0.873935 0.499663 0.147757
C28   C     C_R   0.474027 0.832214 0.560912 -0.111870
C29   C     C_R   0.253987 0.578367 0.256633 -0.250958
H17   H     H_    0.254197 0.638363 0.263056 0.152992
C30   C     C_R   0.187427 0.497435 0.182318 -0.056552
C31   C     C_R   0.181563 0.417836 0.175105 0.022655
C32   C     C_R   0.248679 0.422594 0.240577 -0.265554
H18   H     H_    0.247346 0.362399 0.234836 0.161692
C33   C     C_R   0.314836 0.503348 0.315341 -0.083951
C34   C     C_R   0.315534 0.581960 0.325718 -0.014357
C35   C     C_R   0.062289 0.267481 0.120999 -0.248799
H19   H     H_    0.081792 0.286308 0.187715 0.167911
C36   C     C_R   0.993115 0.182193 0.053850 0.361883
C37   C     C_R   0.968905 0.158894 0.967677 -0.179861
H20   H     H_    0.916350 0.093633 0.914560 0.179884
C38   C     C_R   0.012631 0.219722 0.949252 -0.171283
H21   H     H_    0.993833 0.200833 0.882746 0.160438
C39   C     C_R   0.080577 0.304505 0.016316 -0.123132
H22   H     H_    0.113190 0.351089 0.001170 0.114323
C40   C     C_R   0.106392 0.329141 0.102740 0.075578
H23   H     H_    0.139923 0.539936 0.440189 0.131010
C41   C     C_R   0.182680 0.497006 0.530436 0.265624
C42   C     C_R   0.209977 0.438978 0.543963 -0.157710
H24   H     H_    0.224425 0.438075 0.603546 0.128521
C43   C     C_R   0.217490 0.381151 0.480371 0.101512
C44   C     C_R   0.197665 0.381844 0.402952 -0.123337
H25   H     H_    0.201840 0.336739 0.352760 0.127250
C45   C     C_R   0.169583 0.439007 0.388997 -0.190966
H26   H     H_    0.152718 0.438478 0.328709 0.157478
C46   C     C_R   0.161950 0.496265 0.452273 -0.127304
C47   C     C_R   0.175897 0.249734 0.492230 -0.234996
H27   H     H_    0.115293 0.249987 0.484448 0.171029
C48   C     C_R   0.190488 0.184724 0.502080 -0.128905
C49   C     C_R   0.269940 0.184253 0.514936 0.000901
C50   C     C_R   0.333296 0.248813 0.513364 0.128208
C51   C     C_R   0.315627 0.312778 0.500592 -0.085746
C52   C     C_R   0.237964 0.314508 0.492069 -0.031969
C53   C     C_R   0.322450 0.128064 0.610173 -0.155282
H28   H     H_    0.340109 0.187917 0.664640 0.134603
C54   C     C_R   0.335439 0.064133 0.624487 -0.191251
H29   H     H_    0.363388 0.074965 0.689479 0.148415
C55   C     C_R   0.311956 0.986012 0.555347 -0.177759
H30   H     H_    0.322148 0.936859 0.567872 0.144483
C56   C     C_R   0.276295 0.971026 0.470735 0.267374
C57   C     C_R   0.263460 0.036338 0.455373 0.219783
C58   C     C_R   0.284999 0.114483 0.526159 0.086956
H31   H     H_    0.393563 0.480327 0.784934 0.125742
C59   C     C_R   0.518045 0.563873 0.803082 -0.133346
H32   H     H_    0.512721 0.622409 0.825765 0.126806
C60   C     C_R   0.591878 0.568342 0.796355 0.022333
H33   H     H_    0.643009 0.630595 0.813528 0.165103
C61   C     C_R   0.598474 0.492301 0.765552 0.103627
C62   C     C_R   0.531936 0.412624 0.744861 -0.187774
H34   H     H_    0.536852 0.353747 0.722786 0.145491
C63   C     C_R   0.458034 0.408353 0.751382 -0.106506
H35   H     H_    0.406221 0.346604 0.734124 0.126674
C64   C     C_R   0.450904 0.483816 0.780115 -0.109996
C65   C     C_R   0.740045 0.493544 0.817006 -0.160682
H36   H     H_    0.734696 0.492586 0.871530 0.205227
C66   C     C_R   0.811921 0.493480 0.808703 -0.094879
C67   C     C_R   0.818304 0.491653 0.736506 0.096058
C68   C     C_R   0.753973 0.494635 0.676111 -0.179079
H37   H     H_    0.758086 0.493550 0.620420 0.153636
C69   C     C_R   0.683487 0.496909 0.685660 -0.104739
C70   C     C_R   0.675402 0.495887 0.756167 -0.006893
C71   C     C_R   0.971733 0.542452 0.756080 0.371043
C72   C     C_R   0.032973 0.521502 0.740646 -0.230057
H38   H     H_    0.100896 0.572345 0.771420 0.170840
C73   C     C_R   0.007030 0.435540 0.683712 -0.251554
H39   H     H_    0.054812 0.420426 0.671987 0.155549
C74   C     C_R   0.919161 0.369565 0.639459 -0.104313
H40   H     H_    0.900115 0.304248 0.592843 0.135442
C75   C     C_R   0.856275 0.388113 0.653512 0.196898
C76   C     C_R   0.883409 0.474326 0.715746 -0.058928
O9    O     O_R   0.051730 0.908360 0.460060 -0.623897
O10   O     O_R   0.948280 0.908380 0.356650 -0.604704
C77   C     C_R   0.998984 0.878225 0.380419 0.862320
O11   O     O_R   0.960110 0.908350 0.551690 -0.620484
O12   O     O_R   0.856660 0.908370 0.448270 -0.610953
C78   C     C_R   0.878828 0.877314 0.496626 0.870391
Zn3   Zn    Zn3+2 0.069070 0.999960 0.569030 0.954669
Zn4   Zn    Zn3+2 0.930930 0.999990 0.430930 1.000266
O13   O     O_R   0.051720 0.091580 0.643310 -0.627603
O14   O     O_R   0.948270 0.091600 0.539890 -0.623288
O15   O     O_R   0.143340 0.091590 0.551680 -0.625024
O16   O     O_R   0.039890 0.091610 0.448270 -0.611691
C79   C     C_R   0.998498 0.118872 0.619359 0.895219
C80   C     C_R   0.121266 0.118605 0.499480 0.891388
O17   O     O_R   0.051730 0.460050 0.908360 -0.630871
O18   O     O_R   0.948290 0.356630 0.908390 -0.569301
C81   C     C_R   0.000199 0.379490 0.879992 0.910885
O19   O     O_R   0.143340 0.551690 0.091580 -0.624854
O20   O     O_R   0.039900 0.448270 0.091610 -0.622348
C82   C     C_R   0.120544 0.498330 0.117927 0.840477
Zn5   Zn    Zn3+2 0.069070 0.569030 0.999960 1.013389
Zn6   Zn    Zn3+2 0.930930 0.430930 0.000000 1.056013
O21   O     O_R   0.051710 0.643320 0.091560 -0.630506
O22   O     O_R   0.948270 0.539900 0.091590 -0.599221
O23   O     O_R   0.960100 0.551680 0.908340 -0.604988
O24   O     O_R   0.856660 0.448270 0.908370 -0.585804
C83   C     C_R   0.001332 0.620606 0.120986 0.890477
C84   C     C_R   0.879311 0.496380 0.876852 0.920913
H41   H     H_    0.977635 0.683271 0.572387 0.138012
C85   C     C_R   0.064080 0.751116 0.537095 -0.139149
H42   H     H_    0.122628 0.784937 0.600178 0.124549
C86   C     C_R   0.070208 0.765128 0.471466 -0.107192
H43   H     H_    0.133763 0.810059 0.484523 0.126809
C87   C     C_R   0.994208 0.722333 0.389876 0.101653
C88   C     C_R   0.912907 0.662772 0.373774 -0.173363
H44   H     H_    0.854250 0.627124 0.310394 0.165680
C89   C     C_R   0.906890 0.649343 0.439698 -0.137426
H45   H     H_    0.843762 0.604413 0.427387 0.144982
C90   C     C_R   0.982369 0.693733 0.521412 -0.093392
C91   C     C_R   0.998987 0.675444 0.254921 -0.214931
H46   H     H_    0.996589 0.617397 0.256572 0.147959
C92   C     C_R   0.002932 0.687771 0.187926 -0.024351
C93   C     C_R   0.006257 0.762638 0.184721 0.070820
C94   C     C_R   0.002515 0.823168 0.247853 -0.162407
H47   H     H_    0.003236 0.880309 0.245107 0.156977
C95   C     C_R   0.000520 0.811980 0.315869 -0.047437
C96   C     C_R   0.999738 0.738241 0.320649 0.010624
C97   C     C_R   0.102313 0.833626 0.137779 -0.186397
H48   H     H_    0.158862 0.860314 0.199937 0.137442
C98   C     C_R   0.116218 0.851304 0.076925 -0.113922
H49   H     H_    0.182670 0.892018 0.092698 0.140537
C99   C     C_R   0.044661 0.815642 0.995443 -0.071410
H50   H     H_    0.056207 0.828723 0.948209 0.179250
C100  C     C_R   0.958888 0.762330 0.974657 -0.176513
H51   H     H_    0.903867 0.733254 0.910587 0.191358
C101  C     C_R   0.943555 0.744210 0.035243 0.326570
C102  C     C_R   0.016498 0.780364 0.117979 -0.005444
H52   H     H_    0.405630 0.594139 0.064390 0.128412
C103  C     C_R   0.284181 0.550115 0.952532 -0.159187
H53   H     H_    0.307216 0.612201 0.954484 0.129308
C104  C     C_R   0.199080 0.479975 0.887734 -0.083071
H54   H     H_    0.157333 0.488305 0.839541 0.137224
C105  C     C_R   0.168132 0.399641 0.885547 0.133680
C106  C     C_R   0.225698 0.388964 0.945949 -0.203868
H55   H     H_    0.204655 0.326213 0.942789 0.139470
C107  C     C_R   0.310659 0.459261 0.010861 -0.116895
H56   H     H_    0.354182 0.450991 0.058009 0.139991
C108  C     C_R   0.339735 0.539925 0.014393 -0.104165
C109  C     C_R   0.076534 0.257733 0.751052 -0.247286
H57   H     H_    0.137599 0.264859 0.752645 0.157942
C110  C     C_R   0.996256 0.183426 0.684125 -0.120227
C111  C     C_R   0.915934 0.171280 0.679779 -0.146205
C112  C     C_R   0.916999 0.235856 0.745070 0.264842
C113  C     C_R   0.998845 0.312866 0.812166 -0.209654
C114  C     C_R   0.079239 0.323722 0.815000 -0.039023
C115  C     C_R   0.782657 0.095606 0.533709 -0.083255
H58   H     H_    0.807373 0.154807 0.531073 0.101817
C116  C     C_R   0.703080 0.021456 0.463411 -0.124531
H59   H     H_    0.666019 0.024140 0.407669 0.126124
C117  C     C_R   0.671349 0.943857 0.465045 -0.109944
H60   H     H_    0.609061 0.887112 0.410950 0.113495
C118  C     C_R   0.719346 0.940009 0.536756 -0.142904
H61   H     H_    0.694291 0.879767 0.537869 0.141704
C119  C     C_R   0.799394 0.014019 0.607097 -0.094773
H62   H     H_    0.836410 0.010438 0.662244 0.122261
C120  C     C_R   0.830941 0.092516 0.606132 0.181316
N1    N     N_R   0.760207 0.713760 0.162100 0.212827
O25   O     O_R   0.749199 0.732624 0.101095 -0.333387
O26   O     O_R   0.806287 0.675343 0.175010 -0.380250
N2    N     N_R   0.948087 0.119686 0.073123 0.207791
O27   O     O_R   0.972354 0.140153 0.152996 -0.391912
O28   O     O_R   0.882092 0.041810 0.010968 -0.419583
C121  C     C_3   0.174698 0.558074 0.598938 -0.961183
H63   H     H_    0.152330 0.599756 0.579039 0.245241
H64   H     H_    0.126042 0.519326 0.611260 0.248317
H65   H     H_    0.239940 0.601710 0.659872 0.240733
C122  C     C_3   0.418573 0.249440 0.524117 -0.856655
H66   H     H_    0.433629 0.209596 0.551993 0.236540
H67   H     H_    0.413969 0.223350 0.460075 0.257420
H68   H     H_    0.475959 0.317174 0.568629 0.226816
C123  C     C_3   0.253861 0.884813 0.400174 -0.949106
H69   H     H_    0.204672 0.829560 0.397827 0.235974
H70   H     H_    0.225682 0.876543 0.335058 0.246589
H71   H     H_    0.314528 0.879653 0.414399 0.249682
C124  C     C_3   0.228974 0.023281 0.365393 -0.948682
H72   H     H_    0.223439 0.079232 0.361949 0.259110
H73   H     H_    0.274121 0.014254 0.341727 0.245524
H74   H     H_    0.162156 0.964824 0.321333 0.236555
N3    N     N_R   0.999386 0.632936 0.810041 0.204922
O29   O     O_R   0.082206 0.688827 0.869288 -0.437653
O30   O     O_R   0.945347 0.662482 0.791667 -0.466018
C125  C     C_3   0.760150 0.316907 0.598375 -0.829892
H75   H     H_    0.723330 0.332324 0.551916 0.222329
H76   H     H_    0.751694 0.251679 0.560544 0.229472
H77   H     H_    0.729981 0.312132 0.638879 0.281074
N4    N     N_R   0.854275 0.690064 0.011603 0.215041
O31   O     O_R   0.835514 0.631236 0.033875 -0.358730
O32   O     O_R   0.789791 0.691940 0.958494 -0.403589
N5    N     N_R   0.835387 0.222520 0.743284 0.217160
O33   O     O_R   0.785386 0.152206 0.739464 -0.399211
O34   O     O_R   0.812027 0.281574 0.748172 -0.419728

loop_
_geom_bond_atom_site_label_1
_geom_bond_atom_site_label_2
_geom_bond_distance
_ccdc_geom_bond_type
C37   C38   1.395690 A    
C50   C51   1.415893 A    
C35   C36   1.407116 A    
N5    O34   1.299406 A    
Zn3   O15   2.028835 S    
C106  H55   1.083120 S    
C79   C110  1.424746 S    
C21   C22   1.401403 A    
C87   C96   1.479829 S    
C77   C95   1.432493 S    
C61   C62   1.403825 A    
C89   H45   1.082420 S    
C103  C108  1.397322 A    
C29   H17   1.085860 S    
O12   Zn4   2.028577 S    
O10   C77   1.282275 A    
O9    C77   1.276081 A    
C57   C58   1.420302 A    
C103  H53   1.082313 S    
C122  H68   1.108622 S    
C74   H40   1.080667 S    
C24   C25   1.405311 A    
C57   C124  1.511208 S    
C48   C49   1.414650 A    
C27   H16   1.077331 S    
Zn1   O7    2.014395 S    
C81   C113  1.441682 S    
C62   C63   1.398697 A    
C125  H77   1.108558 S    
C43   C52   1.481607 S    
C11   H6    1.085780 S    
C115  C116  1.395303 A    
C18   H9    1.082252 S    
C89   C90   1.397713 A    
C95   C96   1.410622 A    
N2    O28   1.301373 A    
C6    H3    1.083486 S    
O17   C81   1.276636 A    
C14   H7    1.085774 S    
C60   C61   1.404928 A    
O7    C4    1.277172 A    
C117  C118  1.398633 A    
C99   C100  1.397642 A    
C74   C75   1.403112 A    
C5    H2    1.082270 S    
C94   H47   1.085166 S    
C1    C33   1.436904 S    
H31   C64   1.082482 S    
C29   C34   1.384430 A    
C5    C10   1.396555 A    
C69   C70   1.410090 A    
C17   H8    1.081845 S    
C21   H11   1.079659 S    
O23   C84   1.277333 A    
C26   C27   1.399597 A    
C123  H69   1.109751 S    
O21   C83   1.278214 A    
C101  C102  1.415130 A    
C93   C102  1.478222 S    
C99   H50   1.081019 S    
O5    C3    1.273824 A    
C26   H15   1.083015 S    
O9    Zn3   2.025225 S    
O1    Zn1   2.025249 S    
C97   H48   1.079322 S    
C71   N3    1.437901 S    
C119  H62   1.083195 S    
C47   H27   1.085845 S    
C27   C28   1.396690 A    
C113  C114  1.418720 A    
C2    C15   1.430742 S    
O22   C83   1.280707 A    
C41   C121  1.500567 S    
N3    O30   1.300994 A    
N4    O32   1.300556 A    
C9    H5    1.075017 S    
C98   H49   1.082363 S    
C111  C112  1.394889 A    
C111  C120  1.480753 S    
C17   C18   1.394113 A    
C33   C34   1.411091 A    
H12   C28   1.082355 S    
C23   C24   1.396717 A    
C37   H20   1.082640 S    
C59   C64   1.397414 A    
C19   C20   1.404572 A    
C66   C84   1.436777 S    
C8    H4    1.083461 S    
C71   C72   1.404332 A    
C86   C87   1.404389 A    
C116  H59   1.082294 S    
C63   C64   1.397225 A    
C91   H46   1.085123 S    
C110  C111  1.401887 A    
C41   C46   1.402935 A    
O19   Zn5   2.028274 S    
C101  N4    1.436092 S    
C65   C70   1.384036 A    
C59   C60   1.398315 A    
C66   C67   1.412995 A    
C88   C89   1.398335 A    
C100  C101  1.401934 A    
O20   C82   1.274476 A    
C97   C98   1.392563 A    
C72   C73   1.392412 A    
C8    C9    1.394187 A    
C19   H10   1.082546 S    
C47   C52   1.376224 A    
O15   C80   1.273818 A    
C125  H76   1.108382 S    
C32   C33   1.395152 A    
C104  C105  1.404368 A    
C115  H58   1.079260 S    
C93   C94   1.381776 A    
O18   Zn6   2.024126 S    
C91   C92   1.396772 A    
N2    O27   1.301664 A    
C36   N2    1.439686 S    
O3    C2    1.272969 A    
C41   C42   1.402713 A    
C121  H63   1.111069 S    
N5    O33   1.301017 A    
O17   Zn5   2.014382 S    
C117  H60   1.080026 S    
C118  H61   1.082040 S    
Zn4   O14   2.025182 S    
C67   C76   1.488600 S    
C105  C114  1.484488 S    
C31   C32   1.384845 A    
C43   C44   1.402854 A    
C39   C40   1.400147 A    
C122  H66   1.107538 S    
C65   H36   1.084380 S    
O1    C1    1.276227 A    
O14   C79   1.276229 A    
C86   H43   1.082565 S    
C20   N1    1.432821 S    
O11   C78   1.285398 A    
C42   H24   1.084283 S    
C56   C123  1.509103 S    
C32   H18   1.085374 S    
C13   C14   1.386414 A    
O10   Zn4   2.012859 S    
C121  H64   1.110401 S    
C11   C16   1.381200 A    
C53   C54   1.390962 A    
C24   H14   1.080277 S    
N1    O25   1.300905 A    
Zn2   O8    2.024225 S    
C56   C57   1.424133 A    
C7    C8    1.401451 A    
C54   C55   1.391452 A    
N4    O31   1.299630 A    
C44   C45   1.398016 A    
C55   H30   1.083771 S    
C124  H73   1.110076 S    
C5    C6    1.397928 A    
C35   C40   1.407339 A    
C55   C56   1.402879 A    
C42   C43   1.404881 A    
C48   C80   1.437163 S    
C73   H39   1.082657 S    
C39   H22   1.076983 S    
O16   C80   1.286246 A    
C7    C16   1.477385 S    
Zn6   O22   2.014169 S    
O19   C82   1.282963 A    
C20   C21   1.406066 A    
C47   C48   1.388768 A    
C116  C117  1.394862 A    
C23   C28   1.395620 A    
C36   C37   1.405515 A    
C119  C120  1.403302 A    
C29   C30   1.395053 A    
C83   C92   1.434782 S    
C75   C76   1.419259 A    
O11   Zn3   2.009873 S    
C63   H35   1.081225 S    
O12   C78   1.275991 A    
C12   C13   1.414942 A    
H23   C46   1.083094 S    
O20   Zn6   2.009684 S    
C100  H51   1.080557 S    
C67   C68   1.383157 A    
O24   C84   1.284205 A    
C105  C106  1.405132 A    
Zn1   O5    2.012715 S    
C125  H75   1.109611 S    
C92   C93   1.406483 A    
C91   C96   1.385118 A    
C106  C107  1.398017 A    
C25   C34   1.479671 S    
C123  H70   1.103060 S    
C49   C50   1.403235 A    
C38   H21   1.081133 S    
Zn2   O6    2.025253 S    
O2    Zn2   2.012714 S    
C17   C22   1.404619 A    
Zn6   O24   2.028404 S    
C115  C120  1.402559 A    
C45   H26   1.081116 S    
O6    C3    1.283819 A    
C97   C102  1.404723 A    
Zn4   O16   2.009964 S    
O4    Zn2   2.014391 S    
C68   C69   1.393196 A    
C72   H38   1.082627 S    
C122  H67   1.109732 S    
C68   H37   1.085445 S    
C109  C114  1.377911 A    
C109  H57   1.086164 S    
Zn5   O21   2.023913 S    
C62   H34   1.083025 S    
C61   C70   1.482108 S    
C11   C12   1.394016 A    
O13   C79   1.276853 A    
C107  H56   1.082355 S    
C85   C86   1.398543 A    
O2    C1    1.284645 A    
O8    C4    1.278244 A    
N1    O26   1.300159 A    
C4    C51   1.432377 S    
C104  H54   1.079683 S    
C88   H44   1.082574 S    
C15   C16   1.407095 A    
C121  H65   1.110357 S    
C14   C15   1.392048 A    
C44   H25   1.083122 S    
C31   C40   1.488711 S    
C53   H28   1.082301 S    
O4    C2    1.284933 A    
C94   C95   1.395317 A    
C85   C90   1.398070 A    
H41   C90   1.082440 S    
H52   C108  1.081566 S    
Zn5   O23   2.009686 S    
C18   C19   1.394477 A    
C54   H29   1.082354 S    
C45   C46   1.397119 A    
C124  H74   1.103680 S    
C6    C7    1.406640 A    
C9    C10   1.396453 A    
C60   H33   1.082785 S    
C49   C58   1.490350 S    
C87   C88   1.403485 A    
C65   C66   1.396758 A    
C73   C74   1.391010 A    
C3    C69   1.431289 S    
C103  C104  1.398199 A    
N3    O29   1.302186 A    
C112  N5    1.439697 S    
C35   H19   1.082845 S    
C23   H13   1.082360 S    
C112  C113  1.417441 A    
C123  H71   1.110667 S    
C85   H42   1.082289 S    
C51   C52   1.407868 A    
H1    C10   1.082151 S    
O3    Zn1   2.024222 S    
C118  C119  1.398289 A    
C25   C26   1.403034 A    
C124  H72   1.107057 S    
Zn3   O13   2.012985 S    
C38   C39   1.396599 A    
O18   C81   1.285371 A    
C59   H32   1.082273 S    
C71   C76   1.419064 A    
C12   C78   1.436940 S    
C30   C31   1.412501 A    
C30   C82   1.430416 S    
C53   C58   1.403014 A    
C13   C22   1.482282 S    
C75   C125  1.509953 S    
C50   C122  1.521659 S    
C98   C99   1.391282 A    
C109  C110  1.386596 A    
C107  C108  1.396984 A    
