data_mof_unit_15896.cif
_audit_creation_date              2013-03-05T15:45:30-0500
_audit_creation_method            fapswitch 2.2
_symmetry_space_group_name_H-M    P1
_symmetry_Int_Tables_number       1
_space_group_crystal_system       triclinic
_cell_length_a                    10.262161
_cell_length_b                    10.983482
_cell_length_c                    13.556684
_cell_angle_alpha                 100.797986
_cell_angle_beta                  85.437604
_cell_angle_gamma                 111.817875
_cell_volume                      1393.37862907

loop_
_atom_site_label
_atom_site_type_symbol
_atom_site_description
_atom_site_fract_x
_atom_site_fract_y
_atom_site_fract_z
_atom_type_partial_charge
O1    O     O_R   0.426290 0.668220 0.490680 -0.532397
O2    O     O_R   0.659360 0.703290 0.520190 -0.530022
C1    C     C_R   0.557961 0.746874 0.510031 0.797504
O3    O     O_R   0.326580 0.473880 0.629020 -0.564724
O4    O     O_R   0.559660 0.508940 0.658530 -0.556285
C2    C     C_R   0.429629 0.496429 0.689426 0.808345
Cu1   Cu    Cu3+1 0.362000 0.479240 0.482530 1.201315
Cu2   Cu    Cu3+1 0.638000 0.520760 0.517470 1.193842
O5    O     O_R   0.340640 0.296710 0.479810 -0.541447
O6    O     O_R   0.573710 0.331780 0.509320 -0.491900
O7    O     O_R   0.440340 0.491060 0.341470 -0.481599
O8    O     O_R   0.673420 0.526120 0.370980 -0.514952
C3    C     C_R   0.440258 0.254891 0.496928 0.896000
C4    C     C_R   0.575516 0.524880 0.312515 0.906909
C5    C     C_R   0.792520 0.698955 0.098286 -0.119279
H1    H     H_    0.899471 0.759305 0.083146 0.238055
C6    C     C_R   0.620095 0.572331 0.212385 -0.243209
C7    C     C_R   0.248499 0.446644 0.821355 -0.165119
C8    C     C_R   0.201112 0.470755 0.918922 0.442109
C9    C     C_R   0.298694 0.538580 0.994256 -0.114204
C10   C     C_R   0.444217 0.572082 0.974927 0.020116
C11   C     C_R   0.488611 0.579451 0.874633 -0.007052
C12   C     C_R   0.547592 0.600748 0.049638 -0.019437
C13   C     C_R   0.689963 0.670138 0.026478 -0.101537
C14   C     C_R   0.726071 0.712612 0.932295 0.381350
C15   C     C_R   0.624978 0.665404 0.857162 -0.105771
C16   C     C_R   0.515040 0.553168 0.142478 0.291506
C17   C     C_R   0.761834 0.650803 0.189335 0.387384
C18   C     C_R   0.391432 0.507070 0.796685 -0.090210
H2    H     H_    0.172327 0.387704 0.763704 0.216512
H3    H     H_    0.257785 0.568729 0.065650 0.236606
H4    H     H_    0.652752 0.699133 0.785896 0.210035
C19   C     C_2   0.588929 0.891701 0.530469 0.194035
C20   C     C_2   0.510440 0.942328 0.485725 0.234940
H5    H     H_    0.348230 0.056249 0.417196 0.209570
C21   C     C_2   0.406647 0.112111 0.484341 -0.284446
C22   C     C_2   0.474381 0.060152 0.535957 0.280444
N1    N     N_2   0.845330 0.551960 0.543750 -0.122213
C23   C     C_2   0.909460 0.479347 0.481071 0.405339
N2    N     N_2   0.154690 0.448120 0.456210 -0.063333
C24   C     C_2   0.068991 0.506818 0.505383 0.362306
S1    S     S_3+6 0.907280 0.699085 0.270494 0.088687
O9    O     O_2   0.935955 0.577877 0.281133 -0.215564
O10   O     O_2   0.037084 0.794452 0.228461 -0.236898
O11   O     O_3   0.873071 0.774645 0.383618 -0.470888
H6    H     H_    0.952525 0.786599 0.426156 0.399087
S2    S     S_3+6 0.465654 0.876779 0.356732 0.034231
O12   O     O_2   0.546558 0.790740 0.311802 -0.324912
O13   O     O_2   0.310781 0.797179 0.349922 -0.213993
O14   O     O_3   0.506116 0.001081 0.290126 -0.507704
H7    H     H_    0.468992 0.956937 0.222094 0.391326
S3    S     S_3+6 0.720700 0.987504 0.621528 0.116559
O15   O     O_2   0.761073 0.134377 0.625336 -0.167515
O16   O     O_2   0.667844 0.952592 0.723035 -0.228838
O17   O     O_3   0.864636 0.948862 0.592245 -0.472856
H8    H     H_    0.927858 0.994350 0.650222 0.395562
S4    S     S_3+6 0.136553 0.632583 0.617164 0.074776
O18   O     O_2   0.080732 0.569266 0.708456 -0.219200
O19   O     O_2   0.290739 0.696800 0.632540 -0.270531
O20   O     O_3   0.080352 0.758498 0.617236 -0.515863
H9    H     H_    0.107046 0.816111 0.683595 0.422452
S5    S     S_3+6 0.802068 0.327003 0.389097 0.136161
O21   O     O_2   0.774803 0.210820 0.441490 -0.227331
O22   O     O_2   0.662642 0.310412 0.351954 -0.270543
O23   O     O_3   0.861973 0.293930 0.273404 -0.410548
H10   H     H_    0.810699 0.197713 0.249359 0.399010
S6    S     S_3+6 0.120332 0.323092 0.350689 0.219089
O24   O     O_2   0.000930 0.199758 0.368979 -0.224635
O25   O     O_2   0.100517 0.378145 0.262806 -0.118030
O26   O     O_3   0.252313 0.268903 0.314373 -0.456126
H11   H     H_    0.212843 0.189920 0.261522 0.385250
N3    N     N_R   0.839012 0.532295 0.642513 0.272762
O27   O     O_R   0.841840 0.629376 0.714390 -0.270805
O28   O     O_R   0.799427 0.412498 0.663085 -0.222245
N4    N     N_R   0.865201 0.799053 0.909892 0.138838
O29   O     O_R   0.970688 0.760464 0.910113 -0.252809
O30   O     O_R   0.881617 0.901596 0.868476 -0.281668
N5    N     N_R   0.372932 0.490164 0.168881 0.126612
O31   O     O_R   0.303461 0.367407 0.128756 -0.291911
O32   O     O_R   0.309939 0.563053 0.223563 -0.238546
S7    S     S_3+6 0.020371 0.414861 0.948641 0.115524
O33   O     O_2   0.984917 0.529938 0.005589 -0.244703
O34   O     O_2   0.933847 0.356776 0.855044 -0.181680
O35   O     O_3   0.984838 0.298231 0.021747 -0.438745
H12   H     H_    0.886485 0.281109 0.044638 0.394704
N6    N     N_R   0.480399 0.098079 0.643830 0.156511
O36   O     O_R   0.511916 0.221791 0.686294 -0.287175
O37   O     O_R   0.427000 0.006142 0.699271 -0.269971

loop_
_geom_bond_atom_site_label_1
_geom_bond_atom_site_label_2
_geom_bond_distance
_ccdc_geom_bond_type
O17   H8    0.990632 S    
C15   H4    1.078741 S    
C11   C18   1.416601 A    
C20   C22   1.503689 S    
C8    C9    1.387041 A    
C16   N5    1.411870 S    
S7    O33   1.502496 D    
S4    O18   1.502362 D    
Cu1   Cu2   2.761697 S    
S2    O13   1.503035 D    
O11   H6    0.990694 S    
C19   S3    1.783507 S    
Cu1   O7    2.022607 S    
Cu2   N1    2.074646 S    
C21   C22   1.349207 D    
O1    C1    1.320888 A    
O4    C2    1.330896 A    
O7    C4    1.342147 A    
N5    O32   1.301696 A    
S4    O19   1.487404 D    
C1    C19   1.476891 S    
C5    H1    1.077259 S    
C7    C8    1.385019 A    
O5    C3    1.317808 A    
S5    O22   1.490114 D    
H5    C21   1.081002 S    
N2    S6    1.743784 S    
Cu1   N2    2.074784 S    
O26   H11   0.990996 S    
C7    H2    1.082792 S    
C12   C16   1.420764 A    
S3    O17   1.681998 S    
C10   C11   1.406436 A    
C4    C6    1.520715 S    
S1    O10   1.504008 D    
O3    Cu1   1.998131 S    
S7    O34   1.503436 D    
S3    O16   1.503083 D    
C19   C20   1.364899 D    
S2    O14   1.683030 S    
N1    N3    1.388395 S    
S6    O24   1.497209 D    
C6    C16   1.422633 A    
C22   N6    1.443240 S    
O35   H12   0.990621 S    
C3    C21   1.454106 S    
N3    O28   1.302404 A    
N6    O36   1.300842 A    
S4    O20   1.684507 S    
C14   C15   1.397480 A    
O20   H9    0.990866 S    
C14   N4    1.436539 S    
S1    O11   1.678664 S    
N4    O29   1.301373 A    
S5    O21   1.501260 D    
S2    O12   1.496802 D    
Cu2   O8    1.998129 S    
O14   H7    0.990898 S    
C7    C18   1.409018 A    
C13   C14   1.415830 A    
N4    O30   1.301135 A    
O3    C2    1.310479 A    
C5    C13   1.398373 A    
O8    C4    1.322988 A    
C10   C12   1.433015 A    
S1    O9    1.499867 D    
S7    O35   1.681414 S    
S3    O15   1.500682 D    
Cu1   O5    1.927597 S    
C23   S5    1.906623 S    
N2    C24   1.341879 D    
S5    O23   1.664011 S    
O1    Cu1   1.914051 S    
C6    C17   1.432819 A    
O2    Cu2   1.927594 S    
N3    O27   1.295954 A    
O6    C3    1.319366 A    
O4    Cu2   2.022607 S    
S6    O26   1.677604 S    
O2    C1    1.322376 A    
C24   S4    1.831963 S    
N5    O31   1.301714 A    
C5    C17   1.400498 A    
N1    C23   1.355895 D    
C17   S1    1.781536 S    
N6    O37   1.300911 A    
C12   C13   1.415295 A    
C2    C18   1.470156 S    
C9    C10   1.414091 A    
C23   C24   1.600395 S    
Cu2   O6    1.914053 S    
O23   H10   0.992390 S    
C11   C15   1.398131 A    
C20   S2    1.788229 S    
S6    O25   1.492067 D    
C8    S7    1.762623 S    
C9    H3    1.068300 S    
