data_mof_unit_26488.cif
_audit_creation_date              2012-12-10T17:58:29-0500
_audit_creation_method            fapswitch 2.2
_symmetry_space_group_name_H-M    P1
_symmetry_Int_Tables_number       1
_space_group_crystal_system       triclinic
_cell_length_a                    18.296706
_cell_length_b                    25.923945
_cell_length_c                    18.29188
_cell_angle_alpha                 89.982243
_cell_angle_beta                  89.855331
_cell_angle_gamma                 89.966536
_cell_volume                      8676.2261896

loop_
_atom_site_label
_atom_site_type_symbol
_atom_type_description
_atom_site_fract_x
_atom_site_fract_y
_atom_site_fract_z
_atom_type_partial_charge
C1    C     C_R   0.639310 0.750830 0.359233 0.542558
C2    C     C_R   0.860648 0.749188 0.140742 0.544070
C3    C     C_R   0.720030 0.704062 0.276251 -0.135387
C4    C     C_R   0.719587 0.704121 0.724372 -0.145159
C5    C     C_R   0.284023 0.294764 0.271051 -0.145022
C6    C     C_R   0.285457 0.705495 0.269738 -0.152696
C7    C     C_R   0.718668 0.295805 0.725091 -0.135673
C8    C     C_R   0.222652 0.796270 0.778860 -0.146269
C9    C     C_R   0.780915 0.204116 0.224613 -0.136051
C10   C     C_R   0.779652 0.795898 0.223544 -0.150347
C11   C     C_R   0.223616 0.203751 0.779773 -0.144421
C12   C     C_R   0.217145 0.203785 0.226519 -0.151308
C13   C     C_R   0.860701 0.250869 0.140798 0.541536
C14   C     C_R   0.780159 0.795876 0.775872 -0.141744
C15   C     C_R   0.781292 0.204185 0.774907 -0.144460
C16   C     C_R   0.215475 0.796051 0.227872 -0.137230
C17   C     C_3   0.368304 0.603067 0.385243 -0.353453
C18   C     C_3   0.394923 0.402006 0.647857 -0.341631
C19   C     C_3   0.395234 0.597978 0.648049 -0.341087
C20   C     C_3   0.368301 0.397126 0.385244 -0.352735
C21   C     C_3   0.108793 0.081748 0.862729 -0.344477
C22   C     C_3   0.891311 0.918228 0.137273 -0.344418
C23   C     C_3   0.107332 0.081545 0.137901 -0.343933
C24   C     C_R   0.139484 0.749403 0.859422 0.552733
C25   C     C_3   0.892608 0.918481 0.862055 -0.343249
C26   C     C_R   0.139390 0.749265 0.140659 0.540195
C27   C     C_R   0.860657 0.250875 0.859175 0.551297
C28   C     C_R   0.860624 0.749189 0.859217 0.536198
C29   C     C_R   0.139464 0.250638 0.140591 0.543018
C30   C     C_R   0.694934 0.248367 0.302557 -0.011802
C31   C     C_R   0.304820 0.751638 0.697267 -0.020612
C32   C     C_R   0.304845 0.248387 0.697288 -0.005284
C33   C     C_R   0.360569 0.249235 0.640687 0.545252
C34   C     C_R   0.694874 0.751544 0.302567 -0.026176
C35   C     C_R   0.694917 0.751567 0.697487 -0.012078
C36   C     C_R   0.305486 0.247748 0.301769 -0.022841
C37   C     C_R   0.305428 0.752382 0.301755 -0.008770
C38   C     C_R   0.694955 0.248369 0.697447 -0.026869
C39   C     C_R   0.194972 0.748838 0.802757 -0.009757
C40   C     C_R   0.805102 0.251595 0.197435 -0.026691
C41   C     C_R   0.804987 0.748443 0.197358 -0.007812
C42   C     C_R   0.195038 0.251119 0.802847 -0.020694
C43   C     C_R   0.195188 0.251122 0.196884 -0.009212
C44   C     C_R   0.360563 0.750783 0.640699 0.536623
C45   C     C_R   0.804989 0.748447 0.802609 -0.023168
C46   C     C_R   0.805008 0.251621 0.802562 -0.012462
C47   C     C_R   0.195091 0.748793 0.196944 -0.027507
C48   C     C_R   0.433609 0.973303 0.499159 -0.079633
C49   C     C_R   0.566381 0.026699 0.500794 -0.082701
C50   C     C_R   0.566368 0.973243 0.500666 -0.082392
C51   C     C_R   0.433626 0.026759 0.499046 -0.085775
C52   C     C_R   0.933619 0.473304 0.999362 -0.080844
C53   C     C_R   0.066393 0.526699 0.000820 -0.086392
C54   C     C_R   0.066379 0.473242 0.000710 -0.081286
C55   C     C_R   0.639296 0.249113 0.359188 0.551586
C56   C     C_R   0.933635 0.526759 0.999228 -0.082283
C57   C     C_R   0.500012 0.053707 0.499950 0.052952
C58   C     C_R   0.499981 0.946294 0.499942 0.055972
C59   C     C_R   0.000021 0.553708 0.000010 0.052714
C60   C     C_R   0.999989 0.446294 0.000026 0.055847
C61   C     C_R   0.499986 0.890202 0.499987 0.572883
C62   C     C_R   0.500012 0.109798 0.499991 0.569534
C63   C     C_R   0.999988 0.390202 0.000006 0.572579
C64   C     C_R   0.000014 0.609798 0.999998 0.569004
C65   C     C_R   0.491629 0.609689 0.500627 0.507353
C66   C     C_R   0.639331 0.249116 0.640831 0.544459
C67   C     C_R   0.491643 0.390317 0.500611 0.507175
C68   C     C_R   0.007310 0.109618 0.000007 0.497640
C69   C     C_R   0.992690 0.890382 0.999988 0.497331
C70   C     C_R   0.409079 0.553180 0.379142 0.026036
C71   C     C_R   0.445781 0.447218 0.640011 0.036770
C72   C     C_R   0.446003 0.552699 0.640084 0.036230
C73   C     C_R   0.409164 0.446943 0.379111 0.025972
C74   C     C_R   0.047023 0.043290 0.866298 0.033658
C75   C     C_R   0.953016 0.956715 0.133681 0.033640
C76   C     C_R   0.045575 0.043149 0.133956 0.033467
C77   C     C_R   0.360826 0.751148 0.358881 0.539582
C78   C     C_R   0.954436 0.956843 0.866007 0.033259
C79   C     C_R   0.399344 0.526692 0.313491 -0.078087
C80   C     C_R   0.460298 0.473274 0.705103 -0.084946
C81   C     C_R   0.460457 0.526526 0.705134 -0.085200
C82   C     C_R   0.399394 0.473476 0.313472 -0.078213
C83   C     C_R   0.025545 0.020568 0.800403 -0.085469
C84   C     C_R   0.974504 0.979427 0.199577 -0.084295
C85   C     C_R   0.023373 0.020397 0.199721 -0.083880
C86   C     C_R   0.976661 0.979599 0.800250 -0.085095
C87   C     C_R   0.440741 0.472473 0.440225 0.019771
C88   C     C_R   0.360808 0.248929 0.358922 0.530998
C89   C     C_R   0.458442 0.527494 0.571757 0.018707
C90   C     C_R   0.458381 0.472472 0.571732 0.018848
C91   C     C_R   0.440706 0.527602 0.440244 0.019840
C92   C     C_R   0.983482 0.975445 0.933213 0.021466
C93   C     C_R   0.016527 0.024551 0.066756 0.021483
C94   C     C_R   0.982741 0.975397 0.066653 0.021658
C95   C     C_R   0.017272 0.024605 0.933320 0.021640
C96   C     C_R   0.464346 0.445518 0.503800 -0.012671
C97   C     C_R   0.464344 0.554500 0.503829 -0.012724
C98   C     C_R   0.979268 0.947583 0.999927 -0.021555
C99   C     C_R   0.639340 0.750834 0.640816 0.553318
C100  C     C_R   0.020736 0.052417 0.000050 -0.021571
C101  C     C_R   0.278133 0.798310 0.726701 0.192611
C102  C     C_R   0.725322 0.201761 0.276512 0.242675
C103  C     C_R   0.724223 0.798167 0.275597 0.194544
C104  C     C_R   0.279057 0.201732 0.727567 0.249171
C105  C     C_R   0.272516 0.201342 0.278507 0.196294
C106  C     C_R   0.724734 0.798176 0.723969 0.246457
C107  C     C_R   0.725847 0.201827 0.723036 0.190124
C108  C     C_R   0.270930 0.798635 0.279774 0.244188
C109  C     C_R   0.774706 0.298178 0.223458 0.188687
C110  C     C_R   0.139521 0.250550 0.859476 0.537061
C111  C     C_R   0.221243 0.702231 0.772916 0.247622
C112  C     C_R   0.220625 0.297692 0.772387 0.196722
C113  C     C_R   0.775645 0.701793 0.224334 0.242794
C114  C     C_R   0.775080 0.701849 0.776232 0.189780
C115  C     C_R   0.228227 0.297416 0.219985 0.249226
C116  C     C_R   0.229645 0.702709 0.218761 0.195426
C117  C     C_R   0.774161 0.298180 0.776922 0.240632
C118  C     C_R   0.719143 0.295841 0.275375 -0.142812
C119  C     C_R   0.276433 0.704371 0.720632 -0.145956
C120  C     C_R   0.275737 0.295608 0.720006 -0.155564
H1    H     H_    0.456561 0.546342 0.757177 0.144930
H2    H     H_    0.296132 0.669118 0.696299 0.147633
H3    H     H_    0.294855 0.330861 0.695179 0.147291
H4    H     H_    0.697181 0.668619 0.297833 0.183229
H5    H     H_    0.696450 0.668655 0.703317 0.181999
H6    H     H_    0.309658 0.329923 0.288106 0.149590
H7    H     H_    0.312314 0.670466 0.285627 0.151745
H8    H     H_    0.694775 0.331211 0.704604 0.182612
H9    H     H_    0.201806 0.831736 0.802355 0.177342
H10   H     H_    0.804521 0.168703 0.203721 0.180641
H11   H     H_    0.802140 0.831343 0.201799 0.155140
H12   H     H_    0.379786 0.453522 0.265278 0.166105
H13   H     H_    0.203624 0.168363 0.804049 0.152843
H14   H     H_    0.192024 0.168474 0.207618 0.157187
H15   H     H_    0.803032 0.831300 0.797139 0.155753
H16   H     H_    0.805154 0.168756 0.795364 0.180898
H17   H     H_    0.188926 0.831222 0.210029 0.183119
H18   H     H_    0.381721 0.953219 0.498589 0.167005
H19   H     H_    0.618267 0.046781 0.501589 0.168689
H20   H     H_    0.618252 0.953114 0.501162 0.167382
H21   H     H_    0.381744 0.046890 0.498211 0.171230
H22   H     H_    0.881730 0.453223 0.998918 0.168441
H23   H     H_    0.379730 0.546683 0.265300 0.168040
H24   H     H_    0.118281 0.546782 0.001573 0.170582
H25   H     H_    0.118263 0.453111 0.001197 0.166054
H26   H     H_    0.881754 0.546889 0.998479 0.169895
H27   H     H_    0.363605 0.617722 0.441953 0.111864
H28   H     H_    0.396506 0.630762 0.349523 0.183467
H29   H     H_    0.311346 0.597783 0.365779 0.159426
H30   H     H_    0.374291 0.387544 0.594686 0.125766
H31   H     H_    0.422769 0.371126 0.679003 0.183514
H32   H     H_    0.346041 0.414274 0.679544 0.160652
H33   H     H_    0.423194 0.628810 0.679121 0.183234
H34   H     H_    0.456291 0.453412 0.757118 0.144884
H35   H     H_    0.374459 0.612479 0.594933 0.126820
H36   H     H_    0.346429 0.585747 0.679847 0.161654
H37   H     H_    0.396216 0.369394 0.349299 0.183236
H38   H     H_    0.363763 0.382363 0.441918 0.111621
H39   H     H_    0.311269 0.402651 0.366116 0.161914
H40   H     H_    0.090865 0.116585 0.832439 0.170416
H41   H     H_    0.128957 0.092922 0.917616 0.123648
H42   H     H_    0.155783 0.064426 0.833009 0.172735
H43   H     H_    0.871080 0.907078 0.082401 0.123113
H44   H     H_    0.909411 0.883404 0.167470 0.170178
H45   H     H_    0.043502 0.034875 0.251457 0.148993
H46   H     H_    0.844350 0.935491 0.167099 0.174658
H47   H     H_    0.128199 0.092678 0.083146 0.123165
H48   H     H_    0.088941 0.116375 0.167960 0.169893
H49   H     H_    0.153911 0.064214 0.168015 0.175670
H50   H     H_    0.910826 0.883641 0.831892 0.170219
H51   H     H_    0.871791 0.907319 0.916817 0.124125
H52   H     H_    0.846015 0.935882 0.832038 0.174694
H53   H     H_    0.423100 0.843216 0.742366 0.348848
H54   H     H_    0.701114 0.094612 0.402930 0.370783
H55   H     H_    0.581722 0.847292 0.261488 0.346816
H56   H     H_    0.956536 0.965128 0.748510 0.147352
H57   H     H_    0.311845 0.091284 0.609175 0.370920
H58   H     H_    0.411079 0.146765 0.266560 0.348329
H59   H     H_    0.700830 0.906096 0.598892 0.370947
H60   H     H_    0.585058 0.150449 0.737212 0.350689
H61   H     H_    0.287459 0.901250 0.414490 0.371585
H62   H     H_    0.916129 0.348659 0.237388 0.346806
H63   H     H_    0.190021 0.591610 0.891503 0.370874
H64   H     H_    0.074458 0.341092 0.756935 0.349034
H65   H     H_    0.801882 0.593822 0.099816 0.371565
H66   H     H_    0.917002 0.651978 0.761642 0.350795
H67   H     H_    0.046214 0.035088 0.748791 0.146551
H68   H     H_    0.209426 0.402485 0.089102 0.370794
H69   H     H_    0.093304 0.645450 0.231776 0.348056
H70   H     H_    0.796976 0.404956 0.904021 0.371741
H71   H     H_    0.953854 0.964899 0.251192 0.148093
H72   H     H_    0.695583 0.331281 0.296236 0.183977
O1    O     O_3   0.500000 0.750040 0.500000 -0.478502
O2    O     O_R   0.414580 0.719700 0.353880 -0.576748
O3    O     O_3   0.772717 0.372491 0.889088 -0.469523
O4    O     O_R   0.414580 0.280300 0.353880 -0.576414
O5    O     O_R   0.585420 0.719700 0.646120 -0.544262
O6    O     O_R   0.085420 0.219700 0.853880 -0.566932
O7    O     O_R   0.914580 0.780300 0.146120 -0.566174
O8    O     O_R   0.914580 0.219700 0.146120 -0.545901
O9    O     O_R   0.085420 0.780300 0.853880 -0.541890
O10   O     O_R   0.085420 0.780300 0.146120 -0.546895
O11   O     O_R   0.914580 0.219700 0.853880 -0.544297
O12   O     O_R   0.914580 0.780300 0.853880 -0.567009
O13   O     O_3   0.500000 0.249960 0.500000 -0.479178
O14   O     O_R   0.085420 0.219700 0.146120 -0.568371
O15   O     O_R   0.646120 0.780390 0.585510 -0.470941
O16   O     O_R   0.353880 0.219610 0.414490 -0.463605
O17   O     O_R   0.353880 0.780390 0.414490 -0.469965
O18   O     O_R   0.646120 0.219610 0.585510 -0.464144
O19   O     O_R   0.646120 0.219610 0.414490 -0.472099
O20   O     O_R   0.353880 0.780390 0.585510 -0.466670
O21   O     O_R   0.353880 0.219610 0.585510 -0.473517
O22   O     O_R   0.646120 0.780390 0.414490 -0.465947
O23   O     O_R   0.146120 0.280390 0.085510 -0.469665
O24   O     O_3   0.000000 0.250040 0.000000 -0.479034
O25   O     O_R   0.853880 0.719610 0.914490 -0.465657
O26   O     O_R   0.853880 0.280390 0.914490 -0.471364
O27   O     O_R   0.146120 0.719610 0.085510 -0.461960
O28   O     O_R   0.146120 0.719610 0.914490 -0.473423
O29   O     O_R   0.853880 0.280390 0.085510 -0.465473
O30   O     O_R   0.853880 0.719610 0.085510 -0.473176
O31   O     O_R   0.146120 0.280390 0.914490 -0.467815
O32   O     O_R   0.560660 0.865840 0.500000 -0.499105
O33   O     O_R   0.439340 0.134160 0.500000 -0.497664
O34   O     O_R   0.439340 0.865840 0.500000 -0.499718
O35   O     O_3   0.000000 0.749960 0.000000 -0.479734
O36   O     O_R   0.560660 0.134160 0.500000 -0.499789
O37   O     O_R   0.060660 0.365840 0.000000 -0.499731
O38   O     O_R   0.939340 0.634160 0.000000 -0.499528
O39   O     O_R   0.939340 0.365840 0.000000 -0.499518
O40   O     O_R   0.060660 0.634160 0.000000 -0.498114
O41   O     O_R   0.500000 0.634240 0.439310 -0.539058
O42   O     O_R   0.500000 0.365760 0.560690 -0.549256
O43   O     O_R   0.500000 0.634240 0.560690 -0.549426
O44   O     O_R   0.500000 0.365760 0.439310 -0.539322
O45   O     O_R   0.000000 0.134240 0.939310 -0.544278
O46   O     O_R   0.585420 0.719700 0.353880 -0.542530
O47   O     O_R   1.000000 0.865760 0.060690 -0.544112
O48   O     O_R   0.000000 0.134240 0.060690 -0.544538
O49   O     O_R   0.000000 0.865760 0.939310 -0.545246
O50   O     O_2   0.283000 0.875408 0.629870 -0.207442
O51   O     O_2   0.294946 0.899327 0.758527 -0.251270
O52   O     O_3   0.406017 0.856166 0.694406 -0.476161
O53   O     O_2   0.610982 0.140221 0.306776 -0.270235
O54   O     O_2   0.718654 0.099226 0.251965 -0.250539
O55   O     O_3   0.725893 0.126933 0.388068 -0.470729
O56   O     O_2   0.723131 0.873408 0.375437 -0.205390
O57   O     O_R   0.414580 0.280300 0.646120 -0.574625
O58   O     O_2   0.712688 0.900195 0.247783 -0.272819
O59   O     O_3   0.599331 0.858775 0.309986 -0.478535
O60   O     O_2   0.398530 0.144364 0.700935 -0.266735
O61   O     O_2   0.294965 0.100757 0.759499 -0.268602
O62   O     O_3   0.284725 0.123193 0.621594 -0.474324
O63   O     O_2   0.268712 0.129636 0.383489 -0.202872
O64   O     O_2   0.276350 0.098197 0.257777 -0.275478
O65   O     O_3   0.392996 0.137455 0.315912 -0.475008
O66   O     O_2   0.609881 0.859292 0.694110 -0.261941
O67   O     O_2   0.716742 0.900550 0.749428 -0.271812
O68   O     O_R   0.414580 0.719700 0.646120 -0.577156
O69   O     O_3   0.725149 0.873464 0.613093 -0.473852
O70   O     O_2   0.726617 0.127950 0.621131 -0.204211
O71   O     O_2   0.717760 0.099276 0.748122 -0.252579
O72   O     O_3   0.602751 0.139802 0.688266 -0.476142
O73   O     O_2   0.379974 0.863701 0.313774 -0.264013
O74   O     O_2   0.268633 0.902086 0.263223 -0.251815
O75   O     O_3   0.264685 0.868884 0.397004 -0.471843
O76   O     O_2   0.774811 0.372607 0.122297 -0.200024
O77   O     O_2   0.784058 0.400529 0.249528 -0.241324
O78   O     O_3   0.898551 0.359646 0.188632 -0.481888
O79   O     O_R   0.585420 0.280300 0.353880 -0.541061
O80   O     O_2   0.102308 0.644509 0.800461 -0.265997
O81   O     O_2   0.205614 0.601203 0.741022 -0.271735
O82   O     O_3   0.216914 0.623551 0.878837 -0.475063
O83   O     O_2   0.214950 0.375934 0.867247 -0.210877
O84   O     O_2   0.201178 0.398136 0.738141 -0.271811
O85   O     O_3   0.091742 0.354663 0.804458 -0.473244
O86   O     O_2   0.891280 0.641195 0.194904 -0.271966
O87   O     O_2   0.784635 0.599567 0.250674 -0.238807
O88   O     O_3   0.776525 0.626062 0.114102 -0.468255
O89   O     O_2   0.775650 0.627168 0.876990 -0.202170
O90   O     O_R   0.585420 0.280300 0.646120 -0.544999
O91   O     O_2   0.785429 0.599613 0.749583 -0.242440
O92   O     O_3   0.899411 0.640772 0.810376 -0.475040
O93   O     O_2   0.117252 0.361650 0.188103 -0.261438
O94   O     O_2   0.227423 0.400700 0.239858 -0.289370
O95   O     O_3   0.232355 0.369768 0.105110 -0.473215
O96   O     O_2   0.234551 0.631853 0.112523 -0.201366
O97   O     O_2   0.229797 0.599202 0.237707 -0.292336
O98   O     O_3   0.110987 0.636922 0.182000 -0.475035
O99   O     O_2   0.887847 0.360152 0.807228 -0.264078
O100  O     O_2   0.779825 0.400851 0.753187 -0.240757
S1    S     S_3+6 0.314495 0.859385 0.702190 0.062363
S2    S     S_3+6 0.184282 0.641166 0.796674 0.047260
S3    S     S_3+6 0.183105 0.358695 0.795674 0.053689
S4    S     S_3+6 0.809138 0.640339 0.197543 0.060814
S5    S     S_3+6 0.807734 0.640320 0.803621 0.066705
S6    S     S_3+6 0.199357 0.359310 0.189713 0.044929
S7    S     S_3+6 0.202610 0.640731 0.187233 0.050189
S8    S     S_3+6 0.805694 0.359782 0.805105 0.060349
S9    S     S_3+6 0.693139 0.140188 0.304322 0.055706
S10   S     S_3+6 0.690977 0.859675 0.302489 0.054753
S11   S     S_3+6 0.316555 0.140803 0.704048 0.049687
S12   S     S_3+6 0.301353 0.139682 0.309381 0.056001
S13   S     S_3+6 0.692018 0.859701 0.696678 0.049552
S14   S     S_3+6 0.694448 0.140198 0.694775 0.061908
S15   S     S_3+6 0.297950 0.860307 0.312080 0.056678
S16   S     S_3+6 0.806855 0.359765 0.195641 0.066414
Zn1   Zn    Zn3+2 0.500000 0.706650 0.586810 0.937477
Zn2   Zn    Zn3+2 0.413290 0.206580 0.500000 1.076087
Zn3   Zn    Zn3+2 0.413290 0.793420 0.500000 1.075008
Zn4   Zn    Zn3+2 0.586710 0.206580 0.500000 1.089308
Zn5   Zn    Zn3+2 0.086710 0.293420 0.000000 1.077216
Zn6   Zn    Zn3+2 0.913290 0.706580 0.000000 1.077813
Zn7   Zn    Zn3+2 0.913290 0.293420 0.000000 1.089086
Zn8   Zn    Zn3+2 0.086710 0.706580 0.000000 1.089345
Zn9   Zn    Zn3+2 0.500000 0.293350 0.413190 0.946201
Zn10  Zn    Zn3+2 0.500000 0.706650 0.413190 0.945359
Zn11  Zn    Zn3+2 0.500000 0.293350 0.586810 0.938388
Zn12  Zn    Zn3+2 1.000000 0.206650 0.086810 0.943674
Zn13  Zn    Zn3+2 0.000000 0.793350 0.913190 0.946846
Zn14  Zn    Zn3+2 0.000000 0.206650 0.913190 0.946074
Zn15  Zn    Zn3+2 0.000000 0.793350 0.086810 0.944466
Zn16  Zn    Zn3+2 0.586710 0.793420 0.500000 1.089762

loop_
_geom_bond_atom_site_label_1
_geom_bond_atom_site_label_2
_ccdc_geom_bond_type
C13   O8    A    
C87   C91   A    
C19   H35   S    
O25   Zn6   S    
C88   O4    A    
O73   S15   D    
C74   C83   A    
C109  S16   S    
C4    H5    S    
C31   C101  A    
O56   S10   D    
C6    H7    S    
H60   O72   S    
C50   H20   S    
C2    C41   S    
C5    C36   A    
O92   S5    S    
O59   S10   S    
C66   O90   A    
C10   H11   S    
O30   Zn6   S    
C5    H6    S    
C32   C104  A    
C51   C57   A    
C7    H8    S    
O35   Zn13  S    
O13   Zn9   S    
C69   C98   S    
C25   H51   S    
C113  S4    S    
C39   C111  A    
C111  S2    S    
C20   H38   S    
C10   C41   A    
C88   O16   A    
C18   H32   S    
C110  O31   A    
C91   C97   A    
C109  C118  A    
C14   C45   A    
C47   C116  A    
C24   O9    A    
C37   C108  A    
C68   O48   A    
C112  C120  A    
C33   O21   A    
C3    C34   A    
C25   C78   S    
C46   C117  A    
C81   H1    S    
O85   S3    S    
H68   O95   S    
O86   S4    D    
C30   C102  A    
O45   Zn14  S    
C80   H34   S    
C69   O47   A    
C93   C100  A    
C6    C116  A    
C26   C47   S    
C54   H25   S    
C23   H47   S    
O29   Zn7   S    
C27   C46   S    
C19   H33   S    
C55   O79   A    
O61   S11   D    
O18   Zn4   S    
C4    C114  A    
C18   C71   S    
C70   C79   A    
C112  S3    S    
O20   Zn3   S    
C41   C113  A    
C62   O33   A    
C56   C59   A    
C48   H18   S    
O1    Zn16  S    
C85   H45   S    
C101  S1    S    
H59   O69   S    
C20   C73   S    
C52   H22   S    
O64   S12   D    
O12   Zn13  S    
C29   O14   A    
C22   H46   S    
C83   C86   A    
O14   Zn12  S    
C27   O26   A    
C89   C97   A    
C8    H9    S    
C18   H30   S    
C76   C85   A    
O95   S6    S    
O93   S6    D    
C7    C117  A    
C70   C91   A    
C23   C76   S    
O6    Zn14  S    
O13   Zn2   S    
O67   S13   D    
C53   C54   A    
C36   C88   S    
C84   H71   S    
O27   Zn8   S    
C27   O11   A    
C75   C84   A    
C29   O23   A    
C14   H15   S    
C49   C57   A    
O31   Zn5   S    
C111  C119  A    
C38   C107  A    
C42   C112  A    
O10   Zn15  S    
C52   C60   A    
O7    Zn15  S    
C45   C114  A    
O78   S16   S    
O54   S9    D    
C114  S5    S    
O16   Zn2   S    
C66   O18   A    
C12   H14   S    
C5    C115  A    
O69   S13   S    
O2    Zn10  S    
C16   C47   A    
C24   O28   A    
C1    C34   S    
C51   H21   S    
C107  S14   S    
O40   Zn8   S    
C67   O44   A    
C2    O7    A    
O97   S7    D    
C17   H28   S    
C15   H16   S    
C30   C118  A    
C78   C92   A    
O58   S10   D    
O46   Zn10  S    
O13   Zn11  S    
C68   C100  S    
O66   S13   D    
O9    Zn13  S    
C44   O68   A    
C22   H44   S    
O91   S5    D    
H55   O59   S    
C23   H49   S    
C14   C106  A    
O79   Zn9   S    
O99   S8    D    
O83   S3    D    
H70   O3    S    
O24   Zn5   S    
C49   H19   S    
O26   Zn7   S    
C1    O22   A    
O13   Zn4   S    
O50   S1    D    
C63   O39   A    
O53   S9    D    
C21   H42   S    
C26   O27   A    
C13   O29   A    
O57   Zn11  S    
C79   C82   A    
C90   C96   A    
C34   C103  A    
C53   H24   S    
C42   C110  S    
C61   O32   A    
C64   O38   A    
C69   O49   A    
C71   C90   A    
O4    Zn9   S    
C58   C61   S    
C62   O36   A    
O35   Zn8   S    
O88   S4    S    
O75   S15   S    
C49   C50   A    
C15   C46   A    
O8    Zn12  S    
O80   S2    D    
C25   H50   S    
C67   O42   A    
C28   O25   A    
C110  O6    A    
O33   Zn2   S    
O23   Zn5   S    
C9    H10   S    
H57   O62   S    
C65   O41   A    
C10   C103  A    
C68   O45   A    
C12   C105  A    
O52   S1    S    
C94   C98   A    
C2    O30   A    
C24   C39   S    
C11   C42   A    
C15   C107  A    
C73   C87   A    
C13   C40   S    
C118  H72   S    
O24   Zn7   S    
C116  S7    S    
C9    C102  A    
O19   Zn4   S    
C11   C104  A    
C8    C101  A    
C72   C81   A    
C120  H3    S    
C63   O37   A    
C4    C35   A    
C29   C43   S    
C19   H36   S    
O37   Zn5   S    
O74   S15   D    
H54   O55   S    
C50   C58   A    
C84   C85   A    
O89   S5    D    
C64   O40   A    
C95   C100  A    
H63   O82   S    
C37   C77   S    
O35   Zn6   S    
C77   O2    A    
O21   Zn2   S    
H58   O65   S    
C76   C93   A    
O48   Zn12  S    
O1    Zn1   S    
O1    Zn10  S    
C33   O57   A    
C31   C119  A    
O38   Zn6   S    
H66   O92   S    
C25   H52   S    
H62   O78   S    
C104  S11   S    
C20   H37   S    
C60   C63   S    
C21   H40   S    
O100  S8    D    
C82   H12   S    
C18   H31   S    
O72   S14   S    
C73   C82   A    
C3    H4    S    
O24   Zn12  S    
C26   O10   A    
C36   C105  A    
O49   Zn13  S    
O41   Zn10  S    
C65   O43   A    
C61   O34   A    
O71   S14   D    
O28   Zn8   S    
O65   S12   S    
C48   C58   A    
C40   C109  A    
O3    S8    S    
C30   C55   S    
C32   C33   S    
O82   S2    S    
C102  S9    S    
H53   O52   S    
O96   S7    D    
C9    C40   A    
C56   H26   S    
O42   Zn11  S    
C23   H48   S    
O11   Zn14  S    
O32   Zn16  S    
O39   Zn7   S    
O47   Zn15  S    
C89   C90   A    
O62   S11   S    
C75   C94   A    
C93   C94   A    
C72   C89   A    
O68   Zn1   S    
C16   H17   S    
C53   C59   A    
C92   C98   A    
C57   C62   S    
C54   C60   A    
C117  S8    S    
C59   C64   S    
C115  S6    S    
C17   H27   S    
C12   C43   A    
C11   H13   S    
O44   Zn9   S    
O87   S4    D    
O1    Zn3   S    
O63   S12   D    
C43   C115  A    
H61   O75   S    
C48   C51   A    
C38   C66   S    
C108  S15   S    
C20   H39   S    
C8    C39   A    
C77   O17   A    
C78   C86   A    
C17   C70   S    
C83   H67   S    
C19   C72   S    
C22   C75   S    
C32   C120  A    
C35   C99   S    
C71   C80   A    
O76   S16   D    
C79   H23   S    
C28   C45   S    
C21   H41   S    
C31   C44   S    
C28   O12   A    
O24   Zn14  S    
C3    C113  A    
O84   S3    D    
H64   O85   S    
C21   C74   S    
C92   C95   A    
O70   S14   D    
O15   Zn16  S    
O5    Zn1   S    
C44   O20   A    
C105  S12   S    
O90   Zn11  S    
O77   S16   D    
C106  S13   S    
C87   C96   A    
C99   O5    A    
C6    C37   A    
O60   S11   D    
O43   Zn1   S    
C67   C96   S    
O17   Zn3   S    
H65   O88   S    
O35   Zn15  S    
C119  H2    S    
O34   Zn3   S    
O22   Zn16  S    
C74   C95   A    
C17   H29   S    
O98   S7    S    
C80   C81   A    
C1    O46   A    
O51   S1    D    
C65   C97   S    
C35   C106  A    
C22   H43   S    
C99   O15   A    
C103  S10   S    
C7    C38   A    
C86   H56   S    
O81   S2    D    
O36   Zn4   S    
C16   C108  A    
C55   O19   A    
H69   O98   S    
O94   S6    D    
O55   S9    S    
C52   C56   A    
