data_mof_unit_46097.cif
_audit_creation_date              2012-10-26T19:59:11-0400
_audit_creation_method            fapswitch 2.2
_symmetry_space_group_name_H-M    P1
_symmetry_Int_Tables_number       1
_space_group_crystal_system       triclinic
_cell_length_a                    7.890845
_cell_length_b                    9.30598
_cell_length_c                    16.640525
_cell_angle_alpha                 83.992232
_cell_angle_beta                  81.536299
_cell_angle_gamma                 102.680768
_cell_volume                      1167.21993752

loop_
_atom_site_label
_atom_site_type_symbol
_atom_type_description
_atom_site_fract_x
_atom_site_fract_y
_atom_site_fract_z
_atom_type_partial_charge
C1    C     C_R   0.540696 0.798783 0.508125 0.534824
C2    C     C_R   0.608726 0.531995 0.334324 0.558591
C3    C     C_R   0.341598 0.455249 0.761182 0.029325
C4    C     C_R   0.658316 0.544773 0.238807 0.029215
C5    C     C_R   0.138881 0.483839 0.882703 -0.108837
C6    C     C_R   0.860906 0.516549 0.117106 -0.108667
C7    C     C_R   0.178245 0.465242 0.797802 -0.171832
C8    C     C_R   0.821673 0.534955 0.202074 -0.171803
C9    C     C_R   0.454902 0.431307 0.818587 0.215470
C10   C     C_R   0.544849 0.568572 0.181476 0.215505
C11   C     C_R   0.408171 0.450749 0.905439 0.044596
C12   C     C_R   0.459304 0.201217 0.491875 0.534831
C13   C     C_R   0.591508 0.549213 0.094619 0.044553
C14   C     C_R   0.242076 0.484402 0.938346 -0.018129
C15   C     C_R   0.757537 0.515959 0.061532 -0.017869
C16   C     C_R   0.525912 0.447217 0.965495 0.045271
C17   C     C_R   0.473751 0.552490 0.034682 0.045338
C18   C     C_R   0.311310 0.637726 0.051673 -0.078386
C19   C     C_R   0.688500 0.361972 0.948573 -0.078463
C20   C     C_R   0.231790 0.519760 0.022974 -0.148584
C21   C     C_R   0.767687 0.480740 0.976823 -0.148028
C22   C     C_2   0.569762 0.966659 0.504621 -0.125325
C23   C     C_2   0.430238 0.033341 0.495379 -0.125323
C24   C     C_R   0.391269 0.468004 0.665675 0.558590
Cl1   Cl    Cl    0.377957 0.679950 0.218617 -0.646284
Cl2   Cl    Cl    0.621647 0.319679 0.781561 -0.646325
Cu1   Cu    Cu3+1 0.322120 0.483240 0.490330 1.063873
Cu2   Cu    Cu3+1 0.677880 0.516760 0.509670 1.063813
H1    H     H_    0.137929 0.436033 0.040863 0.154850
H2    H     H_    0.295807 0.962911 0.487411 0.140897
H3    H     H_    0.011477 0.639786 0.549781 0.228162
H4    H     H_    0.988523 0.360214 0.450219 0.228189
H5    H     H_    0.861784 0.564968 0.958615 0.154403
H6    H     H_    0.926002 0.544363 0.239377 0.174738
H7    H     H_    0.074027 0.455876 0.760443 0.174643
H8    H     H_    0.002017 0.393219 0.885136 0.124665
H9    H     H_    0.997703 0.607633 0.114447 0.124418
H10   H     H_    0.273797 0.706864 0.107808 0.204664
H11   H     H_    0.725651 0.292838 0.892445 0.204733
H12   H     H_    0.704193 0.037089 0.512589 0.140897
N1    N     N_2   0.945180 0.542040 0.524240 -0.237030
N2    N     N_2   0.054820 0.457960 0.475760 -0.236954
O1    O     O_R   0.384450 0.714270 0.493720 -0.503700
O2    O     O_R   0.615550 0.285730 0.506280 -0.503719
O3    O     O_R   0.684880 0.742590 0.510050 -0.510613
O4    O     O_R   0.315120 0.257410 0.489950 -0.510608
O5    O     O_R   0.265540 0.477900 0.617090 -0.517647
O6    O     O_R   0.734460 0.522100 0.382910 -0.517570
O7    O     O_R   0.565970 0.506210 0.633420 -0.453747
O8    O     O_R   0.434030 0.493790 0.366580 -0.453611

loop_
_geom_bond_atom_site_label_1
_geom_bond_atom_site_label_2
_ccdc_geom_bond_type
C2    C4    S    
C23   H2    S    
N1    N2    D    
C3    C9    A    
C14   C20   A    
H3    N1    S    
Cu2   O7    S    
C18   C20   A    
C12   C23   S    
Cu1   O8    S    
C13   C17   A    
C4    C8    A    
C22   H12   S    
C17   C18   A    
C5    C14   A    
C6    H9    S    
C1    C22   S    
C12   O2    A    
C8    H6    S    
C9    C11   A    
Cu1   N2    S    
C1    O3    A    
C3    C24   S    
C19   H11   S    
C16   C19   A    
Cu1   O4    S    
C19   C21   A    
C1    O1    A    
C9    Cl2   S    
C3    C7    A    
C20   H1    S    
C13   C15   A    
C18   H10   S    
C11   C14   A    
Cu2   O3    S    
C21   H5    S    
C4    C10   A    
C5    H8    S    
Cu1   O1    S    
Cu2   N1    S    
C15   C21   A    
C10   Cl1   S    
C12   O4    A    
C11   C16   A    
Cu1   O5    S    
C24   O7    A    
C5    C7    A    
H4    N2    S    
C22   C23   D    
Cu2   O6    S    
C6    C8    A    
C2    O8    A    
C2    O6    A    
C6    C15   A    
C24   O5    A    
C7    H7    S    
Cu2   O2    S    
C16   C17   A    
Cu1   Cu2   S    
C10   C13   A    
