data_mof_unit_49045.cif
_audit_creation_date              2012-12-10T18:11:02-0500
_audit_creation_method            fapswitch 2.2
_symmetry_space_group_name_H-M    P1
_symmetry_Int_Tables_number       1
_space_group_crystal_system       triclinic
_cell_length_a                    10.891701
_cell_length_b                    9.492855
_cell_length_c                    10.723269
_cell_angle_alpha                 91.04192
_cell_angle_beta                  83.312694
_cell_angle_gamma                 90.51364
_cell_volume                      1100.96316934

loop_
_atom_site_label
_atom_site_type_symbol
_atom_type_description
_atom_site_fract_x
_atom_site_fract_y
_atom_site_fract_z
_atom_type_partial_charge
C1    C     C_R   0.258034 0.498880 0.507768 0.826367
C2    C     C_3   0.529488 0.498925 0.120393 0.019150
C3    C     C_3   0.048796 0.592372 0.616802 0.307698
C4    C     C_3   0.058474 0.341947 0.526221 0.296835
C5    C     C_3   0.908064 0.596632 0.598381 -0.437978
C6    C     C_3   0.919266 0.349702 0.511619 -0.438587
C7    C     C_3   0.088520 0.559143 0.376462 0.754697
C8    C     C_3   0.117450 0.495589 0.508124 -0.115169
C9    C     C_3   0.876568 0.500599 0.490024 -0.010712
C10   C     C_3   0.945295 0.555377 0.367043 -0.516903
C11   C     C_3   0.620471 0.084883 0.530834 -0.198423
C12   C     C_3   0.619471 0.918519 0.533676 -0.204432
C13   C     C_3   0.402240 0.085534 0.598412 0.470670
C14   C     C_3   0.399736 0.916463 0.596420 0.429500
C15   C     C_3   0.476982 0.080664 0.379383 -0.342458
C16   C     C_3   0.479964 0.914265 0.378529 -0.327208
C17   C     C_R   0.513342 0.499315 0.258926 0.800988
C18   C     C_R   0.739808 0.500273 0.489989 0.796226
C19   C     C_R   0.511435 0.501060 0.739330 0.763272
C20   C     C_3   0.504433 0.630049 0.045851 -0.096736
C21   C     C_3   0.444803 0.408529 0.047956 -0.154187
C22   C     C_3   0.418245 0.539720 0.973513 -0.161728
C23   C     C_3   0.527097 0.502070 0.875750 0.024738
C24   C     C_3   0.615139 0.592288 0.947125 -0.152110
C25   C     C_3   0.555246 0.371158 0.950014 -0.141083
C26   C     C_3   0.641838 0.461404 0.024868 -0.223558
Cu1   Cu    Cu3+1 0.499860 0.642410 0.500060 0.939543
Cu2   Cu    Cu3+1 0.499860 0.357590 0.500060 0.928617
H1    H     H_    0.326064 0.566074 0.951478 0.110640
H2    H     H_    0.911030 0.663121 0.351731 0.176330
H3    H     H_    0.919677 0.492664 0.285656 0.146863
H4    H     H_    0.644787 0.128182 0.621922 0.182398
H5    H     H_    0.639395 0.882952 0.627457 0.183576
H6    H     H_    0.695701 0.119209 0.458398 0.134653
H7    H     H_    0.696673 0.879117 0.465284 0.137809
H8    H     H_    0.386194 0.116681 0.354351 0.149193
H9    H     H_    0.392260 0.871642 0.349232 0.181113
H10   H     H_    0.547846 0.119275 0.304445 0.184649
H11   H     H_    0.554805 0.878200 0.305744 0.174394
H12   H     H_    0.312303 0.123303 0.572967 0.018435
H13   H     H_    0.309556 0.882418 0.565433 -0.001259
H14   H     H_    0.483473 0.736420 0.087103 0.120419
H15   H     H_    0.378512 0.329399 0.091291 0.143677
H16   H     H_    0.685118 0.667778 0.903536 0.113960
H17   H     H_    0.576045 0.264515 0.909197 0.160324
H18   H     H_    0.733913 0.429302 0.048793 0.120451
H19   H     H_    0.086429 0.701478 0.606395 0.114113
H20   H     H_    0.107546 0.269442 0.456134 0.053672
H21   H     H_    0.845614 0.562442 0.681494 0.149086
H22   H     H_    0.864166 0.312230 0.598996 0.215156
H23   H     H_    0.883095 0.707631 0.581283 0.146401
H24   H     H_    0.895820 0.276683 0.435631 0.116162
N1    N     N_3   0.500250 0.143650 0.502780 -0.162201
N2    N     N_3   0.500250 0.856350 0.502780 -0.159098
O1    O     O_R   0.317570 0.620260 0.500070 -0.560016
O2    O     O_R   0.317570 0.379740 0.500070 -0.602922
O3    O     O_R   0.499850 0.620240 0.316900 -0.596118
O4    O     O_R   0.499850 0.379760 0.316900 -0.594769
O5    O     O_R   0.682190 0.620260 0.500030 -0.605459
O6    O     O_R   0.682190 0.379740 0.500030 -0.609423
O7    O     O_R   0.499910 0.620280 0.683200 -0.546274
O8    O     O_R   0.499910 0.379720 0.683200 -0.529783
O9    O     O_3   0.422348 0.137709 0.719696 -0.546206
C27   C     C_3   0.311572 0.152182 0.802153 0.047581
H25   H     H_    0.334158 0.134909 0.898778 0.169758
H26   H     H_    0.238777 0.077939 0.781185 0.132846
C28   C     C_3   0.258174 0.297657 0.802878 -0.716771
H27   H     H_    0.264698 0.340287 0.709155 0.305148
H28   H     H_    0.161088 0.298619 0.846314 0.259079
H29   H     H_    0.310467 0.365955 0.857692 0.198667
O10   O     O_3   0.413613 0.866862 0.718710 -0.556055
C29   C     C_3   0.302060 0.816485 0.786444 0.168631
H30   H     H_    0.298363 0.700225 0.778317 0.185263
H31   H     H_    0.216094 0.853543 0.751116 0.075813
C30   C     C_3   0.299275 0.860273 0.925734 -0.882814
H32   H     H_    0.227383 0.940559 0.952415 0.189260
H33   H     H_    0.272742 0.773877 0.990036 0.208525
H34   H     H_    0.390748 0.900889 0.946621 0.270170
O11   O     O_3   0.070300 0.548964 0.739498 -0.560356
C31   C     C_3   0.985598 0.612022 0.835999 0.097232
H35   H     H_    0.911334 0.533803 0.864250 0.167022
H36   H     H_    0.943013 0.711002 0.807132 0.111801
C32   C     C_3   0.044982 0.650432 0.952353 -0.904223
H37   H     H_    0.066823 0.764468 0.953128 0.231919
H38   H     H_    0.978926 0.629624 0.037029 0.210228
H39   H     H_    0.128831 0.588424 0.955786 0.275035
O12   O     O_3   0.069510 0.283038 0.644878 -0.538409
C33   C     C_3   0.034833 0.137055 0.647090 0.077049
H40   H     H_    0.117570 0.070120 0.631830 0.114915
H41   H     H_    0.977354 0.103252 0.572313 0.115492
C34   C     C_3   0.961724 0.102119 0.772812 -0.842295
H42   H     H_    0.878995 0.170357 0.790102 0.245209
H43   H     H_    0.930982 0.990271 0.771600 0.191131
H44   H     H_    0.019188 0.117413 0.850766 0.235933
O13   O     O_3   0.123866 0.704494 0.381620 -0.616639
C35   C     C_3   0.141671 0.769400 0.263140 0.160120
H45   H     H_    0.075096 0.730808 0.199402 0.158634
H46   H     H_    0.237384 0.749173 0.218725 0.178466
C36   C     C_3   0.124068 0.927648 0.281569 -0.946675
H47   H     H_    0.186620 0.970311 0.347930 0.237696
H48   H     H_    0.144706 0.981092 0.190197 0.214016
H49   H     H_    0.027042 0.950215 0.320328 0.242282
O14   O     O_3   0.160372 0.493713 0.269837 -0.609667
C37   C     C_3   0.127801 0.353638 0.237375 -0.002870
H50   H     H_    0.040675 0.313568 0.285260 0.136186
H51   H     H_    0.203917 0.282581 0.255800 0.165696
C38   C     C_3   0.111161 0.341548 0.099824 -0.873264
H52   H     H_    0.188263 0.395530 0.044971 0.262103
H53   H     H_    0.110105 0.228783 0.070364 0.204335
H54   H     H_    0.022529 0.389593 0.082145 0.249822

loop_
_geom_bond_atom_site_label_1
_geom_bond_atom_site_label_2
_ccdc_geom_bond_type
C7    C10   S    
O12   C33   S    
C22   H1    S    
C1    C8    S    
C14   O10   S    
O13   C35   S    
C4    C8    S    
C3    O11   S    
C6    C9    S    
C37   H51   S    
Cu2   O2    S    
Cu1   N2    S    
C7    C8    S    
C4    O12   S    
C32   H37   S    
C15   N1    S    
C1    O2    A    
C24   C26   S    
C29   C30   S    
Cu1   O1    S    
C19   O8    A    
C15   C16   S    
C35   C36   S    
C13   H12   S    
Cu1   O7    S    
C21   H15   S    
C10   H3    S    
C20   C24   S    
C35   H46   S    
C38   H52   S    
C9    C10   S    
C11   N1    S    
C16   H9    S    
C7    O14   S    
C21   C22   S    
C2    C17   S    
C38   H53   S    
C5    H21   S    
C31   C32   S    
C37   H50   S    
C13   N1    S    
Cu2   O6    S    
C2    C20   S    
C28   H27   S    
C27   C28   S    
C4    C6    S    
C3    C8    S    
Cu1   O3    S    
C34   H42   S    
C29   H30   S    
C25   C26   S    
O11   C31   S    
C28   H28   S    
C27   H26   S    
C19   C23   S    
C30   H32   S    
C15   H10   S    
C5    C9    S    
C34   H43   S    
C10   H2    S    
C36   H47   S    
C13   O9    S    
C33   C34   S    
C23   C24   S    
C35   H45   S    
C36   H49   S    
C2    C21   S    
Cu2   N1    S    
C2    C26   S    
C6    H22   S    
C12   H7    S    
C30   H33   S    
C14   H13   S    
C29   H31   S    
C14   N2    S    
C20   C22   S    
C11   H4    S    
C24   H16   S    
C38   H54   S    
C25   H17   S    
C15   H8    S    
Cu1   Cu2   S    
C4    H20   S    
C18   O6    A    
C21   C25   S    
C32   H38   S    
C11   H6    S    
C33   H41   S    
C31   H35   S    
C3    C5    S    
C20   H14   S    
C11   C12   S    
Cu2   O4    S    
C7    O13   S    
C17   O4    A    
C28   H29   S    
C27   H25   S    
C1    O1    A    
O10   C29   S    
Cu1   O5    S    
C34   H44   S    
C9    C18   S    
C19   O7    A    
C3    H19   S    
C31   H36   S    
C23   C25   S    
C30   H34   S    
C16   N2    S    
C26   H18   S    
C16   H11   S    
O9    C27   S    
C18   O5    A    
C32   H39   S    
C33   H40   S    
O14   C37   S    
C22   C23   S    
C5    H23   S    
C6    H24   S    
C12   H5    S    
C13   C14   S    
C36   H48   S    
C37   C38   S    
C12   N2    S    
C17   O3    A    
Cu2   O8    S    
