data_mof_unit_40421.cif
_audit_creation_date              2012-12-11T15:59:43-0500
_audit_creation_method            fapswitch 2.2
_symmetry_space_group_name_H-M    P1
_symmetry_Int_Tables_number       1
_space_group_crystal_system       triclinic
_cell_length_a                    10.697661
_cell_length_b                    10.784285
_cell_length_c                    17.096724
_cell_angle_alpha                 100.242766
_cell_angle_beta                  99.645537
_cell_angle_gamma                 60.124711
_cell_volume                      1675.80245454

loop_
_atom_site_label
_atom_site_type_symbol
_atom_type_description
_atom_site_fract_x
_atom_site_fract_y
_atom_site_fract_z
_atom_type_partial_charge
C1    C     C_R   0.354246 0.777831 0.401882 0.547994
C2    C     C_R   0.852622 0.316171 0.331463 -0.067290
C3    C     C_R   0.318316 0.861594 0.168948 0.011377
C4    C     C_R   0.399916 0.367828 0.354067 0.566021
C5    C     C_R   0.454049 0.815997 0.213168 0.010265
C6    C     C_R   0.460856 0.823806 0.296926 0.020988
C7    C     C_R   0.203920 0.895576 0.287436 -0.141335
C8    C     C_R   0.194059 0.904823 0.207661 -0.130757
C9    C     C_R   0.582542 0.762235 0.176421 -0.143688
C10   C     C_R   0.712809 0.731694 0.222216 -0.092869
C11   C     C_R   0.716952 0.759259 0.305532 0.003036
C12   C     C_R   0.809733 0.240109 0.191470 -0.043186
C13   C     C_R   0.590993 0.806428 0.342305 -0.100467
C14   C     C_R   0.337447 0.846502 0.331767 0.000792
C15   C     C_R   0.291489 0.266214 0.796890 -0.036480
C16   C     C_R   0.780303 0.372177 0.404781 0.546614
C17   C     C_R   0.420852 0.170537 0.760747 0.035472
C18   C     C_R   0.469363 0.224348 0.711151 0.026145
C19   C     C_R   0.227912 0.438190 0.703753 -0.009486
C20   C     C_R   0.193726 0.395034 0.765490 -0.111939
C21   C     C_R   0.508517 0.025885 0.777307 -0.080822
C22   C     C_R   0.650357 0.945453 0.756822 -0.094593
C23   C     C_R   0.819975 0.223001 0.272424 -0.007305
C24   C     C_R   0.707544 0.008702 0.720452 -0.099250
C25   C     C_R   0.618440 0.146943 0.698262 -0.092497
C26   C     C_R   0.367450 0.351459 0.675053 -0.044452
C27   C     C_1   0.818828 0.342258 0.708946 -0.050625
C28   C     C_R   0.381871 0.713904 0.631060 0.526052
C29   C     C_1   0.846257 0.313188 0.776387 -0.051605
C30   C     C_1   0.359274 0.763175 0.713397 -0.067171
C31   C     C_1   0.326987 0.810151 0.780580 -0.065004
C32   C     C_R   0.899541 0.308170 0.090533 0.548616
C33   C     C_R   0.296697 0.269533 0.124646 0.592613
C34   C     C_R   0.917264 0.388356 0.311024 -0.096723
C35   C     C_R   0.291963 0.895555 0.087177 0.538178
C36   C     C_R   0.887277 0.296874 0.858756 0.540708
C37   C     C_R   0.276706 0.248484 0.877206 0.549531
C38   C     C_R   0.281756 0.880190 0.857813 0.543357
C39   C     C_R   0.402248 0.373831 0.600488 0.510614
C40   C     C_R   0.773155 0.381007 0.629823 0.544561
C41   C     C_1   0.356589 0.341994 0.273280 0.020214
C42   C     C_1   0.324891 0.313318 0.205088 0.047755
C43   C     C_R   0.866166 0.322520 0.171388 -0.000364
C44   C     C_2   0.850243 0.744778 0.354873 0.214027
C45   C     C_R   0.928673 0.387721 0.232035 0.342019
C46   C     C_2   0.118768 0.579343 0.676225 0.237654
C47   C     C_R   0.749183 0.169382 0.133020 -0.083332
C48   C     C_R   0.718490 0.069150 0.153594 -0.097819
C49   C     C_R   0.741221 0.042977 0.232496 -0.112294
C50   C     C_R   0.794426 0.115752 0.291237 -0.075940
Cr1   Cr    Cr6+3 0.608100 0.610860 0.522250 1.040760
Cr2   Cr    Cr6+3 0.288890 0.599990 0.488420 1.059568
Cr3   Cr    Cr6+3 0.603040 0.289190 0.489390 0.993359
Cr4   Cr    Cr6+3 0.053960 0.052250 0.967380 1.017975
Cr5   Cr    Cr6+3 0.059890 0.373160 0.992710 1.058802
Cr6   Cr    Cr6+3 0.373370 0.061690 0.991710 0.986328
F1    F     F_    0.003077 0.449957 0.215482 -0.621721
H1    H     H_    0.953626 0.450402 0.356308 0.175658
H2    H     H_    0.678744 0.010250 0.108173 0.141270
H3    H     H_    0.715210 0.968201 0.248867 0.139724
H4    H     H_    0.819472 0.082954 0.350548 0.149484
H5    H     H_    0.107892 0.918573 0.313441 0.159504
H6    H     H_    0.584009 0.742354 0.112239 0.135428
H7    H     H_    0.086755 0.945727 0.176262 0.166046
H8    H     H_    0.851830 0.764033 0.419469 0.093244
H9    H     H_    0.151647 0.646685 0.655744 0.146494
H10   H     H_    0.808210 0.695922 0.192035 0.214892
H11   H     H_    0.594749 0.835057 0.406218 0.132395
H12   H     H_    0.468957 0.975148 0.807307 0.150251
H13   H     H_    0.092877 0.466253 0.792163 0.179648
H14   H     H_    0.717110 0.836137 0.771752 0.151549
H15   H     H_    0.819944 0.949911 0.707920 0.150540
H16   H     H_    0.667339 0.191868 0.670710 0.150593
H17   H     H_    0.725728 0.189905 0.071171 0.140655
O1    O     O_R   0.749810 0.499790 0.438040 -0.510317
O2    O     O_R   0.411730 0.181020 0.091530 -0.541103
O3    O     O_R   0.365010 0.944360 0.063320 -0.522620
O4    O     O_R   0.477660 0.726260 0.439290 -0.509851
O5    O     O_R   0.159380 0.906670 0.876210 -0.492587
O6    O     O_R   0.930820 0.177420 0.886730 -0.492794
O7    O     O_R   0.910360 0.395420 0.895720 -0.526417
O8    O     O_R   0.186010 0.361730 0.919870 -0.494253
O9    O     O_R   0.400000 0.173010 0.914630 -0.512137
O10   O     O_R   0.354140 0.936940 0.899340 -0.535455
O11   O     O_3   0.162410 0.162370 0.983930 -0.289247
O12   O     O_R   0.298970 0.468800 0.557390 -0.508898
O13   O     O_R   0.260150 0.743000 0.412270 -0.487779
O14   O     O_R   0.297740 0.466550 0.394720 -0.440892
O15   O     O_R   0.488080 0.253500 0.386430 -0.518560
O16   O     O_R   0.722670 0.303800 0.421940 -0.521427
O17   O     O_R   0.751130 0.502220 0.613520 -0.465424
O18   O     O_R   0.478890 0.728510 0.601960 -0.474880
O19   O     O_R   0.261470 0.745430 0.587750 -0.528084
O20   O     O_2   0.959430 0.712027 0.324206 -0.463925
O21   O     O_2   0.989523 0.623820 0.678259 -0.523598
O22   O     O_R   0.489400 0.255930 0.561910 -0.498094
O23   O     O_R   0.723890 0.306050 0.584610 -0.541382
O24   O     O_3   0.500010 0.500010 0.500020 -0.302994
O25   O     O_R   0.171100 0.914680 0.053100 -0.513432
O26   O     O_R   0.941680 0.184840 0.050710 -0.521610
O27   O     O_R   0.922080 0.403420 0.072610 -0.462299
O28   O     O_R   0.196880 0.369150 0.083850 -0.439696

loop_
_geom_bond_atom_site_label_1
_geom_bond_atom_site_label_2
_ccdc_geom_bond_type
C1    O13   A    
C16   O16   A    
Cr6   O2    S    
C27   C29   T    
C16   O1    A    
C41   C42   T    
C19   C20   A    
C18   C26   A    
Cr4   O26   S    
C19   C46   S    
C7    C8    A    
C10   H10   S    
C29   C36   S    
C45   F1    S    
C49   H3    S    
Cr6   O9    S    
C33   C42   S    
Cr1   O1    S    
C46   H9    S    
C12   C43   A    
C30   C31   T    
C26   C39   S    
C4    C41   S    
Cr2   O24   S    
C19   C26   A    
C15   C37   S    
Cr1   O17   S    
C7    C14   A    
C46   O21   D    
Cr5   O7    S    
C2    C16   S    
C9    C10   A    
C36   O7    A    
C2    C34   A    
Cr1   O24   S    
C21   C22   A    
Cr3   O22   S    
C1    O4    A    
C20   H13   S    
C44   H8    S    
C18   C25   A    
C12   C47   A    
C35   O25   A    
Cr6   O10   S    
Cr4   O6    S    
C15   C20   A    
C33   O28   A    
Cr2   O14   S    
C24   C25   A    
C3    C8    A    
C36   O6    A    
C40   O23   A    
C23   C50   A    
C12   C23   A    
Cr3   O23   S    
C35   O3    A    
C17   C21   A    
Cr6   O3    S    
C32   O26   A    
C21   H12   S    
C28   O19   A    
Cr5   O11   S    
C7    H5    S    
C5    C9    A    
Cr1   O18   S    
C6    C14   A    
C33   O2    A    
C47   C48   A    
Cr5   O28   S    
C3    C35   S    
C27   C40   S    
C17   C18   A    
C11   C44   S    
C28   O18   A    
C34   C45   A    
Cr5   O8    S    
C43   C45   A    
C8    H7    S    
C48   C49   A    
Cr3   O15   S    
C22   C24   A    
C37   O8    A    
C22   H14   S    
Cr3   O16   S    
C24   H15   S    
C48   H2    S    
C4    O15   A    
C15   C17   A    
C38   O10   A    
C9    H6    S    
Cr2   O13   S    
C47   H17   S    
C3    C5    A    
Cr4   O11   S    
C4    O14   A    
Cr3   O24   S    
Cr5   O27   S    
C31   C38   S    
Cr2   O19   S    
Cr2   O12   S    
Cr1   O4    S    
C6    C13   A    
C11   C13   A    
Cr6   O11   S    
C5    C6    A    
C28   C30   S    
C32   C43   S    
C25   H16   S    
C40   O17   A    
Cr4   O25   S    
C39   O22   A    
C44   O20   D    
C10   C11   A    
Cr4   O5    S    
C49   C50   A    
C38   O5    A    
C2    C23   A    
C34   H1    S    
C50   H4    S    
C32   O27   A    
C37   O9    A    
C1    C14   S    
C39   O12   A    
C13   H11   S    
