data_mof_unit_26512.cif
_audit_creation_date              2012-10-26T21:11:05-0400
_audit_creation_method            fapswitch 2.2
_symmetry_space_group_name_H-M    P1
_symmetry_Int_Tables_number       1
_space_group_crystal_system       triclinic
_cell_length_a                    10.921937
_cell_length_b                    10.916704
_cell_length_c                    13.133764
_cell_angle_alpha                 90.685674
_cell_angle_beta                  90.954561
_cell_angle_gamma                 90.08954
_cell_volume                      1565.6272118

loop_
_atom_site_label
_atom_site_type_symbol
_atom_type_description
_atom_site_fract_x
_atom_site_fract_y
_atom_site_fract_z
_atom_type_partial_charge
C1    C     C_R   0.501728 0.259479 0.499130 0.558630
C2    C     C_R   0.526154 0.883958 0.771233 -0.074378
C3    C     C_R   0.539959 0.113648 0.306399 0.031544
C4    C     C_R   0.440747 0.884564 0.690068 0.013391
C5    C     C_R   0.654635 0.133049 0.261235 0.161995
C6    C     C_R   0.321206 0.836959 0.704526 0.173538
C7    C     C_R   0.659245 0.175355 0.160827 -0.130648
C8    C     C_R   0.293883 0.782692 0.798081 -0.101110
C9    C     C_R   0.551579 0.194621 0.104722 -0.092601
C10   C     C_R   0.380081 0.782074 0.877559 -0.100287
C11   C     C_R   0.532387 0.932513 0.413558 -0.111464
C12   C     C_R   0.500336 0.740545 0.501072 0.584603
C13   C     C_R   0.481089 0.067611 0.589252 -0.137076
C14   C     C_R   0.503510 0.872977 0.503579 0.003567
C15   C     C_R   0.504426 0.127081 0.497835 0.008294
C16   C     C_R   0.259518 0.504419 0.498791 0.597330
C17   C     C_R   0.740460 0.496537 0.501090 0.555031
C18   C     C_R   0.477107 0.941023 0.592818 -0.040390
C19   C     C_R   0.529273 0.058937 0.408463 0.008100
C20   C     C_1   0.499696 0.499736 0.173602 0.149043
C21   C     C_1   0.499606 0.499531 0.826390 0.158664
C22   C     C_1   0.499246 0.499447 0.050672 0.026008
C23   C     C_R   0.872842 0.497696 0.502825 0.003724
C24   C     C_1   0.499156 0.499236 0.949313 0.033000
C25   C     C_R   0.191549 0.685968 0.177711 0.128341
C26   C     C_R   0.834542 0.263809 0.801222 0.165506
C27   C     C_R   0.159777 0.662125 0.279230 0.304541
C28   C     C_R   0.874996 0.304781 0.706122 0.269256
C29   C     C_R   0.109715 0.547413 0.304587 -0.014934
C30   C     C_R   0.888410 0.431100 0.687889 -0.007408
C31   C     C_R   0.088741 0.459409 0.227236 -0.106310
C32   C     C_R   0.864237 0.516066 0.765646 -0.093810
C33   C     C_R   0.115747 0.485195 0.126188 0.277007
C34   C     C_R   0.127038 0.505313 0.496697 0.034269
C35   C     C_R   0.825414 0.476207 0.860397 0.241797
C36   C     C_R   0.168034 0.597371 0.101658 -0.091717
C37   C     C_R   0.808891 0.351242 0.877941 -0.055782
C38   C     C_R   0.931063 0.522982 0.411619 -0.139890
C39   C     C_R   0.068473 0.481067 0.588231 -0.104086
C40   C     C_3   0.819430 0.213219 0.364442 -0.242594
C41   C     C_3   0.116305 0.901418 0.652062 -0.242305
C42   C     C_3   0.371003 0.812793 0.172116 -0.246139
C43   C     C_3   0.808594 0.088498 0.919311 -0.270028
C44   C     C_R   0.942114 0.474020 0.591942 0.008553
C45   C     C_R   0.057579 0.525226 0.406468 0.011150
C46   C     C_R   0.438300 0.172593 0.148498 0.241816
C47   C     C_R   0.495429 0.834020 0.864836 0.258970
C48   C     C_R   0.432269 0.134045 0.249325 -0.091282
Cl1   Cl    Cl    0.170772 0.780493 0.371199 -0.628218
Cl2   Cl    Cl    0.918782 0.196405 0.612915 -0.684358
Cl3   Cl    Cl    0.075755 0.380545 0.028903 -0.530919
Cl4   Cl    Cl    0.803662 0.582881 0.959326 -0.542340
Cl5   Cl    Cl    0.304140 0.186524 0.075065 -0.541940
Cl6   Cl    Cl    0.601376 0.836552 0.966564 -0.619907
Cu1   Cu    Cu3+1 0.499990 0.499990 0.592680 1.022744
Cu2   Cu    Cu3+1 0.500010 0.500010 0.407320 1.014488
H1    H     H_    0.188469 0.616539 0.023039 0.133579
H2    H     H_    0.121434 0.462479 0.656955 0.154742
H3    H     H_    0.556165 0.225396 0.026855 0.136150
H4    H     H_    0.357114 0.740582 0.948981 0.118998
H5    H     H_    0.343841 0.115527 0.282125 0.164002
H6    H     H_    0.616549 0.922645 0.761642 0.134620
H7    H     H_    0.827871 0.061323 0.270270 0.275118
H8    H     H_    0.909390 0.188127 0.398550 0.207531
H9    H     H_    0.758855 0.246968 0.425626 0.196318
H10   H     H_    0.834695 0.287275 0.308644 0.128897
H11   H     H_    0.260069 0.867172 0.555666 0.299465
H12   H     H_    0.777907 0.323597 0.952005 0.138165
H13   H     H_    0.053288 0.901128 0.584795 0.209002
H14   H     H_    0.134623 0.997959 0.675554 0.196937
H15   H     H_    0.069637 0.852780 0.714169 0.151603
H16   H     H_    0.218133 0.828561 0.078165 0.265731
H17   H     H_    0.402549 0.905668 0.151626 0.191292
H18   H     H_    0.422659 0.744641 0.126666 0.158766
H19   H     H_    0.390524 0.798130 0.254064 0.193117
H20   H     H_    0.781930 0.085086 0.760555 0.283489
H21   H     H_    0.823198 0.987908 0.918609 0.215102
H22   H     H_    0.713985 0.107217 0.944288 0.150331
H23   H     H_    0.746741 0.192097 0.126067 0.122033
H24   H     H_    0.876726 0.129960 0.973240 0.193843
H25   H     H_    0.205559 0.740582 0.809804 0.128358
H26   H     H_    0.554578 0.880287 0.345660 0.135888
H27   H     H_    0.460975 0.119909 0.657719 0.147866
H28   H     H_    0.045753 0.372892 0.244965 0.148629
H29   H     H_    0.878551 0.612967 0.753274 0.150296
H30   H     H_    0.877562 0.540557 0.342971 0.153192
N1    N     N_1   0.500030 0.500030 0.268070 -0.179680
N2    N     N_1   0.499970 0.499970 0.731930 -0.178915
N3    N     N_2   0.765340 0.107027 0.314798 -0.500491
N4    N     N_2   0.229607 0.840969 0.625742 -0.502435
N5    N     N_2   0.241233 0.801419 0.150954 -0.462483
N6    N     N_2   0.825191 0.134868 0.817888 -0.488297
O1    O     O_R   0.499980 0.319630 0.578260 -0.501704
O2    O     O_R   0.500020 0.680370 0.421740 -0.499075
O3    O     O_R   0.500000 0.319650 0.421740 -0.499600
O4    O     O_R   0.500000 0.680350 0.578260 -0.485281
O5    O     O_R   0.319630 0.500000 0.578260 -0.498523
O6    O     O_R   0.680370 0.500000 0.421740 -0.510239
O7    O     O_R   0.319650 0.500020 0.421740 -0.485631
O8    O     O_R   0.680350 0.499980 0.578260 -0.493685

loop_
_geom_bond_atom_site_label_1
_geom_bond_atom_site_label_2
_ccdc_geom_bond_type
Cu2   O3    S    
Cu1   Cu2   S    
C37   H12   S    
C27   C29   A    
C14   C18   A    
C10   H4    S    
Cu2   O6    S    
Cu1   O1    S    
C30   C44   S    
C43   H22   S    
Cu2   O2    S    
C11   C19   A    
C42   H19   S    
C17   C23   S    
C13   C18   A    
C38   H30   S    
C41   H13   S    
C35   C37   A    
C43   H21   S    
C11   C14   A    
C16   O5    A    
C26   N6    S    
C20   N1    T    
C3    C48   A    
C33   C36   A    
C42   N5    S    
Cu1   N2    S    
C38   C45   A    
C16   C34   S    
C15   C19   A    
C28   Cl2   S    
Cu1   O8    S    
C31   C33   A    
C3    C19   S    
C1    C15   S    
C40   N3    S    
C17   O6    A    
C41   H15   S    
C4    C18   S    
C41   N4    S    
C21   N2    T    
C9    C46   A    
C40   H10   S    
C12   O2    A    
C11   H26   S    
C46   C48   A    
C42   H18   S    
C25   N5    S    
C34   C39   A    
C32   C35   A    
C4    C6    A    
C36   H1    S    
C5    C7    A    
H16   N5    S    
Cu2   N1    S    
C6    C8    A    
C43   H24   S    
C6    N4    S    
C39   H2    S    
H11   N4    S    
C23   C44   A    
C8    H25   S    
C29   C45   S    
C9    H3    S    
C2    C4    A    
C1    O3    A    
Cu1   O5    S    
C26   C37   A    
C34   C45   A    
H20   N6    S    
C47   Cl6   S    
C8    C10   A    
C12   C14   S    
C40   H9    S    
C13   C15   A    
C22   C24   T    
C25   C27   A    
C35   Cl4   S    
C7    H23   S    
C7    C9    A    
C42   H17   S    
C20   C22   S    
Cu1   O4    S    
C3    C5    A    
C16   O7    A    
C39   C44   A    
C2    C47   A    
C33   Cl3   S    
C23   C38   A    
C13   H27   S    
C26   C28   A    
C43   N6    S    
C40   H8    S    
C28   C30   A    
C29   C31   A    
C30   C32   A    
C48   H5    S    
C32   H29   S    
C46   Cl5   S    
H7    N3    S    
C17   O8    A    
C31   H28   S    
C25   C36   A    
C27   Cl1   S    
C1    O1    A    
C21   C24   S    
C10   C47   A    
C12   O4    A    
Cu2   O7    S    
C5    N3    S    
C2    H6    S    
C41   H14   S    
