data_mof_unit_45942.cif
_audit_creation_date              2012-12-11T15:48:50-0500
_audit_creation_method            fapswitch 2.2
_symmetry_space_group_name_H-M    P1
_symmetry_Int_Tables_number       1
_space_group_crystal_system       triclinic
_cell_length_a                    10.96087
_cell_length_b                    10.980521
_cell_length_c                    18.793515
_cell_angle_alpha                 90.51327
_cell_angle_beta                  90.254078
_cell_angle_gamma                 60.51105
_cell_volume                      1968.80505183

loop_
_atom_site_label
_atom_site_type_symbol
_atom_type_description
_atom_site_fract_x
_atom_site_fract_y
_atom_site_fract_z
_atom_type_partial_charge
C1    C     C_R   0.240009 0.645319 0.610428 0.544211
C2    C     C_R   0.578235 0.140991 0.709646 -0.180984
C3    C     C_R   0.575134 0.146921 0.782814 -0.171335
C4    C     C_R   0.653662 0.621862 0.600945 0.539983
C5    C     C_3   0.934772 0.092252 0.785851 -0.271857
C6    C     C_3   0.929426 0.100423 0.705309 -0.280058
C7    C     C_R   0.674107 0.164291 0.672057 0.016965
C8    C     C_R   0.180648 0.667740 0.835163 0.013600
C9    C     C_R   0.154604 0.576023 0.794165 0.019320
C10   C     C_R   0.163537 0.573398 0.720375 -0.004443
C11   C     C_R   0.213826 0.763110 0.725947 -0.171916
C12   C     C_3   0.671385 0.550857 0.799947 -0.252836
C13   C     C_R   0.212964 0.760116 0.799866 -0.179270
C14   C     C_3   0.228333 0.420339 0.797750 -0.283223
C15   C     C_3   0.235834 0.418079 0.717251 -0.271131
C16   C     C_R   0.630047 0.225819 0.601830 0.541134
C17   C     C_R   0.195608 0.665159 0.684847 0.012616
C18   C     C_R   0.656490 0.687134 0.170738 0.010983
C19   C     C_R   0.669679 0.564606 0.197740 -0.003416
C20   C     C_R   0.669302 0.547210 0.270020 0.024011
C21   C     C_R   0.627883 0.780441 0.292346 -0.182581
C22   C     C_R   0.626976 0.798997 0.218328 -0.156953
C23   C     C_3   0.698584 0.673839 0.812317 0.051642
C24   C     C_3   0.777411 0.416021 0.184476 -0.276492
C25   C     C_3   0.778352 0.397629 0.264082 -0.267705
C26   C     C_R   0.657280 0.649649 0.318667 0.012526
C27   C     C_R   0.671779 0.121817 0.181994 -0.041018
C28   C     C_R   0.222302 0.649133 0.401344 0.558385
C29   C     C_R   0.543043 0.170405 0.213770 -0.009233
C30   C     C_R   0.530672 0.187105 0.285604 -0.026081
C31   C     C_R   0.781804 0.080511 0.299727 0.226108
C32   C     C_R   0.794057 0.062423 0.225338 -0.148150
C33   C     C_3   0.408710 0.299902 0.198933 -0.265085
C34   C     C_3   0.669891 0.647701 0.676344 0.057727
C35   C     C_3   0.394265 0.319951 0.278708 -0.238360
C36   C     C_R   0.647024 0.156422 0.328613 0.027522
C37   C     C_R   0.143469 0.665491 0.182403 0.022801
C38   C     C_R   0.243545 0.694356 0.209617 -0.007542
C39   C     C_R   0.263920 0.690834 0.281186 0.018501
C40   C     C_R   0.644392 0.623762 0.393189 0.540754
C41   C     C_R   0.098434 0.610044 0.300945 -0.158210
C42   C     C_R   0.077782 0.612540 0.227485 -0.154569
C43   C     C_3   0.268767 0.814710 0.199088 -0.270746
C44   C     C_3   0.292888 0.809669 0.278396 -0.250386
C45   C     C_3   0.814424 0.634606 0.690304 -0.247995
C46   C     C_R   0.183327 0.661530 0.328126 0.058602
C47   C     C_R   0.702240 0.099739 0.895284 0.543481
C48   C     C_R   0.723282 0.688047 0.888341 0.543014
C49   C     C_R   0.118897 0.705797 0.906059 0.538462
C50   C     C_R   0.680588 0.096289 0.106733 0.548560
C51   C     C_R   0.697499 0.693375 0.098486 0.546020
C52   C     C_R   0.618584 0.223726 0.397282 0.569129
C53   C     C_R   0.089869 0.710360 0.112864 0.549170
C54   C     C_3   0.571896 0.808919 0.782611 -0.233228
C55   C     C_3   0.555653 0.794050 0.702326 -0.238803
C56   C     C_3   0.657032 0.534016 0.719716 -0.213400
C57   C     C_3   0.832082 0.647161 0.770587 -0.217129
C58   C     C_3   0.969579 0.092966 0.344162 -0.121372
C59   C     C_R   0.682663 0.151727 0.822273 0.016153
C60   C     C_R   0.779610 0.173936 0.784831 -0.007280
C61   C     C_R   0.773394 0.183366 0.710727 0.012150
Cr1   Cr    Cr6+3 0.392960 0.397920 0.502240 1.002342
Cr2   Cr    Cr6+3 0.398340 0.708480 0.501250 1.003340
Cr3   Cr    Cr6+3 0.708670 0.393570 0.496460 1.002570
Cr4   Cr    Cr6+3 0.937650 0.938540 0.007610 1.001150
Cr5   Cr    Cr6+3 0.625330 0.937370 0.994520 1.003812
Cr6   Cr    Cr6+3 0.937940 0.625230 0.001190 1.003245
H1    H     H_    0.589413 0.898670 0.791825 0.144458
H2    H     H_    0.965525 0.997779 0.678387 0.147553
H3    H     H_    0.233961 0.839922 0.701273 0.133253
H4    H     H_    0.473702 0.831140 0.810622 0.116535
H5    H     H_    0.227877 0.837248 0.829145 0.129717
H6    H     H_    0.160286 0.380230 0.818695 0.132264
H7    H     H_    0.331594 0.378362 0.824498 0.143084
H8    H     H_    0.343459 0.374614 0.696381 0.178629
H9    H     H_    0.170694 0.378513 0.691295 0.124093
H10   H     H_    0.607988 0.865844 0.328321 0.132188
H11   H     H_    0.613732 0.896671 0.198511 0.151834
H12   H     H_    0.742085 0.429534 0.703116 0.148542
H13   H     H_    0.878693 0.402101 0.164353 0.158415
H14   H     H_    0.734278 0.357919 0.154534 0.140587
H15   H     H_    0.734055 0.331316 0.279884 0.145212
H16   H     H_    0.449807 0.808856 0.691882 0.137441
H17   H     H_    0.878897 0.375893 0.289404 0.128968
H18   H     H_    0.897492 0.003887 0.202065 0.158621
H19   H     H_    0.329254 0.277155 0.174787 0.146610
H20   H     H_    0.423812 0.380746 0.171373 0.137710
H21   H     H_    0.403961 0.410624 0.297579 0.154462
H22   H     H_    0.305245 0.310989 0.300980 0.147534
H23   H     H_    0.922804 0.547866 0.788837 0.143641
H24   H     H_    0.045123 0.573679 0.336026 0.121116
H25   H     H_    0.001990 0.584914 0.206934 0.142782
H26   H     H_    0.174204 0.912992 0.182820 0.157222
H27   H     H_    0.564437 0.876981 0.673046 0.114017
H28   H     H_    0.364447 0.785279 0.167217 0.145731
H29   H     H_    0.400529 0.776901 0.292959 0.163634
H30   H     H_    0.216927 0.903262 0.307048 0.143989
H31   H     H_    0.855460 0.733616 0.780992 0.125901
H32   H     H_    0.823554 0.718085 0.661676 0.117652
H33   H     H_    0.759244 0.452517 0.821593 0.131438
H34   H     H_    0.899950 0.532056 0.670700 0.132932
H35   H     H_    0.573768 0.570569 0.827743 0.119243
H36   H     H_    0.555035 0.538343 0.708619 0.126937
H37   H     H_    0.058719 0.042381 0.381683 0.141584
H38   H     H_    0.905790 0.199670 0.365645 0.150348
H39   H     H_    0.008351 0.097419 0.290180 0.087367
H40   H     H_    0.496955 0.129366 0.682635 0.129209
H41   H     H_    0.492759 0.135287 0.807860 0.137869
H42   H     H_    0.971482 0.985759 0.806455 0.174087
H43   H     H_    0.982122 0.151199 0.811029 0.127803
H44   H     H_    0.974760 0.163487 0.683773 0.132419
O1    O     O_R   0.507380 0.255700 0.581440 -0.536446
O2    O     O_R   0.837170 0.593410 0.915250 -0.527128
O3    O     O_R   0.065200 0.635530 0.931570 -0.499304
O4    O     O_R   0.280320 0.527350 0.578930 -0.503127
O5    O     O_R   0.068260 0.828890 0.091840 -0.532686
O6    O     O_R   0.798870 0.057410 0.079340 -0.515946
O7    O     O_R   0.584930 0.080350 0.076780 -0.512643
O8    O     O_R   0.626960 0.809650 0.067060 -0.509226
O9    O     O_R   0.816040 0.596610 0.076510 -0.525779
O10   O     O_R   0.045610 0.638500 0.081060 -0.512851
O11   O     O_3   0.833640 0.833710 0.001100 -0.254286
O12   O     O_R   0.524480 0.695810 0.424040 -0.507389
O13   O     O_R   0.260510 0.739590 0.584590 -0.531452
O14   O     O_R   0.532300 0.695080 0.573820 -0.510810
O15   O     O_R   0.744840 0.503500 0.576370 -0.530151
O16   O     O_R   0.699120 0.276560 0.571960 -0.498675
O17   O     O_R   0.498940 0.256500 0.419860 -0.528048
O18   O     O_R   0.272500 0.528080 0.429150 -0.516746
O19   O     O_R   0.252060 0.740380 0.423010 -0.512489
O20   O     O_3   0.897334 0.016632 0.343984 -0.555755
O21   O     O_R   0.736390 0.504290 0.414790 -0.528064
O22   O     O_R   0.691300 0.277290 0.422170 -0.503843
O23   O     O_3   0.499990 0.499990 0.499980 -0.252913
O24   O     O_R   0.089400 0.825690 0.930570 -0.530907
O25   O     O_R   0.818460 0.054440 0.929850 -0.499133
O26   O     O_R   0.606060 0.077150 0.915510 -0.535092
O27   O     O_R   0.646550 0.806680 0.917570 -0.510942

loop_
_geom_bond_atom_site_label_1
_geom_bond_atom_site_label_2
_ccdc_geom_bond_type
C6    H2    S    
C15   H8    S    
C21   C26   A    
C34   C56   S    
C8    C13   A    
C47   O25   A    
C27   C29   A    
C50   O6    A    
C41   C42   A    
C2    C7    A    
C24   H14   S    
Cr2   O13   S    
C52   O17   A    
C11   H3    S    
C12   C23   S    
C45   C57   S    
C29   C30   A    
C56   H12   S    
C20   C26   A    
C4    O14   A    
C14   H7    S    
C6    C61   S    
Cr6   O3    S    
C18   C19   A    
C10   C15   S    
C31   C36   A    
C5    C6    S    
C54   H1    S    
C20   C25   S    
C57   H31   S    
C10   C17   A    
C29   C33   S    
C2    H40   S    
C28   O18   A    
C44   H30   S    
Cr2   O19   S    
C37   C42   A    
C7    C61   A    
C31   O20   S    
C43   H26   S    
Cr3   O22   S    
C24   H13   S    
C6    H44   S    
C54   H4    S    
Cr3   O21   S    
C8    C9    A    
C30   C36   A    
C33   H20   S    
C25   H17   S    
C51   O8    A    
C41   C46   A    
Cr5   O11   S    
C9    C10   A    
C42   H25   S    
C36   C52   S    
C27   C50   S    
C37   C53   S    
C15   H9    S    
C40   O21   A    
C34   C55   S    
C50   O7    A    
C21   C22   A    
C52   O22   A    
Cr1   O18   S    
C55   H27   S    
Cr6   O10   S    
C18   C51   S    
C4    C34   S    
Cr3   O23   S    
C57   H23   S    
Cr2   O23   S    
C24   C25   S    
C22   H11   S    
C45   H32   S    
C9    C14   S    
C60   C61   A    
C58   H39   S    
C12   C56   S    
C43   C44   S    
C14   H6    S    
C59   C60   A    
C12   H35   S    
C37   C38   A    
C44   H29   S    
C35   H21   S    
C43   H28   S    
C31   C32   A    
Cr5   O27   S    
C58   O20   S    
Cr3   O16   S    
C28   C46   S    
C47   O26   A    
C51   O9    A    
C34   C45   S    
Cr2   O14   S    
Cr4   O11   S    
Cr4   O24   S    
C45   H34   S    
C39   C46   A    
C35   H22   S    
C7    C16   S    
C41   H24   S    
Cr3   O15   S    
Cr5   O8    S    
Cr5   O7    S    
C25   H15   S    
Cr4   O5    S    
C58   H37   S    
C55   H16   S    
Cr6   O11   S    
C16   O1    A    
C23   C54   S    
C49   O3    A    
Cr6   O9    S    
C23   C57   S    
C40   O12   A    
C54   C55   S    
C11   C17   A    
C23   C48   S    
C5    C60   S    
C27   C32   A    
C18   C22   A    
C56   H36   S    
Cr2   O12   S    
C53   O5    A    
C39   C44   S    
C13   H5    S    
C4    O15   A    
C3    H41   S    
C30   C35   S    
C1    C17   S    
C48   O27   A    
C58   H38   S    
Cr1   O23   S    
C19   C20   A    
C19   C24   S    
Cr6   O2    S    
C1    O13   A    
Cr1   O4    S    
C53   O10   A    
Cr1   O17   S    
C11   C13   A    
C26   C40   S    
C38   C39   A    
Cr5   O26   S    
C5    H42   S    
C32   H18   S    
C33   C35   S    
C2    C3    A    
C28   O19   A    
C49   O24   A    
C16   O16   A    
C12   H33   S    
Cr4   O25   S    
C47   C59   S    
C38   C43   S    
Cr1   O1    S    
C5    H43   S    
C21   H10   S    
Cr4   O6    S    
C14   C15   S    
C1    O4    A    
C8    C49   S    
C33   H19   S    
C48   O2    A    
C3    C59   A    
