data_mof_unit_20439.cif
_audit_creation_date              2013-03-05T15:40:18-0500
_audit_creation_method            fapswitch 2.2
_symmetry_space_group_name_H-M    P1
_symmetry_Int_Tables_number       1
_space_group_crystal_system       triclinic
_cell_length_a                    7.819123
_cell_length_b                    8.557893
_cell_length_c                    12.744256
_cell_angle_alpha                 89.700583
_cell_angle_beta                  87.071673
_cell_angle_gamma                 92.271067
_cell_volume                      850.979700781

loop_
_atom_site_label
_atom_site_type_symbol
_atom_site_description
_atom_site_fract_x
_atom_site_fract_y
_atom_site_fract_z
_atom_type_partial_charge
O1    O     O_R   0.609680 0.261530 0.506880 -0.610258
O2    O     O_R   0.390320 0.738470 0.493120 -0.610263
O3    O     O_R   0.323330 0.288220 0.488910 -0.574862
O4    O     O_R   0.676670 0.711780 0.511090 -0.574737
C1    C     C_R   0.457052 0.205873 0.496794 0.911384
C2    C     C_R   0.542946 0.794127 0.503208 0.911431
O5    O     O_R   0.619510 0.488830 0.661140 -0.586618
O6    O     O_R   0.380490 0.511170 0.338860 -0.586535
O7    O     O_R   0.333160 0.515520 0.643180 -0.580531
O8    O     O_R   0.666840 0.484480 0.356820 -0.580599
C3    C     C_R   0.465243 0.507386 0.699483 0.882021
C4    C     C_R   0.534759 0.492621 0.300517 0.882051
Zn1   Zn    Zn3+2 0.691200 0.482180 0.511990 1.130935
Zn2   Zn    Zn3+2 0.308800 0.517820 0.488010 1.130951
N1    N     N_2   0.054030 0.541640 0.471970 0.043029
N2    N     N_2   0.945970 0.458360 0.528030 0.042986
C5    C     C_R   0.557280 0.480533 0.189254 -0.078631
C6    C     C_R   0.442726 0.519482 0.810746 -0.078599
C7    C     C_R   0.362661 0.663625 0.965847 -0.188509
C8    C     C_R   0.637358 0.336395 0.034153 -0.188493
C9    C     C_R   0.355614 0.643675 0.858249 0.166618
C10   C     C_R   0.644423 0.356359 0.141748 0.166539
C11   C     C_R   0.532109 0.415492 0.869426 -0.209910
C12   C     C_R   0.467880 0.584511 0.130577 -0.209834
C13   C     C_R   0.542400 0.437318 0.975793 0.124369
C14   C     C_R   0.457599 0.562689 0.024209 0.124357
H1    H     H_    0.401042 0.679293 0.168829 0.184682
H2    H     H_    0.598934 0.320703 0.831175 0.184661
H3    H     H_    0.298160 0.760073 0.003253 0.178180
H4    H     H_    0.701873 0.239956 0.996745 0.178183
C15   C     C_2   0.445642 0.045812 0.476333 -0.052304
C16   C     C_2   0.554348 0.954187 0.523672 -0.052283
I1    I     I_    0.771198 0.184470 0.226587 -0.189810
I2    I     I_    0.228944 0.815632 0.773407 -0.189746
N3    N     N_R   0.998357 0.581878 0.374349 0.308736
O9    O     O_R   0.038494 0.496686 0.293271 -0.348194
O10   O     O_R   0.944044 0.721453 0.359315 -0.344318
N4    N     N_R   0.001607 0.418226 0.625677 0.308761
O11   O     O_R   0.961819 0.503725 0.706655 -0.348170
O12   O     O_R   0.055655 0.278595 0.640847 -0.344353
I3    I     I_    0.296322 0.984948 0.344308 -0.166177
I4    I     I_    0.703652 0.015051 0.655702 -0.166135

loop_
_geom_bond_atom_site_label_1
_geom_bond_atom_site_label_2
_geom_bond_distance
_ccdc_geom_bond_type
C4    C5    1.424710 S    
C2    C16   1.395956 S    
O7    Zn2   1.996410 S    
C3    C6    1.424718 S    
C7    C9    1.386333 A    
C6    C9    1.407844 A    
C5    C10   1.407847 A    
C12   H1    1.086465 S    
O6    C4    1.294133 A    
C8    H4    1.084174 S    
C11   H2    1.086455 S    
O5    C3    1.294129 A    
O7    C3    1.291206 A    
O2    C2    1.280185 A    
O3    Zn2   1.972672 S    
O8    C4    1.291197 A    
O1    C1    1.280194 A    
N1    N2    1.271834 D    
N1    N3    1.385140 S    
N4    O12   1.299940 A    
C8    C10   1.386339 A    
C11   C13   1.375328 A    
N4    O11   1.300118 A    
O2    Zn2   1.971382 S    
C1    C15   1.395956 S    
C5    C12   1.391188 A    
O1    Zn1   1.971382 S    
C8    C13   1.396765 A    
C6    C11   1.391198 A    
C7    H3    1.084174 S    
O5    Zn1   1.955841 S    
O4    C2    1.291662 A    
Zn1   N2    2.031028 S    
N2    N4    1.385106 S    
O4    Zn1   1.972670 S    
C7    C14   1.396762 A    
C10   I1    2.126958 S    
C16   I4    2.151062 S    
Zn2   N1    2.031026 S    
O6    Zn2   1.955841 S    
C9    I2    2.126962 S    
C15   I3    2.151079 S    
N3    O10   1.299979 A    
C13   C14   1.411748 A    
C15   C16   1.342231 D    
N3    O9    1.300221 A    
C12   C14   1.375327 A    
O3    C1    1.291650 A    
O8    Zn1   1.996409 S    
