data_mof_unit_59303.cif
_audit_creation_date              2012-12-10T21:00:47-0500
_audit_creation_method            fapswitch 2.2
_symmetry_space_group_name_H-M    P1
_symmetry_Int_Tables_number       1
_space_group_crystal_system       triclinic
_cell_length_a                    18.136182
_cell_length_b                    18.158711
_cell_length_c                    18.309933
_cell_angle_alpha                 120.064904
_cell_angle_beta                  89.817943
_cell_angle_gamma                 119.823652
_cell_volume                      4277.70216744

loop_
_atom_site_label
_atom_site_type_symbol
_atom_type_description
_atom_site_fract_x
_atom_site_fract_y
_atom_site_fract_z
_atom_type_partial_charge
C1    C     C_R   0.111910 0.219992 0.609742 0.495599
C2    C     C_3   0.449602 0.897516 0.947751 0.066269
C3    C     C_3   0.398915 0.218087 0.391744 -0.449209
C4    C     C_3   0.614472 0.702217 0.535770 -0.264839
C5    C     C_3   0.602951 0.782898 0.609199 -0.449352
C6    C     C_3   0.476491 0.032860 0.073731 -0.125880
C7    C     C_3   0.523503 0.967162 0.926289 -0.125923
C8    C     C_3   0.449750 0.405582 0.483570 0.019693
C9    C     C_3   0.550520 0.594682 0.516623 0.019633
C10   C     C_3   0.553489 0.476625 0.518717 0.019769
C11   C     C_3   0.446789 0.523704 0.481487 0.019787
C12   C     C_3   0.551407 0.500400 0.449436 0.040324
C13   C     C_3   0.448768 0.499809 0.550710 0.040148
C14   C     C_3   0.447452 0.428784 0.413348 -0.112058
C15   C     C_R   0.888273 0.779938 0.390170 0.498753
C16   C     C_3   0.552724 0.571438 0.586818 -0.112525
C17   C     C_R   0.212622 0.172043 0.801850 -0.115295
C18   C     C_R   0.790764 0.839574 0.200858 -0.118802
C19   C     C_R   0.392638 0.781186 0.888494 0.495563
C20   C     C_R   0.607361 0.218817 0.111512 0.495511
C21   C     C_R   0.171368 0.131543 0.714407 -0.082487
C22   C     C_R   0.831907 0.879837 0.288318 -0.091720
C23   C     C_R   0.081841 0.097530 0.686293 0.081469
C24   C     C_R   0.917281 0.901990 0.313547 0.074326
C25   C     C_R   0.033050 0.104556 0.747487 0.058979
C26   C     C_3   0.983420 0.430013 0.413943 -0.108866
C27   C     C_R   0.961737 0.882896 0.249412 0.072544
C28   C     C_R   0.076353 0.146805 0.835701 -0.099961
C29   C     C_R   0.918868 0.841630 0.161463 -0.091089
C30   C     C_R   0.165323 0.179937 0.862448 -0.121191
C31   C     C_R   0.834234 0.820706 0.137605 -0.123736
C32   C     C_R   0.984408 0.943218 0.535488 -0.163378
C33   C     C_R   0.016277 0.056474 0.464020 -0.161235
C34   C     C_R   0.944193 0.892198 0.444668 0.010480
C35   C     C_R   0.056409 0.107572 0.554964 0.009083
C36   C     C_R   0.959943 0.949449 0.408285 -0.039432
C37   C     C_3   0.016563 0.569965 0.586056 -0.108991
C38   C     C_R   0.039881 0.050217 0.591455 -0.029937
C39   C     C_R   0.681640 0.715551 0.881743 -0.117514
C40   C     C_R   0.318976 0.287224 0.121363 -0.117120
C41   C     C_R   0.636576 0.640248 0.898987 -0.087575
C42   C     C_R   0.364171 0.362866 0.104509 -0.086917
C43   C     C_R   0.112714 0.502463 0.891480 0.495317
C44   C     C_R   0.887455 0.497723 0.108724 0.497261
C45   C     C_R   0.594835 0.656051 0.964785 0.059326
C46   C     C_R   0.404924 0.346751 0.037915 0.058923
C47   C     C_R   0.599745 0.748474 0.013941 -0.070685
C48   C     C_3   0.413258 0.965146 0.976783 -0.109127
C49   C     C_R   0.398836 0.253661 0.987540 -0.070404
C50   C     C_R   0.644973 0.823612 0.996556 -0.094534
C51   C     C_R   0.353574 0.178241 0.004607 -0.094461
C52   C     C_R   0.685698 0.807061 0.930372 -0.096942
C53   C     C_R   0.313853 0.195104 0.071595 -0.097254
C54   C     C_R   0.593424 0.568961 0.032268 -0.164747
C55   C     C_R   0.406491 0.434627 0.971277 -0.166398
C56   C     C_R   0.550200 0.497186 0.053486 0.021681
C57   C     C_R   0.449736 0.505225 0.948861 0.021272
C58   C     C_R   0.455478 0.428151 0.021962 -0.039282
C59   C     C_3   0.586730 0.034869 0.023241 -0.109382
C60   C     C_R   0.544408 0.574925 0.981056 -0.038874
C61   C     C_R   0.278302 0.847030 0.083446 -0.102915
C62   C     C_R   0.722216 0.153579 0.916874 -0.102902
C63   C     C_R   0.217374 0.745412 0.057792 -0.061896
C64   C     C_R   0.783247 0.255117 0.942385 -0.062790
C65   C     C_R   0.124401 0.697110 0.026214 0.059499
C66   C     C_R   0.876188 0.303525 0.974454 0.060481
C67   C     C_R   0.392145 0.500012 0.607813 0.492349
C68   C     C_R   0.607885 0.500025 0.392207 0.492301
C69   C     C_R   0.093557 0.751984 0.020379 -0.094687
C70   C     C_3   0.487992 0.036258 0.956067 -0.130609
C71   C     C_R   0.906897 0.248791 0.980815 -0.093266
C72   C     C_R   0.154732 0.853479 0.045927 -0.120158
C73   C     C_R   0.845622 0.147348 0.955347 -0.123470
C74   C     C_R   0.246980 0.901227 0.078028 -0.110088
C75   C     C_R   0.753409 0.099537 0.922849 -0.110400
C76   C     C_R   0.000690 0.587667 0.057808 -0.152828
C77   C     C_R   0.000416 0.413275 0.943547 -0.154250
C78   C     C_R   0.942452 0.495714 0.050810 0.019241
C79   C     C_R   0.058173 0.504915 0.949928 0.018752
C80   C     C_R   0.941375 0.406649 0.992253 -0.029606
C81   C     C_3   0.511993 0.963758 0.043953 -0.130898
C82   C     C_R   0.059365 0.594082 0.008627 -0.029418
C83   C     C_R   0.393895 0.501722 0.890316 0.503715
C84   C     C_R   0.606090 0.498838 0.110220 0.503931
C85   C     C_R   0.108898 0.500309 0.607787 0.503797
C86   C     C_R   0.891095 0.499683 0.392213 0.503945
C87   C     C_3   0.077836 0.525467 0.482632 -0.124999
C88   C     C_3   0.922146 0.474511 0.517367 -0.125206
C89   C     C_3   0.042433 0.594708 0.516653 -0.123768
C90   C     C_3   0.957551 0.405270 0.483346 -0.123904
C91   C     C_3   0.948831 0.499289 0.448804 0.064698
C92   C     C_3   0.550389 0.102496 0.052265 0.066369
C93   C     C_3   0.051152 0.500691 0.551195 0.064704
C94   C     C_3   0.935308 0.066039 0.720715 -0.281765
C95   C     C_3   0.923535 0.133485 0.702295 -0.415894
C96   C     C_3   0.053254 0.903760 0.271754 -0.270130
C97   C     C_3   0.125937 0.999029 0.276206 -0.449194
C98   C     C_3   0.620874 0.457422 0.540696 -0.264697
C99   C     C_3   0.610234 0.440189 0.614565 -0.449757
C100  C     C_3   0.380018 0.543864 0.460000 -0.264906
C101  C     C_3   0.390296 0.560228 0.385618 -0.449457
C102  C     C_3   0.386426 0.298096 0.464652 -0.264288
H1    H     H_    0.076495 0.672489 0.529479 0.107396
H2    H     H_    0.951233 0.825677 0.111211 0.095128
H3    H     H_    0.973626 0.899736 0.563526 0.139542
H4    H     H_    0.027370 0.099896 0.435861 0.143373
H5    H     H_    0.720366 0.865131 0.916771 0.094178
H6    H     H_    0.279133 0.136805 0.084935 0.094124
H7    H     H_    0.713145 0.702819 0.830477 0.093523
H8    H     H_    0.288203 0.300154 0.173212 0.093345
H9    H     H_    0.633223 0.569288 0.860516 0.095931
H10   H     H_    0.368382 0.434305 0.143875 0.096061
H11   H     H_    0.567829 0.761633 0.064884 0.085497
H12   H     H_    0.923490 0.327490 0.470522 0.106953
H13   H     H_    0.429945 0.240235 0.935940 0.085889
H14   H     H_    0.142627 0.546442 0.469231 0.103990
H15   H     H_    0.857355 0.453535 0.530767 0.103835
H16   H     H_    0.648159 0.894465 0.034111 0.096473
H17   H     H_    0.349596 0.106929 0.966184 0.096573
H18   H     H_    0.666041 0.621749 0.056160 0.149820
H19   H     H_    0.333859 0.382643 0.948209 0.148637
H20   H     H_    0.293998 0.980391 0.099048 0.095954
H21   H     H_    0.706315 0.020435 0.901948 0.096102
H22   H     H_    0.349718 0.884124 0.108795 0.096784
H23   H     H_    0.197572 0.211543 0.930305 0.116721
H24   H     H_    0.650824 0.116425 0.891235 0.096758
H25   H     H_    0.022131 0.716648 0.997300 0.097179
H26   H     H_    0.978299 0.284214 0.004296 0.099600
H27   H     H_    0.130574 0.895598 0.041948 0.095064
H28   H     H_    0.869677 0.105340 0.959752 0.095137
H29   H     H_    0.969150 0.372466 0.342544 0.123412
H30   H     H_    0.030832 0.627511 0.657455 0.123321
H31   H     H_    0.478645 0.067184 0.920432 0.093466
H32   H     H_    0.521307 0.932840 0.079611 0.093003
H33   H     H_    0.341453 0.935724 0.956541 0.123480
H34   H     H_    0.802173 0.789470 0.069828 0.116406
H35   H     H_    0.658532 0.064306 0.043533 0.123341
H36   H     H_    0.458599 0.061904 0.135452 0.097567
H37   H     H_    0.541437 0.938169 0.864589 0.097606
H38   H     H_    0.405591 0.370680 0.341700 0.119236
H39   H     H_    0.594552 0.629468 0.658478 0.118986
H40   H     H_    0.975505 0.217005 0.753877 0.173778
H41   H     H_    0.928042 0.115444 0.635687 0.153773
H42   H     H_    0.856112 0.117785 0.702963 0.126183
H43   H     H_    0.894465 0.984307 0.660974 0.139403
H44   H     H_    0.907268 0.066281 0.774893 0.132848
H45   H     H_    0.281407 0.197232 0.822590 0.104186
H46   H     H_    0.110944 0.988325 0.211521 0.145813
H47   H     H_    0.130784 0.069191 0.330089 0.153881
H48   H     H_    0.191724 0.010830 0.290669 0.139790
H49   H     H_    0.072023 0.915804 0.336336 0.149809
H50   H     H_    0.051677 0.835176 0.219848 0.138613
H51   H     H_    0.242518 0.705395 0.064647 0.086999
H52   H     H_    0.758221 0.295037 0.935138 0.086442
H53   H     H_    0.002919 0.656499 0.104661 0.125324
H54   H     H_    0.998761 0.344726 0.897587 0.127360
H55   H     H_    0.614633 0.505810 0.674878 0.150509
H56   H     H_    0.725063 0.823040 0.182120 0.105743
H57   H     H_    0.544922 0.366763 0.591523 0.150856
H58   H     H_    0.664797 0.434831 0.632942 0.130594
H59   H     H_    0.612901 0.389563 0.479763 0.133893
H60   H     H_    0.689991 0.526373 0.563195 0.158840
H61   H     H_    0.456065 0.632803 0.407825 0.150845
H62   H     H_    0.384608 0.493677 0.325152 0.150041
H63   H     H_    0.336340 0.566727 0.367856 0.130762
H64   H     H_    0.310668 0.475687 0.438298 0.158928
H65   H     H_    0.389180 0.612578 0.521010 0.134547
H66   H     H_    0.385983 0.211087 0.328577 0.149171
H67   H     H_    0.208921 0.125614 0.668044 0.092168
H68   H     H_    0.467871 0.239745 0.412413 0.150843
H69   H     H_    0.350874 0.141375 0.379481 0.129705
H70   H     H_    0.397832 0.302980 0.526868 0.136018
H71   H     H_    0.315868 0.272095 0.442687 0.156573
H72   H     H_    0.535450 0.764234 0.587391 0.149558
H73   H     H_    0.612091 0.786530 0.671140 0.149554
H74   H     H_    0.654244 0.860469 0.624360 0.133504
H75   H     H_    0.684768 0.727333 0.557405 0.156882
H76   H     H_    0.603331 0.697805 0.473763 0.135859
H77   H     H_    0.797530 0.894622 0.336825 0.094126
H78   H     H_    0.041036 0.153591 0.884006 0.091963
O1    O     O_3   0.251620 0.500000 0.748430 -0.436096
O2    O     O_R   0.570330 0.268390 0.136490 -0.540740
O3    O     O_R   0.134680 0.268390 0.572240 -0.556186
O4    O     O_R   0.865320 0.731610 0.427760 -0.555977
O5    O     O_R   0.306670 0.731630 0.863510 -0.542096
O6    O     O_R   0.693330 0.268370 0.136490 -0.542141
O7    O     O_R   0.135450 0.439270 0.865360 -0.556082
O8    O     O_R   0.864550 0.560730 0.134640 -0.553057
O9    O     O_R   0.429670 0.560710 0.692610 -0.544332
O10   O     O_R   0.570330 0.439290 0.307390 -0.544175
O11   O     O_R   0.308540 0.439240 0.865360 -0.552097
O12   O     O_3   0.748380 0.500000 0.251570 -0.436541
O13   O     O_R   0.691460 0.560760 0.134640 -0.552612
O14   O     O_R   0.133580 0.439310 0.571150 -0.546241
O15   O     O_R   0.866420 0.560690 0.428850 -0.546224
O16   O     O_R   0.430770 0.560690 0.864590 -0.531885
O17   O     O_R   0.569230 0.439310 0.135410 -0.531993
O18   O     O_R   0.133580 0.560760 0.692610 -0.546784
O19   O     O_R   0.866420 0.439240 0.307390 -0.546747
O20   O     O_R   0.134680 0.560740 0.864590 -0.531519
O21   O     O_R   0.865320 0.439260 0.135410 -0.531916
O22   O     O_R   0.306670 0.439270 0.571150 -0.558626
O23   O     O_R   0.693330 0.560730 0.428850 -0.558957
O24   O     O_R   0.135450 0.268370 0.694460 -0.534786
O25   O     O_R   0.864550 0.731630 0.305540 -0.535696
O26   O     O_R   0.429670 0.731610 0.863510 -0.540608
Zn1   Zn    Zn3+2 0.207400 0.586780 0.791530 0.932726
Zn2   Zn    Zn3+2 0.792600 0.413220 0.208470 0.933380
Zn3   Zn    Zn3+2 0.208510 0.413230 0.792630 0.922160
Zn4   Zn    Zn3+2 0.791490 0.586770 0.207370 0.924724
Zn5   Zn    Zn3+2 0.383150 0.586740 0.791530 0.929272
Zn6   Zn    Zn3+2 0.616850 0.413260 0.208470 0.929272
Zn7   Zn    Zn3+2 0.207400 0.413250 0.618010 0.908158
Zn8   Zn    Zn3+2 0.792600 0.586750 0.381990 0.909128

loop_
_geom_bond_atom_site_label_1
_geom_bond_atom_site_label_2
_ccdc_geom_bond_type
O3    Zn7   S    
C55   H19   S    
C45   C60   S    
C94   H44   S    
C8    C13   S    
C54   H18   S    
C27   C29   A    
O12   Zn2   S    
C5    H72   S    
O5    Zn1   S    
C37   C88   S    
C2    C7    S    
C24   C27   A    
C88   H15   S    
C4    H75   S    
C100  H64   S    
O14   Zn7   S    
C63   C65   A    
C1    O3    A    
C81   H32   S    
C39   C41   A    
C54   C60   A    
C102  H71   S    
C95   H41   S    
C20   C92   S    
C46   C49   A    
C24   C36   S    
C6    C48   S    
C49   H13   S    
C61   H22   S    
C75   H21   S    
C83   O11   A    
O1    Zn1   S    
C9    C16   S    
C76   C78   A    
C99   H57   S    
C86   C91   S    
C77   H54   S    
C11   C14   S    
C78   C80   A    
C85   O14   A    
C59   H35   S    
C43   C79   S    
C21   H67   S    
C15   O4    A    
C64   H52   S    
C33   C36   A    
O1    Zn3   S    
C5    H74   S    
C42   C46   A    
O12   Zn8   S    
C83   O16   A    
C10   C98   S    
O10   Zn6   S    
O12   Zn6   S    
O15   Zn8   S    
C62   C64   A    
C48   H33   S    
O16   Zn5   S    
C85   C93   S    
O26   Zn5   S    
O7    Zn3   S    
C52   H5    S    
C26   C87   S    
C49   C51   A    
O24   Zn3   S    
C19   O26   A    
C50   C52   A    
C97   H48   S    
C57   C83   S    
C48   C70   S    
C43   O20   A    
C32   C38   A    
C89   C91   S    
O2    Zn6   S    
C15   C34   S    
C86   O19   A    
C9    C11   S    
C94   H43   S    
C40   C42   A    
C39   C52   A    
O18   Zn1   S    
C30   H23   S    
C95   H42   S    
C6    C81   S    
C18   C22   A    
C99   H58   S    
C89   H1    S    
C68   O23   A    
C17   C30   A    
C73   C75   A    
C27   C96   S    
O8    Zn4   S    
C7    C70   S    
C7    C59   S    
C98   H60   S    
C3    H66   S    
C56   C84   S    
C47   C50   A    
C45   C47   A    
C102  H70   S    
C54   C56   A    
C39   H7    S    
C101  H61   S    
C35   C38   A    
C63   H51   S    
C72   C74   A    
O9    Zn5   S    
C76   C82   A    
C62   H24   S    
C22   H77   S    
C57   C60   A    
C42   H10   S    
C2    C48   S    
C26   C91   S    
C96   H49   S    
C17   C21   A    
C29   H2    S    
C11   C100  S    
C25   C28   A    
C64   C66   A    
C6    H36   S    
C69   C72   A    
C18   H56   S    
C86   O15   A    
C70   H31   S    
C12   C68   S    
C85   O18   A    
C51   H17   S    
C66   C71   A    
C88   C91   S    
C68   O10   A    
C84   O13   A    
C96   C97   S    
C65   C82   S    
C61   C63   A    
C77   C79   A    
C37   C93   S    
O1    Zn5   S    
C55   C57   A    
C101  H63   S    
C28   H78   S    
O12   Zn4   S    
C87   H14   S    
C15   O25   A    
C10   C12   S    
C44   O8    A    
C3    C102  S    
C74   H20   S    
C14   H38   S    
C98   C99   S    
O20   Zn1   S    
C32   H3    S    
C21   C23   A    
C44   O21   A    
C61   C74   A    
C97   H46   S    
C22   C24   A    
C62   C75   A    
C13   C16   S    
O11   Zn3   S    
C98   H59   S    
C1    C35   S    
C90   C93   S    
C20   O2    A    
C13   C67   S    
C77   C80   A    
C72   H27   S    
C47   H11   S    
C97   H47   S    
C73   H28   S    
C8    C14   S    
C17   H45   S    
C2    C19   S    
C50   H16   S    
C101  H62   S    
C70   C92   S    
C33   H4    S    
C59   C81   S    
C4    H76   S    
C31   H34   S    
C43   O7    A    
C79   C82   A    
C40   H8    S    
C67   O9    A    
C3    H68   S    
C18   C31   A    
O6    Zn2   S    
C84   O17   A    
C26   C90   S    
C23   C38   S    
C66   C80   S    
C76   H53   S    
C37   H30   S    
C37   C89   S    
C5    H73   S    
C99   H55   S    
C88   C90   S    
C12   C14   S    
C28   C30   A    
C29   C31   A    
O17   Zn6   S    
C10   C16   S    
C19   O5    A    
C7    H37   S    
C11   C13   S    
C53   H6    S    
C3    H69   S    
O13   Zn4   S    
O19   Zn2   S    
C100  H65   S    
O25   Zn4   S    
C65   C69   A    
C4    C5    S    
C87   C93   S    
C44   C78   S    
C100  C101  S    
C33   C35   A    
O21   Zn2   S    
C56   C58   A    
C16   H39   S    
C34   C36   A    
C6    C92   S    
C90   H12   S    
O22   Zn7   S    
C94   C95   S    
C71   H26   S    
C9    C12   S    
O23   Zn8   S    
C20   O6    A    
O4    Zn8   S    
C25   C94   S    
C23   C25   A    
C69   H25   S    
C95   H40   S    
C8    C10   S    
C40   C53   A    
C41   H9    S    
C55   C58   A    
C71   C73   A    
C67   O22   A    
C87   C89   S    
C41   C45   A    
C2    C81   S    
O1    Zn7   S    
C59   C92   S    
C51   C53   A    
C4    C9    S    
C1    O24   A    
C8    C102  S    
C46   C58   S    
C26   H29   S    
C32   C34   A    
C96   H50   S    
