data_mof_unit_9278.cif
_audit_creation_date              2012-10-26T18:27:06-0400
_audit_creation_method            fapswitch 2.2
_symmetry_space_group_name_H-M    P1
_symmetry_Int_Tables_number       1
_space_group_crystal_system       triclinic
_cell_length_a                    15.144344
_cell_length_b                    11.043387
_cell_length_c                    9.812382
_cell_angle_alpha                 89.270913
_cell_angle_beta                  92.142446
_cell_angle_gamma                 87.615341
_cell_volume                      1638.33546135

loop_
_atom_site_label
_atom_site_type_symbol
_atom_type_description
_atom_site_fract_x
_atom_site_fract_y
_atom_site_fract_z
_atom_type_partial_charge
C1    C     C_R   0.506965 0.264856 0.501953 0.546459
C2    C     C_R   0.188814 0.390900 0.471839 0.194914
C3    C     C_R   0.231984 0.499526 0.494354 0.011276
C4    C     C_R   0.329023 0.499513 0.497930 0.601131
C5    C     C_R   0.183288 0.606357 0.523229 0.216356
C6    C     C_2   0.526440 0.932299 0.400592 0.260361
C7    C     C_2   0.482436 0.866347 0.490875 0.281135
C8    C     C_2   0.509829 0.065436 0.392363 0.338030
C9    C     C_2   0.525604 0.130702 0.505904 0.272654
C10   C     C_2   0.430970 0.519299 0.921591 0.470638
C11   C     C_2   0.432276 0.478326 0.071209 0.451086
C12   C     C_R   0.903978 0.606408 0.534685 0.001152
C13   C     C_R   0.498041 0.734375 0.498693 0.539362
C14   C     C_R   0.670800 0.497287 0.502101 0.548966
C15   C     C_R   0.810905 0.605433 0.540109 0.181794
C16   C     C_R   0.767498 0.498338 0.506932 0.018058
C17   C     C_R   0.815924 0.391506 0.476312 0.170650
C18   C     C_R   0.909532 0.387774 0.489637 -0.037988
C19   C     C_R   0.953251 0.496972 0.510169 -0.126135
C20   C     C_3   0.417870 0.922588 0.692146 0.025885
C21   C     C_3   0.340401 0.862509 0.755265 -0.237351
C22   C     C_3   0.347700 0.866943 0.909965 -0.500704
C23   C     C_R   0.960789 0.277133 0.492785 0.296530
C24   C     C_3   0.530281 0.099786 0.162787 0.020674
C25   C     C_3   0.620381 0.159824 0.183018 -0.226449
C26   C     C_3   0.697436 0.077666 0.138824 -0.482715
C27   C     C_3   0.594519 0.124953 0.733375 -0.015839
C28   C     C_3   0.678739 0.191926 0.707371 -0.245543
C29   C     C_3   0.727037 0.224058 0.840720 -0.515904
C30   C     C_3   0.636521 0.554839 0.098966 0.085340
C31   C     C_3   0.697017 0.652620 0.153635 -0.265813
C32   C     C_3   0.794435 0.613895 0.142128 -0.493232
C33   C     C_3   0.906882 0.158823 0.661101 0.031979
C34   C     C_R   0.052612 0.276906 0.485955 0.255626
C35   C     C_3   0.990276 0.137620 0.753633 -0.263620
C36   C     C_3   0.966123 0.126316 0.902774 -0.512109
C37   C     C_3   0.247680 0.283142 0.296495 0.054494
C38   C     C_3   0.190395 0.186925 0.231384 -0.263481
C39   C     C_3   0.215830 0.163129 0.084693 -0.505765
C40   C     C_3   0.211899 0.791747 0.428049 0.033565
C41   C     C_3   0.282437 0.768530 0.323033 -0.259365
C42   C     C_3   0.304103 0.882907 0.245058 -0.476388
C43   C     C_3   0.103028 0.746221 0.790572 0.036800
C44   C     C_3   0.084685 0.842528 0.896911 -0.271914
C45   C     C_R   0.096452 0.387326 0.486321 -0.026296
C46   C     C_3   0.097506 0.790425 0.041472 -0.506307
C47   C     C_3   0.881663 0.875628 0.446919 0.053864
C48   C     C_3   0.961360 0.915732 0.367747 -0.259308
C49   C     C_3   0.932708 0.994941 0.244204 -0.467754
C50   C     C_R   0.046823 0.496358 0.508814 -0.132135
C51   C     C_R   0.090937 0.603689 0.536775 -0.045329
C52   C     C_R   0.041784 0.705771 0.581526 0.269891
C53   C     C_R   0.950065 0.713119 0.561322 0.311755
Cu1   Cu    Cu3+1 0.500020 0.500020 0.638630 1.014064
Cu2   Cu    Cu3+1 0.499980 0.499980 0.361370 1.034457
H1    H     H_    0.700768 0.704173 0.561446 0.339463
H2    H     H_    0.536934 0.001978 0.138994 0.135188
H3    H     H_    0.618227 0.246528 0.124575 0.152899
H4    H     H_    0.634334 0.184044 0.290678 0.208251
H5    H     H_    0.682382 0.037483 0.038034 0.135672
H6    H     H_    0.711678 0.003411 0.214548 0.204620
H7    H     H_    0.757589 0.131205 0.132310 0.129470
H8    H     H_    0.611872 0.053312 0.811368 0.147838
H9    H     H_    0.541504 0.180305 0.780359 0.169608
H10   H     H_    0.722388 0.133750 0.645305 0.205288
H11   H     H_    0.662832 0.275471 0.647369 0.204447
H12   H     H_    0.415526 0.019329 0.722068 0.167057
H13   H     H_    0.680078 0.243320 0.921439 0.167295
H14   H     H_    0.764981 0.306861 0.827208 0.140432
H15   H     H_    0.772153 0.147406 0.875560 0.145060
H16   H     H_    0.313337 0.591368 0.936468 0.275848
H17   H     H_    0.595330 0.394285 0.824397 0.358325
H18   H     H_    0.322942 0.398657 0.041117 0.280772
H19   H     H_    0.654016 0.464977 0.147631 0.162803
H20   H     H_    0.651327 0.547516 0.989682 0.166874
H21   H     H_    0.683277 0.737996 0.093877 0.157952
H22   H     H_    0.684469 0.671991 0.261744 0.212291
H23   H     H_    0.481421 0.880610 0.735294 0.163623
H24   H     H_    0.810516 0.530437 0.204009 0.154364
H25   H     H_    0.836632 0.686975 0.180172 0.140258
H26   H     H_    0.809652 0.596515 0.034062 0.154584
H27   H     H_    0.806303 0.246449 0.369065 0.341644
H28   H     H_    0.865217 0.079811 0.675257 0.177186
H29   H     H_    0.869794 0.240819 0.694512 0.140653
H30   H     H_    0.026789 0.053892 0.722292 0.220487
H31   H     H_    0.034083 0.215240 0.745853 0.152054
H32   H     H_    0.933398 0.212006 0.936810 0.147579
H33   H     H_    0.026950 0.108194 0.967245 0.143081
H34   H     H_    0.277315 0.909323 0.718843 0.192445
H35   H     H_    0.921027 0.050847 0.917117 0.150923
H36   H     H_    0.144299 0.170633 0.567741 0.348890
H37   H     H_    0.318092 0.257278 0.280742 0.247764
H38   H     H_    0.231797 0.371445 0.242523 0.148234
H39   H     H_    0.198452 0.101316 0.291663 0.205412
H40   H     H_    0.119699 0.218057 0.230712 0.178925
H41   H     H_    0.201034 0.245286 0.020068 0.148683
H42   H     H_    0.177543 0.087709 0.042906 0.134269
H43   H     H_    0.287339 0.137171 0.080868 0.172807
H44   H     H_    0.215304 0.885689 0.466519 0.201278
H45   H     H_    0.340148 0.766877 0.723060 0.270376
H46   H     H_    0.145314 0.785679 0.377633 0.107334
H47   H     H_    0.343110 0.733665 0.376809 0.226028
H48   H     H_    0.261207 0.697786 0.250830 0.135743
H49   H     H_    0.247828 0.912049 0.175391 0.137785
H50   H     H_    0.363760 0.864001 0.185588 0.157675
H51   H     H_    0.319385 0.957354 0.315795 0.206500
H52   H     H_    0.174414 0.718440 0.797143 0.177988
H53   H     H_    0.064843 0.665220 0.817948 0.113307
H54   H     H_    0.129534 0.918504 0.883149 0.155146
H55   H     H_    0.015155 0.877183 0.882344 0.194232
H56   H     H_    0.409691 0.818703 0.948581 0.174920
H57   H     H_    0.045443 0.725384 0.062209 0.150257
H58   H     H_    0.092884 0.864796 0.116056 0.144272
H59   H     H_    0.163224 0.742842 0.055183 0.137535
H60   H     H_    0.836969 0.955870 0.463842 0.197605
H61   H     H_    0.842486 0.812491 0.383916 0.142216
H62   H     H_    0.006448 0.966157 0.436006 0.262191
H63   H     H_    0.997993 0.834339 0.330681 0.109192
H64   H     H_    0.892849 0.942542 0.170157 0.134621
H65   H     H_    0.992166 0.026275 0.193810 0.149790
H66   H     H_    0.893172 0.075843 0.275581 0.178426
H67   H     H_    0.290739 0.821912 0.952828 0.152454
H68   H     H_    0.576579 0.830365 0.266644 0.326345
H69   H     H_    0.347088 0.962418 0.944258 0.135069
H70   H     H_    0.496406 0.141168 0.070060 0.143944
N1    N     N_2   0.499020 0.498660 0.846910 -0.052804
N2    N     N_2   0.499000 0.498630 0.153040 -0.014564
O1    O     O_R   0.500020 0.321960 0.617040 -0.534275
O2    O     O_3   0.407764 0.918389 0.548585 -0.618936
O3    O     O_3   0.474221 0.120596 0.273117 -0.601942
O4    O     O_3   0.565130 0.063597 0.616595 -0.628703
O5    O     O_3   0.356218 0.577292 0.863849 -0.727493
O6    O     O_3   0.553740 0.409497 0.897382 -0.720302
O7    O     O_3   0.363576 0.415591 0.119453 -0.750530
O8    O     O_3   0.546329 0.592708 0.109335 -0.518828
O9    O     O_3   0.769644 0.292967 0.433268 -0.739915
O10   O     O_3   0.924322 0.167064 0.520497 -0.564533
O11   O     O_3   0.097430 0.165662 0.495017 -0.695414
O12   O     O_R   0.499980 0.321920 0.382900 -0.459056
O13   O     O_3   0.237853 0.287382 0.439202 -0.573790
O14   O     O_3   0.227422 0.712493 0.542043 -0.568496
O15   O     O_3   0.081127 0.794627 0.658033 -0.535435
O16   O     O_3   0.907263 0.825143 0.577077 -0.502908
O17   O     O_3   0.599584 0.883763 0.338790 -0.766057
O18   O     O_R   0.370270 0.499990 0.617090 -0.433761
O19   O     O_R   0.370240 0.499950 0.382940 -0.493304
O20   O     O_R   0.500020 0.678080 0.617100 -0.503354
O21   O     O_R   0.499980 0.678040 0.382960 -0.524886
O22   O     O_R   0.629760 0.500050 0.617060 -0.546538
O23   O     O_R   0.629730 0.500010 0.382910 -0.507449
O24   O     O_3   0.764932 0.709124 0.581016 -0.661771

loop_
_geom_bond_atom_site_label_1
_geom_bond_atom_site_label_2
_ccdc_geom_bond_type
C46   H57   S    
C27   O4    S    
C41   C42   S    
C20   H12   S    
C11   N2    D    
C35   C36   S    
C1    O1    A    
C20   O2    S    
C40   H44   S    
C15   O24   S    
Cu2   O21   S    
C21   H34   S    
C36   H33   S    
C47   H60   S    
C32   H26   S    
Cu1   N1    S    
C21   C22   S    
C28   C29   S    
C26   H6    S    
N2    O8    S    
C30   C31   S    
C30   H19   S    
C35   H31   S    
C39   H42   S    
C49   H65   S    
C15   C16   A    
C29   H13   S    
C47   O16   S    
Cu2   O12   S    
C41   H47   S    
C14   O22   A    
C18   C19   A    
C49   H64   S    
H16   O5    S    
C47   C48   S    
N1    O6    S    
C33   O10   S    
C16   C17   A    
C37   O13   S    
H68   O17   S    
C37   H37   S    
C31   H22   S    
C12   C53   A    
C1    O12   A    
C44   H54   S    
C40   H46   S    
C4    O19   A    
C2    C45   A    
C40   O14   S    
C14   O23   A    
C31   H21   S    
C33   H29   S    
C44   C46   S    
C22   H67   S    
Cu1   O22   S    
C29   H14   S    
C9    O4    S    
C36   H32   S    
C47   H61   S    
C46   H59   S    
C51   C52   A    
C1    C9    S    
C24   C25   S    
C10   C11   S    
C11   O7    S    
C21   H45   S    
C8    C9    D    
Cu2   O19   S    
C48   H63   S    
C50   C51   A    
C25   C26   S    
Cu1   O1    S    
C34   O11   S    
C52   O15   S    
C18   C23   A    
C53   O16   S    
C38   H40   S    
C28   H11   S    
C43   C44   S    
C37   C38   S    
C32   H25   S    
H36   O11   S    
C33   H28   S    
C5    O14   S    
C31   C32   S    
C12   C15   A    
C23   C34   A    
C49   H66   S    
C38   H39   S    
C17   O9    S    
C17   C18   A    
C37   H38   S    
C34   C45   A    
C43   H52   S    
H18   O7    S    
H1    O24   S    
C42   H51   S    
C48   H62   S    
C27   H8    S    
Cu1   O18   S    
C48   C49   S    
Cu2   N2    S    
C22   H56   S    
C8    O3    S    
C24   H70   S    
C14   C16   S    
C25   H3    S    
C13   O20   A    
C6    O17   S    
C3    C4    S    
C3    C5    A    
C52   C53   A    
Cu2   O23   S    
C29   H15   S    
C24   H2    S    
C36   H35   S    
Cu1   Cu2   S    
C40   C41   S    
C46   H58   S    
C23   O10   S    
C39   H43   S    
C42   H49   S    
C6    C8    S    
C22   H69   S    
C6    C7    D    
C20   H23   S    
C2    O13   S    
C2    C3    A    
C26   H7    S    
C32   H24   S    
C41   H48   S    
C30   H20   S    
C35   H30   S    
C19   C50   A    
H17   O6    S    
C38   C39   S    
C45   C50   A    
C4    O18   A    
C12   C19   A    
C33   C35   S    
C28   H10   S    
C43   H53   S    
H27   O9    S    
C42   H50   S    
C10   O5    S    
C39   H41   S    
C7    O2    S    
C27   H9    S    
C24   O3    S    
C7    C13   S    
C20   C21   S    
C30   O8    S    
C27   C28   S    
C5    C51   A    
C43   O15   S    
C25   H4    S    
C13   O21   A    
C10   N1    D    
C26   H5    S    
Cu1   O20   S    
C44   H55   S    
