data_mof_unit_54060.cif
_audit_creation_date              2012-12-10T17:07:50-0500
_audit_creation_method            fapswitch 2.2
_symmetry_space_group_name_H-M    P1
_symmetry_Int_Tables_number       1
_space_group_crystal_system       triclinic
_cell_length_a                    10.695061
_cell_length_b                    10.81922
_cell_length_c                    9.98939
_cell_angle_alpha                 91.224859
_cell_angle_beta                  89.782351
_cell_angle_gamma                 91.170649
_cell_volume                      1155.38261586

loop_
_atom_site_label
_atom_site_type_symbol
_atom_type_description
_atom_site_fract_x
_atom_site_fract_y
_atom_site_fract_z
_atom_type_partial_charge
C1    C     C_R   0.496704 0.263357 0.497976 0.949830
C2    C     C_3   0.879364 0.505177 0.494983 0.028350
C3    C     C_3   0.928850 0.637615 0.537845 -0.182699
C4    C     C_3   0.931313 0.464996 0.352965 -0.143535
C5    C     C_2   0.506792 0.935513 0.394280 -0.080521
C6    C     C_2   0.537319 0.869197 0.503339 -0.051331
C7    C     C_2   0.533263 0.065713 0.394103 -0.020396
C8    C     C_2   0.477888 0.133707 0.489503 -0.431230
C9    C     C_2   0.578490 0.565257 0.926468 -0.134461
C10   C     C_2   0.567053 0.576759 0.076249 -0.087744
C11   C     C_R   0.257828 0.499661 0.500136 0.834198
C12   C     C_R   0.507526 0.737788 0.501557 0.923035
C13   C     C_R   0.742402 0.499674 0.498912 0.844070
C14   C     C_3   0.068203 0.407442 0.596451 -0.413940
C15   C     C_3   0.925800 0.410809 0.597752 -0.455204
C16   C     C_3   0.076911 0.644346 0.532063 0.271321
C17   C     C_3   0.074005 0.461746 0.357940 -0.496759
C18   C     C_3   0.121950 0.505945 0.499316 0.107072
H1    H     H_    0.104749 0.415793 0.699268 0.199607
H2    H     H_    0.412789 0.092407 0.560491 0.139794
H3    H     H_    0.653714 0.616464 0.878550 0.162183
H4    H     H_    0.424528 0.461637 0.897459 0.160633
H5    H     H_    0.620295 0.650011 0.126894 0.181271
H6    H     H_    0.097154 0.313533 0.562210 0.163716
H7    H     H_    0.459655 0.426270 0.100231 0.164016
H8    H     H_    0.886982 0.316707 0.573214 0.174631
H9    H     H_    0.893372 0.435236 0.700731 0.199107
H10   H     H_    0.897526 0.654140 0.642485 0.131542
H11   H     H_    0.117575 0.516375 0.276187 0.190126
H12   H     H_    0.103749 0.365126 0.336449 0.178384
H13   H     H_    0.895227 0.369873 0.328599 0.150741
N1    N     N_2   0.501360 0.501330 0.852150 -0.193240
N2    N     N_2   0.501390 0.501360 0.147810 -0.196001
O1    O     O_R   0.499980 0.319060 0.613040 -0.614055
O2    O     O_R   0.500020 0.319100 0.386900 -0.603596
O3    O     O_R   0.314770 0.499960 0.613070 -0.625210
O4    O     O_R   0.314820 0.500000 0.386930 -0.635366
O5    O     O_R   0.499980 0.680900 0.613100 -0.609524
O6    O     O_R   0.500020 0.680940 0.386960 -0.618435
O7    O     O_R   0.685180 0.500000 0.613070 -0.628674
O8    O     O_R   0.685230 0.500040 0.386930 -0.607490
Zn1   Zn    Zn3+2 0.499970 0.499970 0.650990 0.927781
Zn2   Zn    Zn3+2 0.500030 0.500030 0.349010 0.956700
C19   C     C_1   0.893695 0.543407 0.240823 0.220720
N3    N     N_1   0.865803 0.604435 0.152466 -0.231481
C20   C     C_3   0.126895 0.731735 0.415716 -0.418403
C21   C     C_3   0.129089 0.872354 0.443937 -0.894333
H14   H     H_    0.040875 0.905007 0.489451 0.268626
H15   H     H_    0.208000 0.899105 0.511221 0.238332
H16   H     H_    0.143968 0.921518 0.348548 0.267917
H17   H     H_    0.224621 0.709648 0.389182 0.217203
H18   H     H_    0.072426 0.715035 0.322719 0.228167
C22   C     C_1   0.866393 0.734750 0.461355 0.143224
N4    N     N_1   0.817635 0.809904 0.400797 -0.197117
C23   C     C_1   0.435346 0.888298 0.279966 0.208080
N5    N     N_1   0.378556 0.851143 0.188710 -0.214795
C24   C     C_3   0.614830 0.929460 0.619192 -0.393854
C25   C     C_3   0.668219 0.844931 0.724569 -0.834387
H19   H     H_    0.592949 0.813952 0.793713 0.270941
H20   H     H_    0.714159 0.764266 0.677706 0.259393
H21   H     H_    0.739042 0.897179 0.785384 0.237047
H22   H     H_    0.695606 0.980858 0.575208 0.224654
H23   H     H_    0.557459 0.996710 0.675922 0.218018
C26   C     C_1   0.623573 0.113343 0.298252 0.228411
N6    N     N_1   0.695668 0.151239 0.221954 -0.222122
C27   C     C_3   0.130289 0.702821 0.667573 -0.351990
C28   C     C_3   0.110220 0.635722 0.799948 -0.888097
H24   H     H_    0.117751 0.704168 0.884203 0.252158
H25   H     H_    0.016910 0.590518 0.807467 0.253911
H26   H     H_    0.185192 0.568635 0.816495 0.267500
H27   H     H_    0.232293 0.722172 0.656974 0.221871
H28   H     H_    0.086260 0.794059 0.683908 0.211709

loop_
_geom_bond_atom_site_label_1
_geom_bond_atom_site_label_2
_ccdc_geom_bond_type
O4    Zn2   S    
C2    C4    S    
C23   N5    T    
C11   C18   S    
O5    Zn1   S    
C11   O4    A    
C17   H12   S    
C10   H5    S    
C21   H16   S    
C1    C8    S    
O2    Zn2   S    
C9    C10   S    
C14   C18   S    
O3    Zn1   S    
C27   H27   S    
O1    Zn1   S    
C28   H26   S    
C26   N6    T    
C25   H21   S    
O7    Zn1   S    
C17   C18   S    
C7    C8    D    
C21   H15   S    
C22   N4    T    
C12   O5    A    
C2    C15   S    
C3    C22   S    
C6    C24   S    
C9    H3    S    
C24   C25   S    
C8    H2    S    
H4    N1    S    
C12   O6    A    
C13   O7    A    
C4    C17   S    
C14   H1    S    
C13   O8    A    
C11   O3    A    
C1    O1    A    
C24   H23   S    
C10   N2    D    
C2    C3    S    
C6    C12   S    
C5    C6    D    
C7    C26   S    
C4    H13   S    
C16   C27   S    
C3    C16   S    
C25   H20   S    
C28   H24   S    
N2    Zn2   S    
C20   H18   S    
C24   H22   S    
C17   H11   S    
C19   N3    T    
C1    O2    A    
C3    H10   S    
C16   C18   S    
C14   H6    S    
C27   C28   S    
C5    C7    S    
C2    C13   S    
N1    Zn1   S    
C14   C15   S    
C16   C20   S    
C15   H8    S    
O6    Zn2   S    
C4    C19   S    
C9    N1    D    
C25   H19   S    
C20   C21   S    
C15   H9    S    
C20   H17   S    
C5    C23   S    
C27   H28   S    
O8    Zn2   S    
C21   H14   S    
H7    N2    S    
C28   H25   S    
