data_mof_unit_12405.cif
_audit_creation_date              2012-12-11T14:43:38-0500
_audit_creation_method            fapswitch 2.2
_symmetry_space_group_name_H-M    P1
_symmetry_Int_Tables_number       1
_space_group_crystal_system       triclinic
_cell_length_a                    20.923248
_cell_length_b                    7.088592
_cell_length_c                    16.375052
_cell_angle_alpha                 89.999987
_cell_angle_beta                  92.752938
_cell_angle_gamma                 90.0
_cell_volume                      2425.8853563

loop_
_atom_site_label
_atom_site_type_symbol
_atom_type_description
_atom_site_fract_x
_atom_site_fract_y
_atom_site_fract_z
_atom_type_partial_charge
O1    O     O_R   0.564840 0.505290 0.579830 -0.547725
O2    O     O_R   0.435160 0.005290 0.420170 -0.547724
O3    O     O_R   0.556720 0.179930 0.409350 -0.539072
O4    O     O_R   0.443280 0.679930 0.590650 -0.539072
C1    C     C_R   0.570066 0.345199 0.380908 0.703046
C2    C     C_R   0.429934 0.845199 0.619092 0.703046
O5    O     O_R   0.572280 0.175810 0.578530 -0.526746
O6    O     O_R   0.427720 0.675810 0.421470 -0.526745
O7    O     O_R   0.450830 0.001920 0.590540 -0.538304
O8    O     O_R   0.549170 0.501920 0.409460 -0.538304
C3    C     C_R   0.590207 0.345320 0.604852 0.767493
C4    C     C_R   0.409793 0.845320 0.395148 0.767492
O9    O     O_3   0.460130 0.338030 0.503750 -0.374865
O10   O     O_3   0.539870 0.838030 0.496250 -0.374865
V1    V     V_3+5 0.507400 0.064560 0.499310 1.427530
V2    V     V_3+5 0.492600 0.564560 0.500690 1.427530
C5    C     C_R   0.141761 0.899416 0.169883 -0.084724
C6    C     C_R   0.858239 0.399416 0.830117 -0.084724
C7    C     C_R   0.356859 0.864962 0.331320 -0.209355
C8    C     C_R   0.643141 0.364961 0.668680 -0.209354
C9    C     C_R   0.310593 0.052027 0.216604 0.441498
C10   C     C_R   0.689407 0.552026 0.783396 0.441499
C11   C     C_R   0.361303 0.010039 0.273260 -0.356452
C12   C     C_R   0.638697 0.510038 0.726741 -0.356453
C13   C     C_R   0.300166 0.757042 0.331978 0.386674
C14   C     C_R   0.699833 0.257042 0.668022 0.386674
C15   C     C_R   0.246890 0.807010 0.279053 -0.000700
C16   C     C_R   0.753110 0.307010 0.720947 -0.000700
C17   C     C_R   0.252193 0.954991 0.221192 -0.002998
C18   C     C_R   0.747807 0.454991 0.778808 -0.002998
C19   C     C_R   0.199196 0.001117 0.167735 -0.147054
C20   C     C_R   0.800803 0.501116 0.832265 -0.147053
C21   C     C_R   0.136671 0.757166 0.229016 -0.181769
C22   C     C_R   0.863329 0.257166 0.770984 -0.181770
C23   C     C_R   0.187977 0.713143 0.283351 -0.116851
C24   C     C_R   0.812023 0.213144 0.716648 -0.116851
H1    H     H_    0.203363 0.110339 0.122271 0.174814
H2    H     H_    0.796636 0.610338 0.877729 0.174814
H3    H     H_    0.092767 0.677042 0.232410 0.116264
H4    H     H_    0.907233 0.177043 0.767590 0.116264
H5    H     H_    0.181406 0.602961 0.327953 0.151672
H6    H     H_    0.818594 0.102962 0.672047 0.151672
H7    H     H_    0.404311 0.095012 0.273280 0.151977
H8    H     H_    0.595689 0.595012 0.726720 0.151976
C25   C     C_R   0.382500 0.951292 0.831681 -0.142453
C26   C     C_R   0.617500 0.451292 0.168319 -0.142452
H9    H     H_    0.470968 0.932618 0.771801 0.097258
H10   H     H_    0.529032 0.432618 0.228199 0.097258
H11   H     H_    0.305274 0.025104 0.948151 0.135467
H12   H     H_    0.694725 0.525105 0.051848 0.135469
H13   H     H_    0.406382 0.992206 0.889199 0.102507
H14   H     H_    0.593617 0.492206 0.110801 0.102507
C27   C     C_R   0.390493 0.859518 0.690835 -0.069412
C28   C     C_R   0.609507 0.359518 0.309164 -0.069413
C29   C     C_R   0.079520 0.861468 0.736499 -0.276173
C30   C     C_R   0.920480 0.361468 0.263500 -0.276173
C31   C     C_R   0.112210 0.847685 0.665297 -0.168916
C32   C     C_R   0.887790 0.347685 0.334702 -0.168917
C33   C     C_R   0.178480 0.870510 0.665890 0.479080
C34   C     C_R   0.821520 0.370510 0.334110 0.479080
C35   C     C_R   0.214791 0.894172 0.741533 -0.089134
C36   C     C_R   0.785209 0.394172 0.258466 -0.089134
C37   C     C_R   0.179759 0.928945 0.813891 -0.079907
C38   C     C_R   0.820240 0.428945 0.186109 -0.079907
C39   C     C_R   0.283915 0.891939 0.747891 0.076227
C40   C     C_R   0.716085 0.391939 0.252108 0.076227
C41   C     C_R   0.315478 0.941552 0.823591 0.075592
C42   C     C_R   0.684521 0.441553 0.176409 0.075592
C43   C     C_R   0.280544 0.986219 0.890951 -0.277952
C44   C     C_R   0.719456 0.486220 0.109049 -0.277952
C45   C     C_R   0.213901 0.987302 0.886519 0.420661
C46   C     C_R   0.786098 0.487302 0.113481 0.420661
C47   C     C_R   0.323621 0.839828 0.683095 -0.182734
C48   C     C_R   0.676379 0.339827 0.316905 -0.182734
C49   C     C_R   0.419492 0.915697 0.765258 -0.166177
C50   C     C_R   0.580508 0.415697 0.234741 -0.166178
C51   C     C_R   0.111547 0.906881 0.810537 -0.079858
C52   C     C_R   0.888452 0.406881 0.189463 -0.079858
H15   H     H_    0.305011 0.783331 0.625964 0.183257
H16   H     H_    0.694989 0.283330 0.374036 0.183257
H17   H     H_    0.028054 0.842085 0.733310 0.125312
H18   H     H_    0.971945 0.342084 0.266689 0.125312
H19   H     H_    0.085505 0.822687 0.608009 0.139623
H20   H     H_    0.914494 0.322686 0.391991 0.139623
O11   O     O_R   0.950790 0.256670 0.090520 -0.544355
O12   O     O_R   0.049210 0.756670 0.909480 -0.544355
O13   O     O_R   0.927720 0.590370 0.921470 -0.539650
O14   O     O_R   0.072280 0.090370 0.078530 -0.539650
C53   C     C_R   0.910531 0.420349 0.894363 0.740982
C54   C     C_R   0.089469 0.920349 0.105637 0.740982
O15   O     O_R   0.943270 0.586180 0.090640 -0.529452
O16   O     O_R   0.056730 0.086180 0.909360 -0.529453
O17   O     O_R   0.064850 0.759970 0.079840 -0.539911
O18   O     O_R   0.935150 0.259970 0.920160 -0.539911
C55   C     C_R   0.928762 0.417324 0.117536 0.793613
C56   C     C_R   0.071238 0.917324 0.882464 0.793613
O19   O     O_3   0.039850 0.428050 0.996240 -0.385456
O20   O     O_3   0.960150 0.928050 0.003760 -0.385456
V3    V     V_3+5 0.992610 0.701540 0.000700 1.411000
V4    V     V_3+5 0.007390 0.201540 0.999300 1.410999
O21   O     O_3   0.205633 0.874147 0.590776 -0.564181
C57   C     C_3   0.209137 0.063318 0.564610 -0.255517
H21   H     H_    0.239259 0.150066 0.608120 0.143355
H22   H     H_    0.160598 0.126502 0.555653 0.141685
H23   H     H_    0.231877 0.066416 0.504781 0.170358
O22   O     O_3   0.794367 0.374147 0.409224 -0.564181
C58   C     C_3   0.790863 0.563318 0.435389 -0.255518
H24   H     H_    0.760741 0.650066 0.391879 0.143355
H25   H     H_    0.839402 0.626502 0.444347 0.141685
H26   H     H_    0.768123 0.566417 0.495219 0.170358
O23   O     O_3   0.182670 0.049741 0.953913 -0.571137
C59   C     C_3   0.188866 0.248232 0.958697 -0.194132
H27   H     H_    0.170883 0.317974 0.901094 0.130641
H28   H     H_    0.239124 0.291075 0.974097 0.126202
H29   H     H_    0.159683 0.300916 0.008510 0.174945
O24   O     O_3   0.817330 0.549742 0.046087 -0.571137
C60   C     C_3   0.811134 0.748232 0.041303 -0.194132
H30   H     H_    0.829117 0.817974 0.098906 0.130641
H31   H     H_    0.760876 0.791076 0.025902 0.126203
H32   H     H_    0.840317 0.800917 0.991490 0.174945
O25   O     O_3   0.315058 0.200904 0.162099 -0.559790
C61   C     C_3   0.366365 0.170853 0.110722 -0.274655
H33   H     H_    0.367803 0.023196 0.087456 0.132899
H34   H     H_    0.412677 0.209029 0.142431 0.135831
H35   H     H_    0.359860 0.264940 0.056829 0.155821
O26   O     O_3   0.684942 0.700904 0.837901 -0.559790
C62   C     C_3   0.633633 0.670860 0.889276 -0.274660
H36   H     H_    0.632191 0.523204 0.912540 0.132900
H37   H     H_    0.587323 0.709045 0.857565 0.135832
H38   H     H_    0.640138 0.764945 0.943170 0.155822
O27   O     O_3   0.294675 0.616634 0.389939 -0.555030
C63   C     C_3   0.309348 0.442070 0.353843 -0.176298
H39   H     H_    0.357918 0.442431 0.328883 0.143639
H40   H     H_    0.273122 0.403365 0.304824 0.141856
H41   H     H_    0.308748 0.330743 0.401427 0.150122
O28   O     O_3   0.705325 0.116634 0.610060 -0.555030
C64   C     C_3   0.690652 0.942070 0.646157 -0.176300
H42   H     H_    0.642082 0.942429 0.671115 0.143640
H43   H     H_    0.726878 0.903367 0.695177 0.141857
H44   H     H_    0.691254 0.830743 0.598573 0.150121

loop_
_geom_bond_atom_site_label_1
_geom_bond_atom_site_label_2
_ccdc_geom_bond_type
C40   C42   A    
O21   C57   S    
C15   C17   A    
H10   C50   S    
C24   H6    S    
O23   C59   S    
O1    C3    A    
O2    C4    A    
C2    O7    A    
C26   C50   A    
C39   C47   A    
O5    C3    A    
C64   H43   S    
C21   H3    S    
C22   H4    S    
C60   H31   S    
C29   C51   A    
C10   O26   S    
O22   C58   S    
C25   H13   S    
C32   C34   A    
C40   C48   A    
C26   H14   S    
O16   C56   A    
C30   C52   A    
O24   C60   S    
C57   H23   S    
C34   C36   A    
C53   O18   A    
C43   C45   A    
C36   C38   A    
C28   C48   A    
C8    C12   A    
C63   H39   S    
C39   C41   A    
C45   O23   S    
C25   C41   A    
C58   H24   S    
C31   H19   S    
C20   H2    S    
C29   H17   S    
O17   V3    S    
O5    V1    S    
O6    V2    S    
H11   C43   S    
C9    O25   S    
C58   H25   S    
C27   C49   A    
C5    C21   A    
C7    C13   A    
C59   H28   S    
C59   H27   S    
O19   V3    S    
O13   V3    S    
C64   H44   S    
C3    C8    S    
C33   C35   A    
C36   C40   A    
C33   O21   S    
C63   H41   S    
C1    C28   S    
C14   O28   S    
O4    C2    A    
C60   H32   S    
C15   C23   A    
C9    C17   A    
C19   H1    S    
C41   C43   A    
O4    V2    S    
C7    C11   A    
C62   H37   S    
C26   C42   A    
O2    V1    S    
C32   H20   S    
O18   V4    S    
C52   C55   S    
O6    C4    A    
C35   C37   A    
C47   H15   S    
O1    V2    S    
C57   H22   S    
O12   V3    S    
C6    C22   A    
O25   C61   S    
O14   V4    S    
O12   C56   A    
C28   C50   A    
C63   H40   S    
C37   C45   A    
O20   V4    S    
C9    C11   A    
C5    C19   A    
C58   H26   S    
C10   C12   A    
C6    C20   A    
C2    C27   S    
C61   H34   S    
C62   H36   S    
C13   O27   S    
O19   V4    S    
O3    V1    S    
O16   V4    S    
C54   O17   A    
C37   C51   A    
C10   C18   A    
C6    C53   S    
C38   C52   A    
C27   C47   A    
C5    C54   S    
O14   C54   A    
O28   C64   S    
O3    C1    A    
C44   C46   A    
C30   H18   S    
C34   O22   S    
C13   C15   A    
C64   H42   S    
C46   O24   S    
C51   C56   S    
C14   C16   A    
C25   C49   A    
C61   H35   S    
C29   C31   A    
O7    V1    S    
C62   H38   S    
H9    C49   S    
C1    O8    A    
C17   C19   A    
O11   V4    S    
O8    V2    S    
C60   H30   S    
C18   C20   A    
O11   C55   A    
C8    C14   A    
O26   C62   S    
C12   H8    S    
C4    C7    S    
C16   C18   A    
C21   C23   A    
C30   C32   A    
C22   C24   A    
C38   C46   A    
H12   C44   S    
C57   H21   S    
C23   H5    S    
C31   C33   A    
O15   C55   A    
C35   C39   A    
C16   C24   A    
C42   C44   A    
O20   V3    S    
O9    V2    S    
O13   C53   A    
O10   V1    S    
C48   H16   S    
O15   V3    S    
C61   H33   S    
C11   H7    S    
C59   H29   S    
O27   C63   S    
