data_mof_unit_62597.cif
_audit_creation_date              2012-12-10T21:01:54-0500
_audit_creation_method            fapswitch 2.2
_symmetry_space_group_name_H-M    P1
_symmetry_Int_Tables_number       1
_space_group_crystal_system       triclinic
_cell_length_a                    22.206196
_cell_length_b                    22.230092
_cell_length_c                    22.198179
_cell_angle_alpha                 108.447568
_cell_angle_beta                  109.960936
_cell_angle_gamma                 110.023839
_cell_volume                      8432.02770275

loop_
_atom_site_label
_atom_site_type_symbol
_atom_type_description
_atom_site_fract_x
_atom_site_fract_y
_atom_site_fract_z
_atom_type_partial_charge
C1    C     C_R   0.699607 0.849925 0.349941 0.822989
C2    C     C_R   0.300393 0.150075 0.650059 0.822988
C3    C     C_3   0.556184 0.510851 0.485824 -0.210839
C4    C     C_3   0.443816 0.489149 0.514176 -0.210839
C5    C     C_3   0.499893 0.536474 0.463201 0.139550
C6    C     C_3   0.500107 0.463526 0.536799 0.139549
C7    C     C_1   0.499846 0.577053 0.422693 -0.058724
C8    C     C_1   0.500154 0.422947 0.577307 -0.058724
C9    C     C_3   0.975308 0.444514 0.013736 -0.154983
C10   C     C_3   0.024692 0.555486 0.986264 -0.154983
C11   C     C_3   0.024787 0.454611 0.978464 -0.170282
C12   C     C_3   0.975213 0.545389 0.021536 -0.170282
C13   C     C_1   0.220922 0.610493 0.110423 -0.151274
C14   C     C_1   0.779078 0.389507 0.889577 -0.151274
C15   C     C_3   0.024753 0.527069 0.072379 -0.165792
C16   C     C_3   0.975247 0.472931 0.927621 -0.165791
C17   C     C_3   0.072943 0.536517 0.036464 0.205177
C18   C     C_3   0.927057 0.463483 0.963536 0.205177
C19   C     C_1   0.154120 0.577115 0.077035 -0.106258
C20   C     C_1   0.845880 0.422885 0.922965 -0.106258
C21   C     C_R   0.263982 0.472321 0.008856 -0.124108
C22   C     C_R   0.736016 0.527678 0.991139 -0.124111
C23   C     C_R   0.300381 0.650184 0.150161 0.824887
C24   C     C_R   0.699619 0.349816 0.849839 0.824886
C25   C     C_R   0.332704 0.478999 0.021498 -0.129720
C26   C     C_R   0.667294 0.520998 0.978497 -0.129719
C27   C     C_R   0.357974 0.487755 0.973052 0.136881
C28   C     C_R   0.642027 0.512247 0.026947 0.136881
C29   C     C_R   0.312680 0.488160 0.911062 -0.140035
C30   C     C_R   0.687326 0.511850 0.088941 -0.140051
C31   C     C_R   0.243945 0.481393 0.898609 -0.132948
C32   C     C_R   0.756062 0.518620 0.101393 -0.132952
C33   C     C_R   0.219727 0.473729 0.947584 -0.094187
C34   C     C_R   0.780276 0.526278 0.052415 -0.094136
C35   C     C_R   0.434632 0.445697 0.933552 -0.247616
C36   C     C_R   0.565369 0.554303 0.066448 -0.247615
C37   C     C_R   0.501981 0.448348 0.946227 -0.047534
C38   C     C_R   0.498019 0.551652 0.053773 -0.047533
C39   C     C_R   0.568455 0.503713 0.012958 -0.000072
C40   C     C_R   0.431545 0.496287 0.987042 -0.000078
C41   C     C_3   0.024391 0.989091 0.556642 0.063215
C42   C     C_3   0.975609 0.010909 0.443358 0.063215
C43   C     C_3   0.975214 0.024070 0.544959 -0.214085
C44   C     C_3   0.024785 0.975930 0.455041 -0.214084
C45   C     C_R   0.499388 0.890197 0.389755 0.806043
C46   C     C_R   0.500612 0.109803 0.610245 0.806043
C47   C     C_1   0.778929 0.889597 0.389673 -0.136624
C48   C     C_1   0.221071 0.110403 0.610326 -0.136624
C49   C     C_3   0.975040 0.927584 0.475548 -0.211801
C50   C     C_3   0.024960 0.072416 0.524452 -0.211800
C51   C     C_3   0.926717 0.963368 0.463564 0.139719
C52   C     C_3   0.073283 0.036632 0.536436 0.139719
C53   C     C_1   0.845644 0.922909 0.423066 -0.058800
C54   C     C_1   0.154355 0.077091 0.576934 -0.058799
C55   C     C_3   0.489793 0.055477 0.030842 -0.159770
C56   C     C_3   0.510207 0.944523 0.969158 -0.159770
C57   C     C_3   0.434604 0.972929 0.997666 -0.159552
C58   C     C_3   0.565396 0.027071 0.002334 -0.159552
C59   C     C_1   0.499944 0.889549 0.110430 -0.134988
C60   C     C_1   0.500056 0.110451 0.889570 -0.134987
C61   C     C_3   0.555145 0.045432 0.070254 -0.157564
C62   C     C_3   0.444855 0.954568 0.929746 -0.157564
C63   C     C_3   0.499957 0.963523 0.036439 0.194554
C64   C     C_3   0.500043 0.036477 0.963560 0.194554
C65   C     C_1   0.499929 0.922931 0.077016 -0.074858
C66   C     C_1   0.500071 0.077069 0.922983 -0.074857
C67   C     C_R   0.499389 0.609113 0.109845 0.791041
C68   C     C_R   0.500611 0.390887 0.890154 0.791039
C69   C     C_R   0.258175 0.788476 0.259438 -0.159808
C70   C     C_R   0.741825 0.211525 0.740563 -0.159807
C71   C     C_R   0.326033 0.853247 0.313127 0.041960
C72   C     C_R   0.673966 0.146754 0.686874 0.041962
C73   C     C_R   0.358631 0.868303 0.387033 0.084832
C74   C     C_R   0.641370 0.131697 0.612967 0.084832
C75   C     C_R   0.321443 0.818565 0.405680 -0.140051
C76   C     C_R   0.678558 0.181434 0.594320 -0.140053
C77   C     C_R   0.253783 0.754248 0.351690 -0.130974
C78   C     C_R   0.746219 0.245751 0.648310 -0.130975
C79   C     C_R   0.222361 0.739085 0.278665 -0.110972
C80   C     C_R   0.777639 0.260914 0.721335 -0.110973
C81   C     C_R   0.434689 0.988540 0.501445 -0.241718
C82   C     C_R   0.565311 0.011460 0.498556 -0.241719
C83   C     C_R   0.501792 0.053817 0.555326 -0.037246
C84   C     C_R   0.498208 0.946183 0.444674 -0.037246
C85   C     C_R   0.568121 0.065264 0.554658 0.009062
C86   C     C_R   0.431880 0.934736 0.445342 0.009061
C87   C     C_R   0.500011 0.849873 0.150220 0.830140
C88   C     C_R   0.499989 0.150127 0.849780 0.830141
C89   C     C_R   0.499989 0.650247 0.349842 0.821095
C90   C     C_R   0.500011 0.349753 0.650158 0.821095
C91   C     C_3   0.491095 0.435763 0.459998 0.062448
C92   C     C_3   0.508905 0.564237 0.540002 0.062448
C93   C     C_3   0.434658 0.460955 0.436098 -0.214535
C94   C     C_3   0.565341 0.539045 0.563902 -0.214535
C95   C     C_1   0.499874 0.610492 0.389420 -0.136296
C96   C     C_1   0.500126 0.389508 0.610580 -0.136296
H1    H     H_    0.381378 0.428952 0.383138 0.146225
H2    H     H_    0.618622 0.571048 0.616862 0.146225
H3    H     H_    0.331013 0.494642 0.872977 0.130117
H4    H     H_    0.668996 0.505373 0.127029 0.130121
H5    H     H_    0.209538 0.482315 0.851081 0.128831
H6    H     H_    0.790472 0.517704 0.148925 0.128831
H7    H     H_    0.383668 0.402212 0.882732 0.159239
H8    H     H_    0.616332 0.597789 0.117268 0.159238
H9    H     H_    0.954287 0.043018 0.581665 0.146766
H10   H     H_    0.045713 0.956982 0.418335 0.146766
H11   H     H_    0.046031 0.131983 0.544226 0.147309
H12   H     H_    0.953969 0.868017 0.455774 0.147309
H13   H     H_    0.380839 0.950190 0.996223 0.139516
H14   H     H_    0.619161 0.049810 0.003777 0.139516
H15   H     H_    0.481408 0.101570 0.055722 0.139820
H16   H     H_    0.518592 0.898430 0.944278 0.139820
H17   H     H_    0.399520 0.917696 0.871507 0.140670
H18   H     H_    0.600480 0.082304 0.128493 0.140670
H19   H     H_    0.170093 0.689077 0.236903 0.127334
H20   H     H_    0.829908 0.310922 0.763097 0.127334
H21   H     H_    0.232916 0.776110 0.202587 0.127929
H22   H     H_    0.767084 0.223892 0.797414 0.127928
H23   H     H_    0.345466 0.829174 0.461964 0.140297
H24   H     H_    0.654537 0.170825 0.538036 0.140297
H25   H     H_    0.225819 0.715948 0.366454 0.131535
H26   H     H_    0.774184 0.284050 0.633546 0.131535
H27   H     H_    0.383772 0.980437 0.501715 0.159581
H28   H     H_    0.616228 0.019563 0.498285 0.159581
H29   H     H_    0.398192 0.480540 0.526670 0.147986
H30   H     H_    0.601808 0.519460 0.473330 0.147986
H31   H     H_    0.046184 0.417828 0.961264 0.126152
H32   H     H_    0.953816 0.582172 0.038736 0.126150
H33   H     H_    0.954009 0.398402 0.024517 0.132197
H34   H     H_    0.045991 0.601598 0.975483 0.132197
H35   H     H_    0.953907 0.450162 0.867630 0.125412
H36   H     H_    0.046093 0.549838 0.132369 0.125412
H37   H     H_    0.166667 0.468800 0.938025 0.121660
H38   H     H_    0.833346 0.531210 0.061974 0.121631
H39   H     H_    0.245101 0.466228 0.046660 0.117641
H40   H     H_    0.754894 0.533767 0.953332 0.117639
H41   H     H_    0.366370 0.477689 0.069148 0.101938
H42   H     H_    0.633624 0.522303 0.930845 0.101936
O1    O     O_3   0.500050 0.750060 0.250070 -0.485479
O2    O     O_3   0.499950 0.249940 0.749930 -0.485479
O3    O     O_R   0.456830 0.822700 0.365800 -0.634116
O4    O     O_R   0.543170 0.177300 0.634200 -0.634116
O5    O     O_R   0.543260 0.634320 0.177440 -0.646684
O6    O     O_R   0.456740 0.365680 0.822560 -0.646684
O7    O     O_R   0.664430 0.884240 0.341140 -0.636852
O8    O     O_R   0.335570 0.115760 0.658860 -0.636852
O9    O     O_R   0.335680 0.659000 0.115900 -0.629150
O10   O     O_R   0.664320 0.341000 0.884100 -0.629151
O11   O     O_R   0.664480 0.780430 0.323540 -0.637897
O12   O     O_R   0.335520 0.219570 0.676460 -0.637897
O13   O     O_R   0.335610 0.676590 0.219700 -0.631821
O14   O     O_R   0.664390 0.323410 0.780300 -0.631821
O15   O     O_R   0.543050 0.908950 0.365840 -0.640008
O16   O     O_R   0.456950 0.091050 0.634160 -0.640008
O17   O     O_R   0.457060 0.634290 0.091200 -0.629404
O18   O     O_R   0.542940 0.365710 0.908800 -0.629404
O19   O     O_R   0.543140 0.884190 0.219790 -0.630814
O20   O     O_R   0.456860 0.115810 0.780210 -0.630814
O21   O     O_R   0.543170 0.659080 0.323490 -0.637794
O22   O     O_R   0.456830 0.340920 0.676510 -0.637794
O23   O     O_R   0.456990 0.780350 0.115960 -0.637738
O24   O     O_R   0.543010 0.219650 0.884040 -0.637738
O25   O     O_R   0.456900 0.676640 0.341050 -0.635079
O26   O     O_R   0.543100 0.323360 0.658950 -0.635079
Zn1   Zn    Zn3+2 0.438420 0.731820 0.293400 0.984750
Zn2   Zn    Zn3+2 0.561580 0.268180 0.706600 0.984750
Zn3   Zn    Zn3+2 0.561600 0.855040 0.293450 0.984324
Zn4   Zn    Zn3+2 0.438400 0.144960 0.706550 0.984324
Zn5   Zn    Zn3+2 0.438510 0.706680 0.145100 0.984443
Zn6   Zn    Zn3+2 0.561490 0.293320 0.854900 0.984443
Zn7   Zn    Zn3+2 0.561670 0.706730 0.268320 0.969063
Zn8   Zn    Zn3+2 0.438330 0.293270 0.731680 0.969062
C97   C     C_1   0.051871 0.977272 0.619540 0.146734
N1    N     N_1   0.073581 0.967969 0.669167 -0.204157
C98   C     C_1   0.948129 0.022728 0.380460 0.146734
N2    N     N_1   0.926419 0.032031 0.330833 -0.204157
C99   C     C_1   0.481250 0.364468 0.415986 0.147453
N3    N     N_1   0.473485 0.308217 0.381293 -0.200182
C100  C     C_1   0.518750 0.635532 0.584013 0.147453
N4    N     N_1   0.526515 0.691783 0.618707 -0.200182
C101  C     C_1   0.360838 0.903589 0.291442 0.099391
N5    N     N_1   0.388813 0.943927 0.274081 -0.196708
C102  C     C_1   0.639161 0.096413 0.708560 0.099389
N6    N     N_1   0.611185 0.056076 0.725921 -0.196708

loop_
_geom_bond_atom_site_label_1
_geom_bond_atom_site_label_2
_ccdc_geom_bond_type
C44   C49   S    
C2    O12   A    
C38   C40   A    
C63   C65   S    
O2    Zn4   S    
C79   H19   S    
C27   C29   A    
C73   C75   A    
C71   C101  S    
C1    O7    A    
C8    C96   T    
C67   O5    A    
O19   Zn3   S    
C60   C88   S    
C3    H30   S    
O20   Zn4   S    
C57   C62   S    
C46   O4    A    
C97   N1    T    
C48   C54   T    
O26   Zn2   S    
C76   H24   S    
O21   Zn7   S    
C4    H29   S    
C81   H27   S    
C90   O26   A    
C31   H5    S    
C3    C91   S    
O14   Zn2   S    
O25   Zn1   S    
C76   C78   A    
C35   H7    S    
C42   C98   S    
C78   C80   A    
C46   C83   S    
C21   C33   A    
C34   H38   S    
C10   C17   S    
C6    C91   S    
C37   C68   S    
C30   H4    S    
C13   C23   S    
C67   O17   A    
C43   H9    S    
C55   C61   S    
C14   C24   S    
O1    Zn1   S    
C16   H35   S    
C62   C64   S    
C24   O14   A    
C41   C49   S    
C57   H13   S    
C15   H36   S    
C80   H20   S    
C6    C94   S    
O10   Zn6   S    
C31   C33   A    
C44   H10   S    
O1    Zn7   S    
C88   O20   A    
C41   C52   S    
C81   C86   A    
C26   H42   S    
C42   C51   S    
C47   C53   T    
O23   Zn5   S    
C44   C52   S    
C58   C61   S    
C60   C66   T    
O2    Zn8   S    
O11   Zn7   S    
O15   Zn3   S    
C45   O3    A    
C41   C43   S    
O16   Zn4   S    
C56   H16   S    
O1    Zn5   S    
C42   C44   S    
C46   O16   A    
C82   H28   S    
C81   C83   A    
C52   C54   S    
C89   O21   A    
C49   H12   S    
C77   C79   A    
C58   C64   S    
C22   C34   A    
O12   Zn8   S    
C69   C71   A    
C29   H3    S    
C70   C80   A    
C14   C20   T    
C75   H23   S    
C72   C102  S    
C62   H17   S    
C4    C6    S    
C21   C25   A    
C24   O10   A    
C5    C7    S    
C13   C19   T    
C1    C47   S    
C6    C8    S    
C28   C39   S    
C49   C51   S    
C101  N5    T    
C23   O9    A    
C70   C72   A    
C87   O19   A    
C22   H40   S    
C51   C53   S    
C64   C66   S    
C89   C95   S    
C25   H41   S    
C102  N6    T    
C10   H34   S    
C92   C100  S    
C91   C93   S    
C9    C11   S    
C11   C16   S    
O17   Zn5   S    
C50   C52   S    
C98   N2    T    
O24   Zn6   S    
C12   C15   S    
C27   C40   S    
C55   C64   S    
C3    C5    S    
C61   C63   S    
O22   Zn8   S    
C56   C63   S    
C16   C18   S    
O1    Zn3   S    
C75   C77   A    
C10   C12   S    
O18   Zn6   S    
C42   C50   S    
C11   H31   S    
C72   C74   A    
C83   C85   A    
O2    Zn2   S    
C82   C84   A    
C55   C57   S    
C50   H11   S    
C56   C62   S    
C69   C79   A    
C45   C84   S    
C45   O15   A    
C41   C97   S    
C74   C76   A    
C93   H1    S    
O4    Zn2   S    
C71   C73   A    
C55   H15   S    
O7    Zn3   S    
C15   C17   S    
O8    Zn4   S    
C11   C17   S    
O2    Zn6   S    
C35   C37   A    
C58   H14   S    
O3    Zn1   S    
C36   C39   A    
C57   C63   S    
C84   C86   A    
C1    O11   A    
C68   O18   A    
C5    C93   S    
C43   C50   S    
C90   C96   S    
C12   H32   S    
C32   H6    S    
C9    H33   S    
C100  N4    T    
C2    O8    A    
C82   C85   A    
C7    C95   T    
O6    Zn8   S    
C26   C28   A    
C36   H8    S    
C2    C48   S    
C36   C38   A    
C35   C40   A    
C9    C15   S    
O5    Zn7   S    
C28   C30   A    
C87   O23   A    
O13   Zn1   S    
C59   C65   T    
C30   C32   A    
C43   C51   S    
C92   C94   S    
C70   H22   S    
C88   O24   A    
C91   C99   S    
C69   H21   S    
C17   C19   S    
C56   C58   S    
C68   O6    A    
C3    C94   S    
C18   C20   S    
C74   C85   S    
C90   O22   A    
C78   H26   S    
C59   C87   S    
C73   C86   S    
C5    C92   S    
C77   H25   S    
C23   O13   A    
C4    C93   S    
C33   H37   S    
C9    C18   S    
C37   C39   A    
C38   C67   S    
C29   C31   A    
C99   N3    T    
C22   C26   A    
C12   C18   S    
C61   H18   S    
C89   O25   A    
C94   H2    S    
C10   C16   S    
C21   H39   S    
O9    Zn5   S    
C32   C34   A    
C4    C92   S    
C25   C27   A    
