data_mof_unit_54654.cif
_audit_creation_date              2012-12-11T14:43:36-0500
_audit_creation_method            fapswitch 2.2
_symmetry_space_group_name_H-M    P1
_symmetry_Int_Tables_number       1
_space_group_crystal_system       triclinic
_cell_length_a                    20.827301
_cell_length_b                    7.103563
_cell_length_c                    16.406951
_cell_angle_alpha                 89.999457
_cell_angle_beta                  92.509064
_cell_angle_gamma                 89.999908
_cell_volume                      2425.04921632

loop_
_atom_site_label
_atom_site_type_symbol
_atom_type_description
_atom_site_fract_x
_atom_site_fract_y
_atom_site_fract_z
_atom_type_partial_charge
O1    O     O_R   0.564840 0.505290 0.579830 -0.537430
O2    O     O_R   0.435160 0.005290 0.420170 -0.537429
O3    O     O_R   0.556720 0.179930 0.409350 -0.537486
O4    O     O_R   0.443280 0.679930 0.590650 -0.537486
C1    C     C_R   0.570303 0.344809 0.380991 0.698914
C2    C     C_R   0.429697 0.844808 0.619009 0.698914
O5    O     O_R   0.572280 0.175810 0.578530 -0.542849
O6    O     O_R   0.427720 0.675810 0.421470 -0.542847
O7    O     O_R   0.450830 0.001920 0.590540 -0.536163
O8    O     O_R   0.549170 0.501920 0.409460 -0.536163
C3    C     C_R   0.590091 0.342721 0.604995 0.692489
C4    C     C_R   0.409909 0.842723 0.395005 0.692488
O9    O     O_3   0.460130 0.338030 0.503750 -0.372114
O10   O     O_3   0.539870 0.838030 0.496250 -0.372115
V1    V     V_3+5 0.507400 0.064560 0.499310 1.411355
V2    V     V_3+5 0.492600 0.564560 0.500690 1.411358
C5    C     C_R   0.144628 0.926955 0.166847 -0.065097
C6    C     C_R   0.855371 0.426962 0.833155 -0.065101
C7    C     C_R   0.355453 0.838959 0.332904 -0.065576
C8    C     C_R   0.644549 0.338952 0.667094 -0.065578
C9    C     C_R   0.290817 0.655738 0.232984 -0.202536
C10   C     C_R   0.709194 0.155712 0.766999 -0.202546
C11   C     C_R   0.345108 0.675041 0.285418 -0.161318
C12   C     C_R   0.654902 0.175017 0.714568 -0.161319
C13   C     C_R   0.310497 0.986058 0.325140 -0.245756
C14   C     C_R   0.689498 0.486066 0.674868 -0.245758
C15   C     C_R   0.255207 0.966595 0.272785 0.159291
C16   C     C_R   0.744789 0.466603 0.727221 0.159296
C17   C     C_R   0.245061 0.799676 0.226592 0.158938
C18   C     C_R   0.754944 0.299667 0.773402 0.158942
C19   C     C_R   0.189721 0.780142 0.174318 -0.246668
C20   C     C_R   0.810285 0.280133 0.825673 -0.246668
C21   C     C_R   0.155027 0.090928 0.214273 -0.159058
C22   C     C_R   0.844963 0.590952 0.785740 -0.159059
C23   C     C_R   0.209435 0.110480 0.266460 -0.202258
C24   C     C_R   0.790554 0.610505 0.733556 -0.202270
H1    H     H_    0.182894 0.654015 0.137753 0.125041
H2    H     H_    0.817119 0.153990 0.862228 0.125044
H3    H     H_    0.121144 0.206626 0.210324 0.127431
H4    H     H_    0.878840 0.706664 0.789697 0.127437
H5    H     H_    0.284339 0.527063 0.198086 0.122161
H6    H     H_    0.715679 0.027024 0.801887 0.122160
H7    H     H_    0.215930 0.239176 0.301339 0.121302
H8    H     H_    0.784052 0.739215 0.698687 0.121301
H9    H     H_    0.378922 0.559192 0.289536 0.127694
H10   H     H_    0.621093 0.059155 0.710444 0.127700
H11   H     H_    0.317328 0.112257 0.361656 0.123551
H12   H     H_    0.682660 0.612280 0.638362 0.123554
C25   C     C_R   0.380685 0.856901 0.836856 -0.158989
C26   C     C_R   0.619314 0.356961 0.163144 -0.158988
H13   H     H_    0.469939 0.839256 0.776971 0.103080
H14   H     H_    0.530059 0.339316 0.223030 0.103078
H15   H     H_    0.300835 0.873074 0.958003 0.126737
H16   H     H_    0.699163 0.373161 0.041997 0.126739
H17   H     H_    0.404420 0.852973 0.896957 0.112694
H18   H     H_    0.595578 0.353061 0.103043 0.112694
C27   C     C_R   0.389211 0.853656 0.690343 -0.037279
C28   C     C_R   0.610789 0.353663 0.309657 -0.037280
C29   C     C_R   0.077906 0.914374 0.732222 -0.164066
C30   C     C_R   0.922095 0.414332 0.267777 -0.164067
C31   C     C_R   0.112369 0.906966 0.661662 -0.119299
C32   C     C_R   0.887632 0.406909 0.338338 -0.119299
C33   C     C_R   0.179197 0.894076 0.666177 -0.157374
C34   C     C_R   0.820803 0.394035 0.333822 -0.157373
C35   C     C_R   0.213733 0.888093 0.742370 0.076929
C36   C     C_R   0.786266 0.388086 0.257630 0.076929
C37   C     C_R   0.177875 0.895749 0.814851 0.068591
C38   C     C_R   0.822124 0.395760 0.185149 0.068590
C39   C     C_R   0.282512 0.874831 0.749012 0.074283
C40   C     C_R   0.717488 0.374838 0.250988 0.074284
C41   C     C_R   0.313462 0.869639 0.827968 0.138740
C42   C     C_R   0.686537 0.369681 0.172032 0.138739
C43   C     C_R   0.277326 0.877145 0.897752 -0.201297
C44   C     C_R   0.722673 0.377206 0.102248 -0.201295
C45   C     C_R   0.210726 0.889961 0.891454 -0.191565
C46   C     C_R   0.789273 0.390005 0.108546 -0.191565
C47   C     C_R   0.321970 0.866461 0.680386 -0.215354
C48   C     C_R   0.678030 0.366449 0.319614 -0.215354
C49   C     C_R   0.418148 0.849056 0.768659 -0.170003
C50   C     C_R   0.581851 0.349100 0.231342 -0.170003
C51   C     C_R   0.109670 0.909048 0.808984 -0.078458
C52   C     C_R   0.890329 0.409042 0.191016 -0.078458
H19   H     H_    0.302230 0.869517 0.618590 0.092701
H20   H     H_    0.697771 0.369479 0.381409 0.092702
H21   H     H_    0.025961 0.924372 0.726950 0.101372
H22   H     H_    0.974040 0.424315 0.273049 0.101370
H23   H     H_    0.087001 0.911289 0.602664 0.118468
H24   H     H_    0.913001 0.411206 0.397336 0.118468
H25   H     H_    0.185088 0.895326 0.947424 0.110653
H26   H     H_    0.814911 0.395385 0.052576 0.110654
O11   O     O_R   0.950790 0.256670 0.090520 -0.533745
O12   O     O_R   0.049210 0.756670 0.909480 -0.533746
O13   O     O_R   0.927720 0.590370 0.921470 -0.542335
O14   O     O_R   0.072280 0.090370 0.078530 -0.542331
C53   C     C_R   0.910022 0.423040 0.894951 0.687778
C54   C     C_R   0.089978 0.923038 0.105049 0.687778
O15   O     O_R   0.943270 0.586180 0.090640 -0.535884
O16   O     O_R   0.056730 0.086180 0.909360 -0.535884
O17   O     O_R   0.064850 0.759970 0.079840 -0.537397
O18   O     O_R   0.935150 0.259970 0.920160 -0.537397
C55   C     C_R   0.930225 0.417671 0.118822 0.681709
C56   C     C_R   0.069775 0.917673 0.881178 0.681708
O19   O     O_3   0.039850 0.428050 0.996240 -0.370436
O20   O     O_3   0.960150 0.928050 0.003760 -0.370437
V3    V     V_3+5 0.992610 0.701540 0.000700 1.417626
V4    V     V_3+5 0.007390 0.201540 0.999300 1.417630
H27   H     H_    0.202309 0.889076 0.608790 0.108262
H28   H     H_    0.797692 0.389020 0.391210 0.108263

loop_
_geom_bond_atom_site_label_1
_geom_bond_atom_site_label_2
_ccdc_geom_bond_type
C36   C38   A    
C33   C35   A    
C11   H9    S    
C40   C48   A    
C27   C49   A    
C39   C47   A    
O1    C3    A    
O2    C4    A    
C2    O7    A    
O20   V4    S    
C10   H6    S    
O5    C3    A    
C21   H3    S    
C44   C46   A    
C1    C28   S    
C22   H4    S    
C2    C27   S    
C47   H19   S    
C54   O17   A    
C15   C17   A    
C30   C32   A    
C39   C41   A    
C26   C42   A    
C32   C34   A    
C31   H23   S    
O13   V3    S    
H16   C44   S    
C30   C52   A    
C8    C12   A    
C8    C14   A    
C35   C37   A    
C20   H2    S    
C23   H7    S    
C13   H11   S    
C14   H12   S    
O15   V3    S    
O5    V1    S    
O13   C53   A    
C6    C53   S    
C43   C45   A    
O11   V4    S    
C5    C21   A    
O11   C55   A    
O20   V3    S    
C34   H28   S    
C51   C56   S    
O17   V3    S    
C3    C8    S    
C29   C31   A    
C27   C47   A    
C42   C44   A    
C5    C54   S    
C30   H22   S    
C53   O18   A    
C15   C23   A    
O16   C56   A    
C9    C17   A    
C26   H18   S    
C25   C49   A    
C34   C36   A    
O4    V2    S    
C7    C11   A    
C29   H21   S    
C48   H20   S    
O6    C4    A    
C31   C33   A    
O19   V3    S    
O1    V2    S    
C38   C46   A    
O14   C54   A    
O2    V1    S    
C6    C22   A    
C9    H5    S    
O4    C2    A    
C37   C51   A    
C9    C11   A    
C5    C19   A    
C10   C12   A    
C24   H8    S    
C6    C20   A    
C33   H27   S    
O3    V1    S    
C41   C43   A    
O14   V4    S    
C10   C18   A    
C14   C16   A    
H15   C43   S    
C29   C51   A    
O3    C1    A    
C26   C50   A    
C40   C42   A    
O12   C56   A    
C13   C15   A    
O18   V4    S    
O16   V4    S    
C38   C52   A    
C28   C50   A    
C16   C18   A    
O7    V1    S    
C12   H10   S    
C1    O8    A    
C17   C19   A    
C25   H17   S    
C18   C20   A    
C36   C40   A    
C32   H24   S    
C35   C39   A    
C4    C7    S    
C21   C23   A    
C52   C55   S    
O19   V4    S    
C22   C24   A    
C45   H25   S    
C7    C13   A    
H13   C49   S    
C28   C48   A    
C19   H1    S    
O12   V3    S    
C37   C45   A    
C16   C24   A    
O6    V2    S    
C25   C41   A    
O9    V2    S    
O10   V1    S    
O8    V2    S    
H14   C50   S    
O15   C55   A    
C46   H26   S    
