data_mof_unit_47872.cif
_audit_creation_date              2012-12-10T17:19:56-0500
_audit_creation_method            fapswitch 2.2
_symmetry_space_group_name_H-M    P1
_symmetry_Int_Tables_number       1
_space_group_crystal_system       triclinic
_cell_length_a                    9.610062
_cell_length_b                    10.775577
_cell_length_c                    15.38041
_cell_angle_alpha                 87.079428
_cell_angle_beta                  74.097264
_cell_angle_gamma                 89.791643
_cell_volume                      1529.66893656

loop_
_atom_site_label
_atom_site_type_symbol
_atom_type_description
_atom_site_fract_x
_atom_site_fract_y
_atom_site_fract_z
_atom_type_partial_charge
C1    C     C_R   0.999054 0.262544 0.502533 0.788297
C2    C     C_R   0.682327 0.537557 0.911003 0.107045
C3    C     C_R   0.779507 0.503442 0.962285 0.109469
C4    C     C_R   0.537631 0.569100 0.956440 0.023119
C5    C     C_R   0.486119 0.544603 0.051341 0.060486
C6    C     C_R   0.587288 0.513469 0.100438 -0.207227
C7    C     C_R   0.731978 0.495830 0.056461 -0.214324
C8    C     C_R   0.444782 0.628279 0.910750 -0.219263
C9    C     C_R   0.300759 0.652038 0.954900 0.118850
C10   C     C_R   0.242638 0.609825 0.046014 0.095873
C11   C     C_R   0.335800 0.555029 0.094346 0.058409
C12   C     C_R   0.918323 0.500368 0.672666 0.798256
C13   C     C_R   0.094112 0.621789 0.090257 -0.220680
C14   C     C_R   0.038561 0.581515 0.180865 -0.212980
C15   C     C_R   0.275509 0.510343 0.184215 -0.231534
C16   C     C_R   0.048983 0.116239 0.656497 -0.195913
C17   C     C_R   0.072910 0.044774 0.729232 -0.151082
C18   C     C_R   0.073833 0.915857 0.728319 -0.117291
C19   C     C_R   0.050127 0.857254 0.654964 -0.161986
C20   C     C_R   0.025784 0.927553 0.580445 0.094908
C21   C     C_R   0.025666 0.058755 0.581043 0.099630
C22   C     C_R   0.996782 0.128225 0.507492 -0.097013
C23   C     C_R   0.999271 0.737135 0.501044 0.759099
C24   C     C_R   0.962118 0.069045 0.437397 -0.191027
C25   C     C_R   0.961726 0.940874 0.437024 -0.207035
C26   C     C_R   0.996313 0.870369 0.506660 -0.081191
C27   C     C_R   0.697309 0.664014 0.378627 -0.153185
C28   C     C_R   0.651702 0.744222 0.318729 -0.221410
C29   C     C_R   0.508158 0.745413 0.319006 -0.199920
C30   C     C_R   0.409331 0.666327 0.379111 -0.139404
C31   C     C_R   0.451192 0.581640 0.440692 0.204130
C32   C     C_R   0.600780 0.581038 0.440511 0.211395
C33   C     C_R   0.549429 0.422266 0.556303 -0.063471
C34   C     C_R   0.082145 0.504282 0.327527 0.770162
C35   C     C_R   0.401837 0.421932 0.555911 -0.028048
C36   C     C_R   0.874834 0.503797 0.772502 -0.141601
C37   C     C_R   0.129823 0.527472 0.228687 -0.048074
C38   C     C_R   0.923684 0.477112 0.919113 -0.332308
C39   C     C_R   0.972858 0.476358 0.824410 0.445435
C40   C     C_R   0.731418 0.533906 0.816221 -0.330404
Cu1   Cu    Cu3+1 0.140660 0.499990 0.500010 0.946073
Cu2   Cu    Cu3+1 0.859340 0.500010 0.499990 0.932148
H1    H     H_    0.806235 0.472378 0.096469 0.150334
H2    H     H_    0.020050 0.663691 0.055849 0.142095
H3    H     H_    0.937700 0.122597 0.381895 0.146873
H4    H     H_    0.045804 0.216111 0.660796 0.128775
H5    H     H_    0.089056 0.088952 0.787256 0.122217
H6    H     H_    0.091058 0.860937 0.785248 0.154336
H7    H     H_    0.048233 0.756852 0.658316 0.155029
H8    H     H_    0.937092 0.896378 0.381259 0.133086
H9    H     H_    0.584338 0.358398 0.602512 0.140979
H10   H     H_    0.809445 0.670779 0.373307 0.191138
H11   H     H_    0.728575 0.806164 0.271899 0.147343
H12   H     H_    0.340196 0.460763 0.221466 0.151269
H13   H     H_    0.472707 0.808370 0.272386 0.154756
H14   H     H_    0.301941 0.675955 0.373910 0.197265
H15   H     H_    0.327123 0.357208 0.601000 0.137344
H16   H     H_    0.925350 0.596028 0.214003 0.149807
H17   H     H_    0.998633 0.456962 0.959166 0.148966
H18   H     H_    0.657816 0.550573 0.775174 0.174185
H19   H     H_    0.558851 0.506721 0.173410 0.149473
H20   H     H_    0.483296 0.661737 0.840864 0.170745
N1    N     N_R   0.648320 0.501210 0.499140 -0.198440
N2    N     N_R   0.352470 0.501290 0.499110 -0.197814
O1    O     O_R   0.118810 0.319640 0.500010 -0.578200
O2    O     O_R   0.881240 0.319660 0.500000 -0.571646
O3    O     O_R   0.055570 0.499980 0.629840 -0.535857
O4    O     O_R   0.818000 0.500010 0.629830 -0.584008
O5    O     O_R   0.118760 0.680340 0.500000 -0.597794
O6    O     O_R   0.881190 0.680360 0.499990 -0.586826
O7    O     O_R   0.182000 0.499990 0.370170 -0.598289
O8    O     O_R   0.944430 0.500020 0.370160 -0.596895
N3    N     N_3   0.216257 0.718677 0.904702 -0.595146
H21   H     H_    0.130432 0.662144 0.900978 0.236524
H22   H     H_    0.174690 0.797802 0.939021 0.209654
O9    O     O_3   0.118487 0.459781 0.781927 -0.594346
C41   C     C_3   0.168795 0.344203 0.808820 0.032618
H23   H     H_    0.206878 0.290127 0.747578 0.151421
H24   H     H_    0.085215 0.285621 0.858536 0.117996
C42   C     C_3   0.296853 0.366032 0.847270 -0.325271
H25   H     H_    0.377063 0.429127 0.799664 0.234282
H26   H     H_    0.257785 0.410323 0.912953 0.220908
C43   C     C_3   0.370955 0.244609 0.862410 -0.921480
H27   H     H_    0.293222 0.180228 0.910433 0.255612
H28   H     H_    0.462119 0.264171 0.891308 0.265208
H29   H     H_    0.414453 0.199553 0.797218 0.255360

loop_
_geom_bond_atom_site_label_1
_geom_bond_atom_site_label_2
_ccdc_geom_bond_type
C16   C21   A    
C40   H18   S    
C34   C37   S    
Cu1   Cu2   S    
C23   O5    A    
C19   C20   A    
C4    C8    A    
Cu1   O3    S    
C41   H23   S    
C12   O4    A    
C24   H3    S    
C6    H19   S    
C28   C29   A    
C5    C11   A    
C3    C7    A    
C5    C6    A    
Cu2   O6    S    
C18   C19   A    
N3    H21   S    
C23   C26   S    
C25   H8    S    
C15   C37   A    
C11   C15   A    
C43   H27   S    
C3    C38   A    
C8    C9    A    
C1    O1    A    
C35   N2    A    
C7    H1    S    
C12   C36   S    
C9    C10   A    
Cu1   O7    S    
C1    C22   S    
C21   C22   A    
Cu2   O4    S    
N3    H22   S    
C23   O6    A    
C9    N3    S    
C42   C43   S    
C1    O2    A    
C41   H24   S    
C38   C39   A    
C14   H16   S    
C12   O3    A    
C15   H12   S    
C36   C40   A    
C24   C25   A    
C42   H26   S    
C16   H4    S    
C16   C17   A    
Cu1   O1    S    
C29   H13   S    
C25   C26   A    
C30   H14   S    
C2    C4    A    
C29   C30   A    
C19   H7    S    
C31   C32   A    
C33   N1    A    
Cu2   O8    S    
C17   C18   A    
C39   O9    S    
O9    C41   S    
C43   H28   S    
C22   C24   A    
C34   O8    A    
C27   H10   S    
Cu1   O5    S    
C41   C42   S    
C27   C32   A    
C31   N2    A    
C36   C39   A    
C17   H5    S    
C32   N1    A    
C42   H25   S    
C10   C13   A    
C18   H6    S    
C28   H11   S    
C6    C7    A    
C33   H9    S    
C35   H15   S    
C2    C3    A    
C14   C37   A    
C30   C31   A    
C20   C26   A    
C34   O7    A    
C33   C35   A    
C10   C11   A    
C38   H17   S    
C2    C40   A    
C4    C5    A    
C43   H29   S    
C20   C21   A    
C27   C28   A    
Cu2   O2    S    
Cu1   N2    S    
C13   C14   A    
Cu2   N1    S    
C13   H2    S    
C8    H20   S    
