data_mof_unit_42654.cif
_audit_creation_date              2012-12-11T15:08:59-0500
_audit_creation_method            fapswitch 2.2
_symmetry_space_group_name_H-M    P1
_symmetry_Int_Tables_number       1
_space_group_crystal_system       triclinic
_cell_length_a                    21.822746
_cell_length_b                    21.823048
_cell_length_c                    23.417916
_cell_angle_alpha                 89.99931
_cell_angle_beta                  89.999893
_cell_angle_gamma                 90.000605
_cell_volume                      11152.5209962

loop_
_atom_site_label
_atom_site_type_symbol
_atom_type_description
_atom_site_fract_x
_atom_site_fract_y
_atom_site_fract_z
_atom_type_partial_charge
C1    C     C_R   0.924366 0.149280 0.095848 -0.139051
C2    C     C_R   0.076912 0.850416 0.904673 -0.151016
C3    C     C_R   0.143927 0.070494 0.102346 -0.125672
C4    C     C_R   0.855076 0.928028 0.898735 -0.162468
C5    C     C_R   0.075637 0.850720 0.095849 -0.139135
C6    C     C_R   0.923086 0.149583 0.904671 -0.151066
C7    C     C_R   0.856094 0.929523 0.102368 -0.125683
C8    C     C_R   0.144908 0.071958 0.898717 -0.162455
C9    C     C_R   0.929524 0.856096 0.897632 -0.125699
C10   C     C_R   0.071995 0.144942 0.101244 -0.162498
C11   C     C_R   0.149290 0.924355 0.904164 -0.139072
C12   C     C_R   0.850422 0.076906 0.095335 -0.151010
C13   C     C_R   0.070459 0.143886 0.897611 -0.125701
C14   C     C_R   0.928027 0.855076 0.101265 -0.162495
C15   C     C_R   0.850712 0.075640 0.904160 -0.139060
C16   C     C_R   0.149576 0.923098 0.095339 -0.150935
C17   C     C_R   0.429522 0.643905 0.602367 -0.125721
C18   C     C_R   0.572011 0.355041 0.398774 -0.162420
C19   C     C_R   0.649289 0.575643 0.595837 -0.139076
C20   C     C_R   0.350431 0.423100 0.404650 -0.151006
C21   C     C_R   0.570468 0.356102 0.602375 -0.125711
C22   C     C_R   0.428024 0.644927 0.398738 -0.162505
C23   C     C_R   0.350709 0.424355 0.595835 -0.139022
C24   C     C_R   0.649575 0.576900 0.404659 -0.150953
C25   C     C_R   0.424378 0.350730 0.404137 -0.139105
C26   C     C_R   0.576913 0.649582 0.595328 -0.151025
C27   C     C_R   0.643950 0.429487 0.397679 -0.125786
C28   C     C_R   0.355075 0.571972 0.601264 -0.162451
C29   C     C_R   0.575638 0.649279 0.404150 -0.139110
C30   C     C_R   0.423082 0.350414 0.595324 -0.151104
C31   C     C_R   0.356091 0.570479 0.397636 -0.125664
C32   C     C_R   0.644918 0.428033 0.601272 -0.162470
C33   C     C_R   0.773472 0.758174 0.822727 0.161462
C34   C     C_R   0.241888 0.226536 0.177230 0.161495
C35   C     C_R   0.741314 0.223844 0.830667 0.161150
C36   C     C_R   0.223815 0.741321 0.169359 0.161139
C37   C     C_R   0.226476 0.241822 0.822697 0.161475
C38   C     C_R   0.758185 0.773454 0.177264 0.161456
C39   C     C_R   0.258683 0.776153 0.830662 0.161159
C40   C     C_R   0.776191 0.258665 0.169386 0.161167
C41   C     C_R   0.276214 0.241325 0.330619 0.161138
C42   C     C_R   0.758690 0.723839 0.669340 0.161150
C43   C     C_R   0.258187 0.726557 0.322741 0.161457
C44   C     C_R   0.726512 0.258178 0.677281 0.161463
C45   C     C_R   0.723829 0.758672 0.330647 0.161144
C46   C     C_R   0.241308 0.276132 0.669308 0.161150
C47   C     C_R   0.741920 0.273444 0.322786 0.161468
C48   C     C_R   0.273471 0.741827 0.677272 0.161461
C49   C     C_R   0.203918 0.157466 0.319551 0.594520
C50   C     C_R   0.842541 0.796145 0.680405 0.594498
C51   C     C_R   0.181788 0.806938 0.312218 0.574172
C52   C     C_R   0.806867 0.181751 0.687801 0.574183
C53   C     C_R   0.796125 0.842532 0.319589 0.594488
C54   C     C_R   0.157461 0.203816 0.680361 0.594654
C55   C     C_R   0.818329 0.193080 0.312229 0.574141
C56   C     C_R   0.193111 0.818246 0.687800 0.574151
C57   C     C_R   0.693112 0.681752 0.812201 0.574178
C58   C     C_R   0.318314 0.306892 0.187759 0.574142
C59   C     C_R   0.657464 0.296152 0.819610 0.594502
C60   C     C_R   0.296103 0.657456 0.180420 0.594471
C61   C     C_R   0.306809 0.318275 0.812183 0.574172
C62   C     C_R   0.681778 0.693079 0.187785 0.574185
C63   C     C_R   0.342527 0.703841 0.819597 0.594550
C64   C     C_R   0.703878 0.342502 0.180478 0.594160
C65   C     C_R   0.827259 0.800274 0.738943 -0.195273
C66   C     C_R   0.199787 0.172751 0.261014 -0.195271
C67   C     C_R   0.801612 0.189385 0.747589 -0.177858
C68   C     C_R   0.189404 0.801662 0.252428 -0.177888
C69   C     C_R   0.172723 0.199699 0.738904 -0.195307
C70   C     C_R   0.800264 0.827252 0.261052 -0.195256
C71   C     C_R   0.198372 0.810611 0.747589 -0.177861
C72   C     C_R   0.810672 0.198346 0.252444 -0.177894
C73   C     C_R   0.310672 0.301635 0.247547 -0.177947
C74   C     C_R   0.698375 0.689385 0.752412 -0.177862
C75   C     C_R   0.300249 0.672742 0.238955 -0.195258
C76   C     C_R   0.672736 0.300279 0.761069 -0.195254
C77   C     C_R   0.689400 0.698347 0.247574 -0.177878
C78   C     C_R   0.301575 0.310624 0.752394 -0.177860
C79   C     C_R   0.699768 0.327209 0.239013 -0.195140
C80   C     C_R   0.327250 0.699718 0.761057 -0.195253
C81   C     C_R   0.783425 0.759928 0.763417 -0.042780
C82   C     C_R   0.240133 0.216584 0.236540 -0.042785
C83   C     C_R   0.752534 0.223665 0.771459 -0.044235
C84   C     C_R   0.223658 0.752562 0.228564 -0.044227
C85   C     C_R   0.216543 0.240057 0.763385 -0.042814
C86   C     C_R   0.759930 0.783408 0.236574 -0.042780
C87   C     C_R   0.247455 0.776333 0.771454 -0.044228
C88   C     C_R   0.776391 0.247432 0.228592 -0.044228
C89   C     C_R   0.276397 0.252550 0.271411 -0.044206
C90   C     C_R   0.747460 0.723661 0.728547 -0.044232
C91   C     C_R   0.259923 0.716593 0.263432 -0.042777
C92   C     C_R   0.716566 0.259932 0.736591 -0.042784
C93   C     C_R   0.723664 0.747438 0.271441 -0.044230
C94   C     C_R   0.252512 0.276327 0.728519 -0.044224
C95   C     C_R   0.740136 0.283391 0.263475 -0.042712
C96   C     C_R   0.283420 0.740068 0.736583 -0.042802
C97   C     C_R   0.731810 0.717361 0.847077 -0.427554
C98   C     C_R   0.282710 0.268190 0.152881 -0.427603
C99   C     C_R   0.692029 0.256075 0.853882 -0.427418
C100  C     C_R   0.256024 0.692019 0.146149 -0.427379
C101  C     C_R   0.268111 0.282658 0.847054 -0.427582
C102  C     C_R   0.717383 0.731784 0.152911 -0.427561
C103  C     C_R   0.307970 0.743921 0.853872 -0.427450
C104  C     C_R   0.743952 0.307955 0.146189 -0.427360
C105  C     C_R   0.243991 0.192031 0.353828 -0.427429
C106  C     C_R   0.807980 0.756067 0.646130 -0.427410
C107  C     C_R   0.217393 0.768235 0.347093 -0.427559
C108  C     C_R   0.768166 0.217362 0.652928 -0.427573
C109  C     C_R   0.756046 0.807967 0.353860 -0.427394
C110  C     C_R   0.192032 0.243889 0.646088 -0.427483
C111  C     C_R   0.782744 0.231786 0.347119 -0.427555
C112  C     C_R   0.231810 0.782640 0.652923 -0.427540
C113  C     C_R   0.869897 0.130989 0.119519 0.160022
C114  C     C_R   0.131002 0.869884 0.880495 0.160025
C115  C     C_R   0.122510 0.122117 0.129424 0.147850
C116  C     C_R   0.877912 0.877527 0.870541 0.147827
C117  C     C_R   0.130105 0.869013 0.119524 0.160038
C118  C     C_R   0.868998 0.130112 0.880490 0.160027
C119  C     C_R   0.877525 0.877913 0.129459 0.147799
C120  C     C_R   0.122060 0.122445 0.870508 0.147800
C121  C     C_R   0.377910 0.622474 0.629457 0.147859
C122  C     C_R   0.622546 0.377852 0.370615 0.148041
C123  C     C_R   0.631003 0.630114 0.619506 0.160024
C124  C     C_R   0.369914 0.369023 0.380456 0.160007
C125  C     C_R   0.622077 0.377535 0.629471 0.147808
C126  C     C_R   0.377521 0.622092 0.370546 0.147783
C127  C     C_R   0.368991 0.369881 0.619500 0.160011
C128  C     C_R   0.630104 0.630985 0.380475 0.160033
C129  C     C_R   0.853070 0.845273 0.773990 0.532125
C130  C     C_R   0.154781 0.146947 0.225969 0.532123
C131  C     C_R   0.844872 0.164653 0.784989 0.539933
C132  C     C_R   0.164679 0.844917 0.215021 0.539943
C133  C     C_R   0.146910 0.154696 0.773951 0.532107
C134  C     C_R   0.845261 0.853074 0.226007 0.532075
C135  C     C_R   0.155115 0.835338 0.784994 0.539958
C136  C     C_R   0.835378 0.155088 0.215029 0.539966
C137  C     C_R   0.335386 0.344900 0.284951 0.539884
C138  C     C_R   0.655119 0.664655 0.715008 0.539941
C139  C     C_R   0.345248 0.646921 0.273998 0.532072
C140  C     C_R   0.646921 0.345278 0.726023 0.532112
C141  C     C_R   0.664671 0.655090 0.284978 0.539938
C142  C     C_R   0.344842 0.335356 0.715001 0.539925
C143  C     C_R   0.654774 0.353000 0.274075 0.532192
C144  C     C_R   0.353059 0.654719 0.726009 0.532179
C145  C     C_R   0.843577 0.840970 0.832811 -0.126240
C146  C     C_R   0.159076 0.156450 0.167149 -0.126239
C147  C     C_R   0.831821 0.164602 0.843348 -0.122189
C148  C     C_R   0.164597 0.831841 0.156668 -0.122175
C149  C     C_R   0.156395 0.159002 0.832774 -0.126220
C150  C     C_R   0.840967 0.843576 0.167187 -0.126220
C151  C     C_R   0.168175 0.835393 0.843351 -0.122180
C152  C     C_R   0.835415 0.168155 0.156674 -0.122193
C153  C     C_R   0.335431 0.331847 0.343309 -0.122216
C154  C     C_R   0.668179 0.664602 0.656651 -0.122191
C155  C     C_R   0.340963 0.656429 0.332818 -0.126211
C156  C     C_R   0.656411 0.340977 0.667201 -0.126220
C157  C     C_R   0.664598 0.668157 0.343333 -0.122184
C158  C     C_R   0.331810 0.335388 0.656638 -0.122201
C159  C     C_R   0.659113 0.343523 0.332893 -0.126339
C160  C     C_R   0.343574 0.659030 0.667187 -0.126270
C161  C     C_R   0.805631 0.797492 0.857303 -0.281184
C162  C     C_R   0.202559 0.194387 0.142655 -0.281209
C163  C     C_R   0.779931 0.191732 0.866110 -0.291468
C164  C     C_R   0.191701 0.779933 0.133914 -0.291480
C165  C     C_R   0.194324 0.202494 0.857269 -0.281171
C166  C     C_R   0.797502 0.805619 0.142691 -0.281171
C167  C     C_R   0.220070 0.808266 0.866107 -0.291478
C168  C     C_R   0.808289 0.220054 0.133929 -0.291494
C169  C     C_R   0.308313 0.279947 0.366065 -0.291442
C170  C     C_R   0.720075 0.691727 0.633894 -0.291471
C171  C     C_R   0.297504 0.694393 0.357314 -0.281168
C172  C     C_R   0.694353 0.297498 0.642707 -0.281188
C173  C     C_R   0.691713 0.720058 0.366090 -0.291474
C174  C     C_R   0.279931 0.308242 0.633868 -0.291443
C175  C     C_R   0.702615 0.305603 0.357375 -0.281285
C176  C     C_R   0.305632 0.702512 0.642696 -0.281195
H1    H     H_    0.946968 0.192995 0.100774 0.096302
H2    H     H_    0.055643 0.805938 0.900881 0.082137
H3    H     H_    0.186644 0.046894 0.109913 0.088370
H4    H     H_    0.811268 0.950045 0.892592 0.094245
H5    H     H_    0.053042 0.807000 0.100769 0.096318
H6    H     H_    0.944351 0.194063 0.900878 0.082151
H7    H     H_    0.813380 0.953124 0.109944 0.088379
H8    H     H_    0.188716 0.049941 0.892570 0.094255
H9    H     H_    0.953126 0.813383 0.890055 0.088382
H10   H     H_    0.049980 0.188752 0.107380 0.094244
H11   H     H_    0.193011 0.946949 0.899248 0.096296
H12   H     H_    0.805943 0.055637 0.099132 0.082140
H13   H     H_    0.046855 0.186597 0.890027 0.088386
H14   H     H_    0.950043 0.811268 0.107408 0.094258
H15   H     H_    0.806993 0.053043 0.899242 0.096297
H16   H     H_    0.194054 0.944368 0.099134 0.082109
H17   H     H_    0.453125 0.686619 0.609943 0.088379
H18   H     H_    0.549998 0.311229 0.392645 0.094167
H19   H     H_    0.693009 0.553047 0.600754 0.096301
H20   H     H_    0.305952 0.444365 0.400850 0.082145
H21   H     H_    0.546863 0.313390 0.609955 0.088399
H22   H     H_    0.450042 0.688735 0.392595 0.094263
H23   H     H_    0.306989 0.446952 0.600750 0.096290
H24   H     H_    0.694051 0.555627 0.400861 0.082118
H25   H     H_    0.446982 0.307016 0.399208 0.096312
H26   H     H_    0.555645 0.694060 0.599124 0.082134
H27   H     H_    0.686671 0.453085 0.390121 0.088397
H28   H     H_    0.311267 0.549953 0.607405 0.094236
H29   H     H_    0.553043 0.692999 0.399229 0.096314
H30   H     H_    0.444348 0.305934 0.599117 0.082170
H31   H     H_    0.313375 0.546879 0.390061 0.088382
H32   H     H_    0.688726 0.450050 0.607417 0.094248
H33   H     H_    0.729893 0.715192 0.893117 0.146724
H34   H     H_    0.284888 0.270099 0.106842 0.146748
H35   H     H_    0.682221 0.250426 0.898838 0.147116
H36   H     H_    0.250361 0.682198 0.101197 0.147121
H37   H     H_    0.270007 0.284839 0.893094 0.146727
H38   H     H_    0.715220 0.729866 0.106871 0.146721
H39   H     H_    0.317784 0.749568 0.898827 0.147125
H40   H     H_    0.749586 0.317775 0.101234 0.147131
H41   H     H_    0.249638 0.182219 0.398783 0.147131
H42   H     H_    0.817796 0.750417 0.601176 0.147124
H43   H     H_    0.215237 0.770161 0.393133 0.146719
H44   H     H_    0.770076 0.215192 0.606888 0.146721
H45   H     H_    0.750387 0.817784 0.398813 0.147119
H46   H     H_    0.182236 0.249527 0.601128 0.147137
H47   H     H_    0.784935 0.229872 0.393158 0.146750
H48   H     H_    0.229894 0.784810 0.606884 0.146725
N1    N     N_R   0.940200 0.105310 0.059970 -0.042695
N2    N     N_R   0.059800 0.894690 0.940030 -0.040881
N3    N     N_R   0.105310 0.059800 0.059970 -0.044464
N4    N     N_R   0.894690 0.940200 0.940030 -0.041292
N5    N     N_R   0.059800 0.894690 0.059970 -0.042691
N6    N     N_R   0.940200 0.105310 0.940030 -0.040876
N7    N     N_R   0.894690 0.940200 0.059970 -0.044464
N8    N     N_R   0.105310 0.059800 0.940030 -0.041296
N9    N     N_R   0.940200 0.894690 0.940030 -0.044464
N10   N     N_R   0.059800 0.105310 0.059970 -0.041284
N11   N     N_R   0.105310 0.940200 0.940030 -0.042692
N12   N     N_R   0.894690 0.059800 0.059970 -0.040886
N13   N     N_R   0.059800 0.105310 0.940030 -0.044466
N14   N     N_R   0.940200 0.894690 0.059970 -0.041286
N15   N     N_R   0.894690 0.059800 0.940030 -0.042692
N16   N     N_R   0.105310 0.940200 0.059970 -0.040892
N17   N     N_R   0.440200 0.605310 0.559970 -0.044462
N18   N     N_R   0.559800 0.394690 0.440030 -0.041289
N19   N     N_R   0.605310 0.559800 0.559970 -0.042693
N20   N     N_R   0.394690 0.440200 0.440030 -0.040887
N21   N     N_R   0.559800 0.394690 0.559970 -0.044464
N22   N     N_R   0.440200 0.605310 0.440030 -0.041284
N23   N     N_R   0.394690 0.440200 0.559970 -0.042694
N24   N     N_R   0.605310 0.559800 0.440030 -0.040889
N25   N     N_R   0.440200 0.394690 0.440030 -0.042690
N26   N     N_R   0.559800 0.605310 0.559970 -0.040879
N27   N     N_R   0.605310 0.440200 0.440030 -0.044457
N28   N     N_R   0.394690 0.559800 0.559970 -0.041295
N29   N     N_R   0.559800 0.605310 0.440030 -0.042694
N30   N     N_R   0.440200 0.394690 0.559970 -0.040874
N31   N     N_R   0.394690 0.559800 0.440030 -0.044464
N32   N     N_R   0.605310 0.440200 0.559970 -0.041292
Ni1   Ni    Ni4+2 0.000000 0.104370 0.000000 0.214181
Ni2   Ni    Ni4+2 0.000000 0.895630 0.000000 0.214178
Ni3   Ni    Ni4+2 0.104370 0.000000 0.000000 0.214177
Ni4   Ni    Ni4+2 0.895630 0.000000 0.000000 0.214179
Ni5   Ni    Ni4+2 0.500000 0.604370 0.500000 0.214179
Ni6   Ni    Ni4+2 0.500000 0.395630 0.500000 0.214181
Ni7   Ni    Ni4+2 0.604370 0.500000 0.500000 0.214178
Ni8   Ni    Ni4+2 0.395630 0.500000 0.500000 0.214180
O1    O     O_3   0.887305 0.892961 0.751013 -0.628162
C177  C     C_3   0.851963 0.947615 0.750722 0.247644
H49   H     H_    0.883996 0.986913 0.746394 0.161493
H50   H     H_    0.826954 0.955070 0.791390 0.073872
C178  C     C_3   0.806539 0.949644 0.700660 -0.323940
H51   H     H_    0.832191 0.954107 0.659908 0.200997
H52   H     H_    0.779005 0.906990 0.698905 0.191489
C179  C     C_3   0.762012 0.003111 0.707257 -1.015252
H53   H     H_    0.733596 0.996935 0.746194 0.265444
H54   H     H_    0.731040 0.005107 0.669703 0.265296
H55   H     H_    0.787388 0.046936 0.710769 0.304210
O2    O     O_3   0.107098 0.112709 0.248946 -0.628160
C180  C     C_3   0.052445 0.148050 0.249255 0.247630
H56   H     H_    0.013149 0.116017 0.253575 0.161502
H57   H     H_    0.044987 0.173077 0.208597 0.073844
C181  C     C_3   0.050422 0.193451 0.299335 -0.323934
H58   H     H_    0.045985 0.167780 0.340079 0.201021
H59   H     H_    0.093069 0.220998 0.301083 0.191485
C182  C     C_3   0.996938 0.237961 0.292776 -1.015292
H60   H     H_    0.003089 0.266399 0.253851 0.265460
H61   H     H_    0.994943 0.268910 0.330346 0.265303
H62   H     H_    0.953121 0.212572 0.289267 0.304209
O3    O     O_3   0.900000 0.141072 0.765202 -0.622319
C183  C     C_3   0.946907 0.185697 0.771549 0.218359
H63   H     H_    0.988368 0.162122 0.788157 0.150847
H64   H     H_    0.935802 0.222847 0.802710 0.044464
C184  C     C_3   0.962756 0.214731 0.713940 -0.229847
H65   H     H_    0.981006 0.178945 0.684801 0.241310
H66   H     H_    0.921048 0.234837 0.694397 0.184351
C185  C     C_3   0.009980 0.265760 0.721017 -0.978245
H67   H     H_    0.989890 0.304448 0.745496 0.251519
H68   H     H_    0.024266 0.282874 0.678419 0.268525
H69   H     H_    0.050905 0.248660 0.744120 0.278854
O4    O     O_3   0.141129 0.900063 0.234797 -0.622290
C186  C     C_3   0.185777 0.946945 0.228428 0.218457
H70   H     H_    0.162211 0.988425 0.211842 0.150902
H71   H     H_    0.222896 0.935824 0.197238 0.044396
C187  C     C_3   0.214866 0.962763 0.286020 -0.229836
H72   H     H_    0.179109 0.981009 0.315195 0.241301
H73   H     H_    0.234984 0.921042 0.305532 0.184296
C188  C     C_3   0.265898 0.009981 0.278919 -0.978231
H74   H     H_    0.304557 0.989896 0.254393 0.251517
H75   H     H_    0.283061 0.024238 0.321510 0.268488
H76   H     H_    0.248782 0.050924 0.255851 0.278887
O5    O     O_3   0.112668 0.107015 0.750970 -0.628160
C189  C     C_3   0.147996 0.052352 0.750675 0.247820
H77   H     H_    0.115954 0.013066 0.746225 0.161496
H78   H     H_    0.172902 0.044827 0.791395 0.073942
C190  C     C_3   0.193548 0.050386 0.700699 -0.324182
H79   H     H_    0.167990 0.046032 0.659876 0.200972
H80   H     H_    0.221139 0.093019 0.699077 0.191440
C191  C     C_3   0.238006 0.996861 0.707302 -1.015110
H81   H     H_    0.266350 0.002941 0.746303 0.265438
H82   H     H_    0.269053 0.994895 0.669795 0.265304
H83   H     H_    0.212573 0.953055 0.710707 0.304179
O6    O     O_3   0.892934 0.887328 0.248986 -0.628178
C192  C     C_3   0.947604 0.852011 0.249282 0.247659
H84   H     H_    0.986887 0.884061 0.253607 0.161447
H85   H     H_    0.955070 0.826999 0.208618 0.073876
C193  C     C_3   0.949650 0.806595 0.299351 -0.323927
H86   H     H_    0.954094 0.832255 0.340100 0.200999
H87   H     H_    0.907009 0.779038 0.301104 0.191493
C194  C     C_3   0.003144 0.762098 0.292766 -1.015305
H88   H     H_    0.996993 0.733676 0.253830 0.265461
H89   H     H_    0.005149 0.731130 0.330323 0.265305
H90   H     H_    0.046956 0.787499 0.289262 0.304190
O7    O     O_3   0.099981 0.858914 0.765212 -0.622325
C195  C     C_3   0.053079 0.814284 0.771563 0.218425
H91   H     H_    0.011604 0.837862 0.788144 0.150889
H92   H     H_    0.064179 0.777154 0.802749 0.044425
C196  C     C_3   0.037263 0.785215 0.713961 -0.229857
H93   H     H_    0.019027 0.820982 0.684792 0.241274
H94   H     H_    0.078983 0.765095 0.694450 0.184319
C197  C     C_3   0.990035 0.734189 0.721045 -0.978192
H95   H     H_    0.010111 0.695519 0.745563 0.251508
H96   H     H_    0.975780 0.717042 0.678448 0.268497
H97   H     H_    0.949093 0.751305 0.744113 0.278885
O8    O     O_3   0.858950 0.099949 0.234799 -0.622303
C198  C     C_3   0.814310 0.053057 0.228453 0.218460
H98   H     H_    0.837880 0.011575 0.211880 0.150940
H99   H     H_    0.777186 0.064160 0.197263 0.044422
C199  C     C_3   0.785230 0.037257 0.286055 -0.229908
H100  H     H_    0.820989 0.019011 0.315227 0.241270
H101  H     H_    0.765124 0.078986 0.305562 0.184275
C200  C     C_3   0.734186 0.990049 0.278973 -0.978137
H102  H     H_    0.695525 0.010138 0.254451 0.251492
H103  H     H_    0.717030 0.975804 0.321570 0.268484
H104  H     H_    0.751288 0.949098 0.255909 0.278898
O9    O     O_3   0.358952 0.400037 0.265167 -0.622284
C201  C     C_3   0.314312 0.446928 0.271520 0.218508
H105  H     H_    0.337886 0.488414 0.288085 0.150960
H106  H     H_    0.277195 0.435827 0.302718 0.044423
C202  C     C_3   0.285220 0.462721 0.213922 -0.229970
H107  H     H_    0.320971 0.480974 0.184744 0.241243
H108  H     H_    0.265120 0.420988 0.194418 0.184261
C203  C     C_3   0.234169 0.509919 0.221011 -0.978100
H109  H     H_    0.195518 0.489824 0.245540 0.251493
H110  H     H_    0.217002 0.524158 0.178416 0.268471
H111  H     H_    0.251268 0.550874 0.244069 0.278915
O10   O     O_3   0.599984 0.641083 0.734789 -0.622308
C204  C     C_3   0.553085 0.685714 0.728434 0.218332
H112  H     H_    0.511626 0.662147 0.711809 0.150820
H113  H     H_    0.564206 0.722869 0.697282 0.044474
C205  C     C_3   0.537220 0.714737 0.786041 -0.229841
H114  H     H_    0.518953 0.678948 0.815167 0.241332
H115  H     H_    0.578923 0.734833 0.805601 0.184370
C206  C     C_3   0.490006 0.765775 0.778958 -0.978267
H116  H     H_    0.510117 0.804471 0.754507 0.251524
H117  H     H_    0.475695 0.782872 0.821553 0.268548
H118  H     H_    0.449095 0.748692 0.755827 0.278834
O11   O     O_3   0.392916 0.612663 0.251018 -0.628187
C207  C     C_3   0.447589 0.647977 0.250715 0.247685
H119  H     H_    0.486870 0.615924 0.246383 0.161452
H120  H     H_    0.455065 0.672984 0.291381 0.073893
C208  C     C_3   0.449632 0.693397 0.200649 -0.323966
H121  H     H_    0.454079 0.667742 0.159898 0.200990
H122  H     H_    0.406988 0.720950 0.198898 0.191499
C209  C     C_3   0.503120 0.737901 0.207239 -1.015275
H123  H     H_    0.496965 0.766320 0.246176 0.265453
H124  H     H_    0.505124 0.768872 0.169683 0.265300
H125  H     H_    0.546935 0.712505 0.210744 0.304206
O12   O     O_3   0.612685 0.392962 0.749000 -0.628184
C210  C     C_3   0.648020 0.447620 0.749288 0.247649
H126  H     H_    0.615984 0.486911 0.753631 0.161493
H127  H     H_    0.673011 0.455084 0.708613 0.073894
C211  C     C_3   0.693463 0.449648 0.799336 -0.323972
H128  H     H_    0.667825 0.454097 0.840097 0.200998
H129  H     H_    0.721006 0.406999 0.801075 0.191492
C212  C     C_3   0.737978 0.503124 0.792732 -1.015269
H130  H     H_    0.766384 0.496959 0.753789 0.265452
H131  H     H_    0.768960 0.505123 0.830280 0.265302
H132  H     H_    0.712593 0.546944 0.789230 0.304200
O13   O     O_3   0.641108 0.599951 0.265198 -0.622295
C213  C     C_3   0.685744 0.553058 0.271565 0.218467
H133  H     H_    0.662170 0.511584 0.288155 0.150882
H134  H     H_    0.722871 0.564171 0.302749 0.044413
C214  C     C_3   0.714821 0.537230 0.213970 -0.229907
H135  H     H_    0.679056 0.518986 0.184802 0.241240
H136  H     H_    0.734941 0.578946 0.194451 0.184328
C215  C     C_3   0.765847 0.490006 0.221069 -0.978238
H137  H     H_    0.804512 0.510087 0.245590 0.251523
H138  H     H_    0.783002 0.475744 0.178478 0.268486
H139  H     H_    0.748727 0.449067 0.244141 0.278896
O14   O     O_3   0.399960 0.358954 0.734799 -0.622339
C216  C     C_3   0.446881 0.314342 0.728464 0.218397
H140  H     H_    0.488349 0.337932 0.711883 0.150889
H141  H     H_    0.435801 0.277199 0.697286 0.044470
C217  C     C_3   0.462700 0.285295 0.786076 -0.229926
H142  H     H_    0.480946 0.321074 0.815229 0.241201
H143  H     H_    0.420978 0.265190 0.805602 0.184333
C218  C     C_3   0.509918 0.234260 0.779006 -0.978054
H144  H     H_    0.489830 0.195580 0.754508 0.251478
H145  H     H_    0.524179 0.217132 0.821608 0.268489
H146  H     H_    0.550860 0.251360 0.755921 0.278887
O15   O     O_3   0.607035 0.387178 0.251126 -0.628118
C219  C     C_3   0.552438 0.351750 0.250850 0.247385
H147  H     H_    0.513066 0.383744 0.246895 0.161436
H148  H     H_    0.545218 0.326403 0.291380 0.073358
C220  C     C_3   0.550272 0.306708 0.200497 -0.322497
H149  H     H_    0.545514 0.332666 0.159942 0.200881
H150  H     H_    0.593004 0.279324 0.198362 0.191404
C221  C     C_3   0.496973 0.261968 0.207041 -1.015273
H151  H     H_    0.503400 0.233314 0.245798 0.265356
H152  H     H_    0.494928 0.231226 0.169319 0.265187
H153  H     H_    0.453076 0.287188 0.210847 0.304062
O16   O     O_3   0.387280 0.607022 0.748985 -0.628142
C222  C     C_3   0.351924 0.552376 0.749271 0.247629
H154  H     H_    0.383946 0.513071 0.753600 0.161518
H155  H     H_    0.326918 0.544930 0.708600 0.073865
C223  C     C_3   0.306493 0.550355 0.799329 -0.323930
H156  H     H_    0.332139 0.545873 0.840082 0.200988
H157  H     H_    0.278975 0.593019 0.801090 0.191481
C224  C     C_3   0.261943 0.496907 0.792718 -1.015180
H158  H     H_    0.233531 0.503105 0.753782 0.265425
H159  H     H_    0.230969 0.494913 0.830271 0.265282
H160  H     H_    0.287300 0.453073 0.789196 0.304218
H161  H     H_    0.800238 0.795621 0.903400 0.149667
H162  H     H_    0.204428 0.199781 0.096558 0.149664
H163  H     H_    0.771277 0.189643 0.911747 0.148959
H164  H     H_    0.189593 0.771263 0.088280 0.148958
H165  H     H_    0.199706 0.204372 0.903367 0.149671
H166  H     H_    0.795638 0.800224 0.096594 0.149666
H167  H     H_    0.228731 0.810356 0.911744 0.148959
H168  H     H_    0.810366 0.228719 0.088292 0.148961
H169  H     H_    0.310399 0.271290 0.411702 0.148960
H170  H     H_    0.728736 0.689637 0.588257 0.148958
H171  H     H_    0.295647 0.699795 0.403410 0.149663
H172  H     H_    0.699742 0.295627 0.596611 0.149670
H173  H     H_    0.689611 0.728722 0.411726 0.148958
H174  H     H_    0.271290 0.310319 0.588227 0.148957
H175  H     H_    0.704507 0.300220 0.403471 0.149667
H176  H     H_    0.300244 0.704388 0.596598 0.149669
O17   O     O_3   0.172755 0.105384 0.338845 -0.626851
C225  C     C_3   0.158894 0.105231 0.397774 0.201521
H177  H     H_    0.113037 0.083871 0.403062 0.118519
H178  H     H_    0.154097 0.152043 0.415866 0.087216
C226  C     C_3   0.205461 0.065775 0.430291 -0.294470
H179  H     H_    0.197252 0.016621 0.420442 0.195615
H180  H     H_    0.252842 0.077027 0.416567 0.202368
C227  C     C_3   0.200479 0.075704 0.494512 -1.054025
H181  H     H_    0.210838 0.124249 0.504867 0.265165
H182  H     H_    0.234236 0.046385 0.517038 0.280933
H183  H     H_    0.153734 0.063831 0.509681 0.267870
O18   O     O_3   0.894619 0.827314 0.661109 -0.626843
C228  C     C_3   0.894765 0.841180 0.602180 0.201558
H184  H     H_    0.916111 0.887043 0.596895 0.118525
H185  H     H_    0.847950 0.845964 0.584089 0.087204
C229  C     C_3   0.934234 0.794628 0.569661 -0.294473
H186  H     H_    0.983387 0.802848 0.579514 0.195639
H187  H     H_    0.922993 0.747243 0.583380 0.202356
C230  C     C_3   0.924307 0.799615 0.505440 -1.054003
H188  H     H_    0.875767 0.789235 0.495081 0.265167
H189  H     H_    0.953643 0.765874 0.482912 0.280926
H190  H     H_    0.936160 0.846366 0.490276 0.267867
O19   O     O_3   0.138232 0.849005 0.332457 -0.640244
C231  C     C_3   0.130765 0.851832 0.392300 0.197150
H191  H     H_    0.106986 0.895571 0.402198 0.120242
H192  H     H_    0.175315 0.855595 0.414722 0.096472
C232  C     C_3   0.089854 0.799367 0.413911 -0.305830
H193  H     H_    0.041550 0.809200 0.402309 0.211239
H194  H     H_    0.102928 0.755221 0.393766 0.210677
C233  C     C_3   0.093958 0.792239 0.478406 -1.056990
H195  H     H_    0.141663 0.780885 0.490948 0.266884
H196  H     H_    0.063835 0.754195 0.492543 0.278723
H197  H     H_    0.078974 0.835141 0.499731 0.271722
O20   O     O_3   0.848902 0.138166 0.667560 -0.640257
C234  C     C_3   0.851736 0.130711 0.607716 0.197149
H198  H     H_    0.895468 0.106919 0.597819 0.120255
H199  H     H_    0.855516 0.175264 0.585302 0.096471
C235  C     C_3   0.799258 0.089824 0.586093 -0.305828
H200  H     H_    0.809067 0.041516 0.597697 0.211239
H201  H     H_    0.755111 0.102916 0.606227 0.210668
C236  C     C_3   0.792151 0.093930 0.521595 -1.057000
H202  H     H_    0.780828 0.141639 0.509046 0.266889
H203  H     H_    0.754095 0.063826 0.507451 0.278720
H204  H     H_    0.835052 0.078922 0.500281 0.271741
O21   O     O_3   0.827284 0.894614 0.338888 -0.626850
C237  C     C_3   0.841146 0.894759 0.397818 0.201540
H205  H     H_    0.887007 0.916108 0.403106 0.118515
H206  H     H_    0.845932 0.847944 0.415909 0.087205
C238  C     C_3   0.794587 0.934222 0.430336 -0.294465
H207  H     H_    0.802800 0.983374 0.420480 0.195629
H208  H     H_    0.747204 0.922973 0.416619 0.202354
C239  C     C_3   0.799577 0.924300 0.494558 -1.054027
H209  H     H_    0.789207 0.875760 0.504921 0.265172
H210  H     H_    0.765831 0.953632 0.517084 0.280939
H211  H     H_    0.846327 0.936164 0.509719 0.267865
O22   O     O_3   0.105392 0.172636 0.661056 -0.626839
C240  C     C_3   0.105251 0.158785 0.602125 0.201465
H212  H     H_    0.083895 0.112929 0.596828 0.118530
H213  H     H_    0.152068 0.153994 0.584040 0.087231
C241  C     C_3   0.065798 0.205355 0.569609 -0.294479
H214  H     H_    0.016642 0.197139 0.579449 0.195651
H215  H     H_    0.077042 0.252733 0.583343 0.202353
C242  C     C_3   0.075743 0.200389 0.505388 -1.053984
H216  H     H_    0.124289 0.210756 0.495046 0.265159
H217  H     H_    0.046426 0.234147 0.482863 0.280921
H218  H     H_    0.063879 0.153647 0.490208 0.267872
O23   O     O_3   0.861909 0.151028 0.332449 -0.640232
C243  C     C_3   0.869366 0.148165 0.392292 0.197147
H219  H     H_    0.893141 0.104419 0.402174 0.120220
H220  H     H_    0.824811 0.144391 0.414706 0.096483
C244  C     C_3   0.910274 0.200617 0.413932 -0.305767
H221  H     H_    0.958584 0.190779 0.402353 0.211199
H222  H     H_    0.897221 0.244770 0.393788 0.210686
C245  C     C_3   0.906130 0.207734 0.478426 -1.057027
H223  H     H_    0.858420 0.219095 0.490944 0.266885
H224  H     H_    0.936250 0.245770 0.492586 0.278738
H225  H     H_    0.921091 0.164826 0.499755 0.271720
O24   O     O_3   0.151064 0.861824 0.667564 -0.640293
C246  C     C_3   0.148251 0.869306 0.607721 0.197058
H226  H     H_    0.104524 0.893107 0.597820 0.120262
H227  H     H_    0.144472 0.824763 0.585292 0.096527
C247  C     C_3   0.200740 0.910197 0.586125 -0.305887
H228  H     H_    0.190927 0.958504 0.597731 0.211233
H229  H     H_    0.244877 0.897102 0.606276 0.210686
C248  C     C_3   0.207879 0.906097 0.521630 -1.056901
H230  H     H_    0.219208 0.858388 0.509083 0.266872
H231  H     H_    0.245944 0.936200 0.507503 0.278710
H232  H     H_    0.164989 0.921107 0.500297 0.271729
O25   O     O_3   0.651069 0.638170 0.832438 -0.640259
C249  C     C_3   0.648241 0.630702 0.892281 0.197144
H233  H     H_    0.604510 0.606907 0.902178 0.120245
H234  H     H_    0.644462 0.675250 0.914702 0.096487
C250  C     C_3   0.700721 0.589813 0.913893 -0.305838
H235  H     H_    0.690905 0.541505 0.902296 0.211222
H236  H     H_    0.744864 0.602900 0.893747 0.210683
C251  C     C_3   0.707850 0.593923 0.978388 -1.056999
H237  H     H_    0.719188 0.641632 0.990928 0.266893
H238  H     H_    0.745904 0.563814 0.992526 0.278706
H239  H     H_    0.664953 0.578926 0.999716 0.271747
O26   O     O_3   0.361906 0.348925 0.167527 -0.640086
C252  C     C_3   0.369313 0.351814 0.107678 0.197394
H240  H     H_    0.393081 0.395563 0.097796 0.120152
H241  H     H_    0.324742 0.355595 0.085295 0.096373
C253  C     C_3   0.410204 0.299371 0.085996 -0.305674
H242  H     H_    0.458520 0.309208 0.097547 0.211158
H243  H     H_    0.397164 0.255210 0.106134 0.210677
C254  C     C_3   0.406024 0.292279 0.021503 -1.057230
H244  H     H_    0.358309 0.280912 0.009007 0.266923
H245  H     H_    0.436145 0.254257 0.007315 0.278755
H246  H     H_    0.420966 0.335200 0.000183 0.271726
O27   O     O_3   0.605391 0.327326 0.838912 -0.626845
C255  C     C_3   0.605249 0.341182 0.897843 0.201556
H247  H     H_    0.583903 0.387043 0.903134 0.118541
H248  H     H_    0.652064 0.345963 0.915933 0.087204
C256  C     C_3   0.565779 0.294623 0.930357 -0.294492
H249  H     H_    0.516628 0.302835 0.920494 0.195677
H250  H     H_    0.577031 0.247241 0.916644 0.202332
C257  C     C_3   0.575689 0.299614 0.994581 -1.053982
H251  H     H_    0.624228 0.289247 0.004951 0.265176
H252  H     H_    0.546354 0.265867 0.017103 0.280909
H253  H     H_    0.563821 0.346362 0.009741 0.267885
O28   O     O_3   0.327255 0.605369 0.161122 -0.626851
C258  C     C_3   0.341122 0.605226 0.102193 0.201567
H254  H     H_    0.386982 0.583875 0.096907 0.118517
H255  H     H_    0.345911 0.652040 0.084103 0.087199
C259  C     C_3   0.294563 0.565764 0.069671 -0.294468
H256  H     H_    0.302775 0.516611 0.079523 0.195613
H257  H     H_    0.247180 0.577012 0.083388 0.202362
C260  C     C_3   0.299554 0.575692 0.005450 -1.054043
H258  H     H_    0.289189 0.624234 0.995091 0.265173
H259  H     H_    0.265806 0.546365 0.982921 0.280948
H260  H     H_    0.346304 0.563827 0.990288 0.267865
O29   O     O_3   0.348820 0.361885 0.832424 -0.640240
C261  C     C_3   0.351653 0.369333 0.892270 0.197136
H261  H     H_    0.395379 0.393136 0.902169 0.120251
H262  H     H_    0.355445 0.324777 0.914676 0.096512
C262  C     C_3   0.299164 0.410200 0.913899 -0.305822
H263  H     H_    0.308960 0.458513 0.902302 0.211222
H264  H     H_    0.255021 0.397099 0.893761 0.210667
C263  C     C_3   0.292056 0.406081 0.978396 -1.056974
H265  H     H_    0.280740 0.358368 0.990939 0.266900
H266  H     H_    0.253995 0.436175 0.992545 0.278708
H267  H     H_    0.334953 0.421093 0.999714 0.271745
O30   O     O_3   0.638212 0.651022 0.167545 -0.640247
C264  C     C_3   0.630748 0.648194 0.107701 0.197138
H268  H     H_    0.606967 0.604456 0.097803 0.120246
H269  H     H_    0.675299 0.644430 0.085281 0.096490
C265  C     C_3   0.589841 0.700660 0.086090 -0.305832
H270  H     H_    0.541535 0.690828 0.097691 0.211240
H271  H     H_    0.602917 0.744806 0.106234 0.210676
C266  C     C_3   0.593947 0.707788 0.021594 -1.056988
H272  H     H_    0.641652 0.719140 0.009052 0.266890
H273  H     H_    0.563826 0.745833 0.007457 0.278715
H274  H     H_    0.578961 0.664887 0.000269 0.271732
O31   O     O_3   0.394598 0.672661 0.838894 -0.626851
C267  C     C_3   0.394739 0.658794 0.897822 0.201502
H275  H     H_    0.416075 0.612927 0.903107 0.118543
H276  H     H_    0.347923 0.654019 0.915913 0.087221
C268  C     C_3   0.434217 0.705339 0.930343 -0.294483
H277  H     H_    0.483367 0.697115 0.920484 0.195649
H278  H     H_    0.422979 0.752726 0.916631 0.202340
C269  C     C_3   0.424296 0.700345 0.994565 -1.053997
H279  H     H_    0.375759 0.710730 0.004928 0.265169
H280  H     H_    0.453640 0.734078 0.017093 0.280933
H281  H     H_    0.436143 0.653590 0.009722 0.267864
O32   O     O_3   0.672688 0.394573 0.161199 -0.626867
C270  C     C_3   0.658808 0.394724 0.102273 0.201581
H282  H     H_    0.612941 0.416063 0.097001 0.118500
H283  H     H_    0.654025 0.347912 0.084178 0.087213
C271  C     C_3   0.705346 0.434205 0.069747 -0.294413
H284  H     H_    0.697121 0.483353 0.079607 0.195613
H285  H     H_    0.752735 0.422970 0.083452 0.202370
C272  C     C_3   0.700342 0.424286 0.005526 -1.054192
H286  H     H_    0.710728 0.375754 0.995157 0.265197
H287  H     H_    0.734068 0.453632 0.982995 0.280969
H288  H     H_    0.653587 0.436130 0.990376 0.267898

loop_
_geom_bond_atom_site_label_1
_geom_bond_atom_site_label_2
_ccdc_geom_bond_type
C242  H218  S    
O27   C255  S    
C202  H107  S    
C103  H39   S    
C130  C146  A    
C249  C250  S    
O17   C225  S    
C62   C77   A    
C184  H65   S    
C39   C87   A    
C210  C211  S    
C231  H191  S    
C252  H240  S    
C175  H175  S    
C41   C105  A    
N18   N27   A    
C219  H147  S    
C272  H287  S    
C65   C81   A    
C116  C145  S    
C45   C109  A    
C228  C229  S    
N22   N31   A    
C142  O14   S    
C15   N15   A    
C255  H247  S    
C154  C170  A    
C244  H222  S    
C245  H223  S    
C260  H258  S    
C246  C247  S    
C27   N27   A    
O32   C270  S    
C42   C170  A    
C72   C88   A    
C237  H205  S    
C25   N25   A    
C158  C174  A    
C251  H239  S    
C101  H37   S    
C179  H53   S    
C58   O26   S    
C46   C174  A    
C259  H256  S    
C84   C91   A    
C29   N29   A    
C144  C160  A    
C138  O10   S    
C44   C92   A    
C207  C208  S    
C19   N19   A    
C138  C154  A    
C76   C140  A    
C88   C95   A    
C17   N17   A    
N19   N26   A    
N17   Ni5   S    
C234  H199  S    
C43   C91   A    
C1    C113  A    
C142  C158  A    
C222  C223  S    
C205  H114  S    
C136  C152  A    
C4    C116  A    
O9    C201  S    
C220  C221  S    
C187  H73   S    
C11   N11   A    
C189  H78   S    
C238  H208  S    
C9    N9    A    
C254  H244  S    
C183  C184  S    
C7    C119  A    
C215  H138  S    
C263  H265  S    
C104  H40   S    
C225  H177  S    
C196  H94   S    
O8    C198  S    
C211  H129  S    
C228  H184  S    
C41   C169  A    
C267  C268  S    
C35   C163  A    
C191  H81   S    
C28   H28   S    
C33   C161  A    
C44   C172  A    
C31   H31   S    
C257  H251  S    
C45   C173  A    
C230  H189  S    
C236  H204  S    
C146  C162  A    
C243  C244  S    
C57   C97   A    
O22   C240  S    
C259  C260  S    
C265  H271  S    
C137  C153  A    
C215  H137  S    
C143  C159  A    
C42   C106  A    
N22   Ni5   S    
C140  C156  A    
C107  H43   S    
C81   C90   A    
C141  C157  A    
C253  H242  S    
C202  C203  S    
C105  H41   S    
C178  H52   S    
C64   C79   A    
O4    C186  S    
C210  H126  S    
C231  C232  S    
C230  H188  S    
C109  H45   S    
C2    N2    A    
C163  H163  S    
C224  H160  S    
C53   C109  A    
C15   H15   S    
C30   C127  A    
C161  H161  S    
C48   C96   A    
C55   C111  A    
C28   C121  A    
C9    C116  A    
C219  C220  S    
C21   H21   S    
C241  H214  S    
C60   C100  A    
C21   N21   A    
O11   C207  S    
C255  C256  S    
C212  H130  S    
C15   C118  A    
C7    H7    S    
C40   C88   A    
C181  H58   S    
C250  H236  S    
C204  H112  S    
C2    C114  A    
C74   C90   A    
C73   C137  A    
C78   C94   A    
C193  C194  S    
C47   C111  A    
C270  C271  S    
C33   C97   A    
C219  H148  S    
N16   Ni3   S    
C233  H195  S    
C77   C141  A    
C174  H174  S    
C186  C187  S    
C50   O18   S    
C196  H93   S    
C232  C233  S    
O30   C264  S    
C24   H24   S    
C51   C107  A    
C14   C119  A    
C269  H279  S    
C170  H170  S    
C53   O21   S    
O24   C246  S    
N29   Ni5   S    
C42   C90   A    
C216  H140  S    
C22   N22   A    
C205  C206  S    
N27   Ni7   S    
C166  H166  S    
C123  C154  S    
C57   C74   A    
C244  C245  S    
C41   C89   A    
C67   C83   A    
C200  H102  S    
C18   H18   S    
C266  H272  S    
C58   C98   A    
C263  H267  S    
C45   C93   A    
C223  H157  S    
C214  H135  S    
C266  H274  S    
C222  H155  S    
C99   H35   S    
C226  H179  S    
C115  C146  S    
C19   C123  A    
C120  C149  S    
C82   C89   A    
C97   H33   S    
C6    H6    S    
C191  H83   S    
C27   H27   S    
C191  H82   S    
C118  C147  S    
C184  H66   S    
C176  H176  S    
C25   H25   S    
C179  H55   S    
C261  H262  S    
C190  H80   S    
C150  C166  A    
C29   H29   S    
O10   C204  S    
C54   C110  A    
C233  H197  S    
C143  O15   S    
C253  C254  S    
C79   C143  A    
C232  H193  S    
C80   C144  A    
N8    Ni3   S    
C224  H159  S    
C63   O31   S    
C218  H145  S    
C131  C147  A    
C32   H32   S    
C75   C91   A    
N5    Ni2   S    
C192  C193  S    
C251  H238  S    
C180  H56   S    
C182  H62   S    
C59   O27   S    
N6    N15   A    
N19   Ni7   S    
C241  C242  S    
C203  H109  S    
C262  H264  S    
C207  H120  S    
C128  C157  S    
C63   C80   A    
C151  C167  A    
C212  H132  S    
C235  H201  S    
N12   Ni4   S    
C49   C66   A    
C148  C164  A    
C149  C165  A    
C195  H91   S    
C20   H20   S    
C204  C205  S    
C61   O29   S    
C194  H89   S    
C43   C171  A    
N24   N29   A    
C227  H181  S    
C208  C209  S    
C37   C165  A    
C156  C172  A    
C240  H213  S    
C183  H64   S    
C61   C101  A    
C248  H230  S    
C86   C93   A    
C145  C161  A    
C199  H101  S    
C222  H154  S    
C46   C94   A    
N6    Ni1   S    
C139  C155  A    
C181  H59   S    
C206  H118  S    
C267  H276  S    
N18   Ni6   S    
C52   O20   S    
C268  H278  S    
N31   Ni8   S    
C264  C265  S    
N4    N9    A    
C52   C67   A    
C177  H50   S    
N11   Ni3   S    
C48   C112  A    
C243  H220  S    
C192  H84   S    
C200  H104  S    
C197  H96   S    
C6    N6    A    
C227  H182  S    
N8    N13   A    
C213  H134  S    
N32   Ni7   S    
C130  O2    S    
C214  C215  S    
C69   C85   A    
C199  C200  S    
C70   C134  A    
C226  C227  S    
C64   C104  A    
C256  C257  S    
C257  H253  S    
N1    N12   A    
C129  C145  A    
C217  C218  S    
C195  C196  S    
C51   O19   S    
C210  H127  S    
C177  C178  S    
C231  H192  S    
C137  O9    S    
O23   C243  S    
N4    Ni4   S    
N9    Ni2   S    
C216  C217  S    
C197  H97   S    
C31   N31   A    
C258  C259  S    
C198  H99   S    
C264  H268  S    
C75   C139  A    
C272  H286  S    
C37   C101  A    
C269  H280  S    
C10   H10   S    
C255  H248  S    
C245  H224  S    
C246  H227  S    
C23   N23   A    
C50   C65   A    
C20   C124  A    
N28   Ni8   S    
C56   O24   S    
C14   H14   S    
N23   N30   A    
O18   C228  S    
C16   N16   A    
C193  H87   S    
C201  H105  S    
C180  C181  S    
C182  H60   S    
C162  H162  S    
C271  H284  S    
C259  H257  S    
C2    H2    S    
C59   C76   A    
C237  C238  S    
C203  H111  S    
C47   C175  A    
C239  H209  S    
C48   C176  A    
C269  H281  S    
C209  H123  S    
C245  H225  S    
C112  H48   S    
C193  H86   S    
O19   C231  S    
C229  C230  S    
C13   N13   A    
N2    Ni2   S    
C205  H115  S    
C223  H156  S    
C208  H121  S    
C220  H150  S    
C229  H186  S    
C74   C138  A    
C247  H228  S    
N7    N14   A    
C263  H266  S    
C198  C199  S    
C248  H232  S    
C78   C142  A    
C185  H67   S    
C172  H172  S    
C221  H151  S    
C206  H116  S    
C218  H144  S    
C242  H217  S    
C249  H233  S    
C133  O5    S    
C68   C132  A    
C257  H252  S    
C26   N26   A    
C235  H200  S    
C102  H38   S    
O15   C219  S    
C215  H139  S    
C24   C128  A    
C164  H164  S    
C121  C160  S    
C209  H124  S    
C122  C159  S    
C30   N30   A    
N20   Ni8   S    
C124  C153  S    
N25   Ni6   S    
C125  C156  S    
C139  O11   S    
C126  C155  S    
C18   N18   A    
C119  C150  S    
C253  H243  S    
C256  H249  S    
C202  H108  S    
C178  H51   S    
C260  H259  S    
C113  C152  S    
O20   C234  S    
C114  C151  S    
C4    H4    S    
C53   C70   A    
C5    H5    S    
C152  C168  A    
C27   C122  A    
C237  H206  S    
C228  H185  S    
C10   N10   A    
C258  H254  S    
C68   C84   A    
N15   Ni4   S    
C185  H69   S    
C241  H215  S    
C272  H288  S    
C134  O6    S    
C14   N14   A    
C35   C83   A    
C49   C105  A    
C209  H125  S    
C34   C162  A    
C80   C96   A    
C186  H70   S    
C28   N28   A    
C79   C95   A    
C250  H235  S    
C212  H131  S    
C271  H285  S    
O3    C183  S    
C235  C236  S    
C56   C71   A    
C32   N32   A    
C270  H283  S    
C111  H47   S    
C233  H196  S    
C127  C158  S    
C132  O4    S    
C147  C163  A    
C239  H211  S    
C71   C87   A    
C63   C103  A    
C232  H194  S    
C38   C86   A    
C117  C148  S    
N13   Ni1   S    
C234  C235  S    
C252  C253  S    
C21   C125  A    
C110  H46   S    
C3    N3    A    
C129  O1    S    
O26   C252  S    
C23   C127  A    
C1    N1    A    
C20   N20   A    
N3    N10   A    
C189  H77   S    
C217  H142  S    
C22   H22   S    
C229  H187  S    
C196  C197  S    
C65   C129  A    
C266  H273  S    
C39   C103  A    
C211  H128  S    
C69   C133  A    
N7    Ni4   S    
C60   C75   A    
C136  O8    S    
C236  H203  S    
C240  C241  S    
C217  H143  S    
O12   C210  S    
C73   C89   A    
C194  H88   S    
C3    C115  A    
C16   C117  A    
O6    C192  S    
C230  H190  S    
C261  C262  S    
C190  H79   S    
C54   C69   A    
C135  C151  A    
C77   C93   A    
C265  H270  S    
C34   C98   A    
C4    N4    A    
C72   C136  A    
C173  H173  S    
C108  H44   S    
O14   C216  S    
C171  H171  S    
C188  H74   S    
C178  C179  S    
C153  C169  A    
C268  H277  S    
C50   C106  A    
C169  H169  S    
C13   C120  A    
O13   C213  S    
C157  C173  A    
C189  C190  S    
C134  C150  A    
N10   Ni1   S    
C131  O3    S    
C198  H98   S    
C19   H19   S    
C141  O13   S    
C182  H61   S    
C224  H158  S    
C59   C99   A    
C17   H17   S    
C270  H282  S    
O7    C195  S    
C211  C212  S    
C203  H110  S    
C262  H263  S    
C57   O25   S    
C242  H216  S    
C192  H85   S    
O5    C189  S    
N20   N25   A    
C83   C92   A    
C98   H34   S    
C187  C188  S    
C238  H207  S    
C225  H178  S    
C11   H11   S    
C37   C85   A    
C26   H26   S    
C208  H122  S    
C195  H92   S    
C236  H202  S    
C250  C251  S    
C9    H9    S    
C204  H113  S    
C71   C135  A    
C22   C126  A    
C66   C82   A    
C244  H221  S    
C12   H12   S    
C23   H23   S    
C13   H13   S    
C240  H212  S    
C11   C114  A    
C3    H3    S    
O16   C222  S    
C16   H16   S    
C226  H180  S    
C1    H1    S    
C206  H117  S    
C225  C226  S    
C234  H198  S    
C216  H141  S    
C167  H167  S    
O1    C177  S    
N23   Ni8   S    
C168  H168  S    
N3    Ni3   S    
N24   Ni7   S    
C8    H8    S    
C64   O32   S    
O28   C258  S    
C60   O28   S    
C200  H103  S    
C159  C175  A    
C160  C176  A    
C213  C214  S    
N17   N28   A    
C54   O22   S    
C223  C224  S    
C35   C99   A    
N21   Ni6   S    
C181  C182  S    
C214  H136  S    
C252  H241  S    
C254  H245  S    
C44   C108  A    
C38   C166  A    
N21   N32   A    
C36   C164  A    
C256  H250  S    
C132  C148  A    
C184  C185  S    
C133  C149  A    
C36   C100  A    
C144  O16   S    
C220  H149  S    
C227  H183  S    
C261  H261  S    
C190  C191  S    
C43   C107  A    
C188  H75   S    
C62   O30   S    
C100  H36   S    
C265  C266  S    
O29   C261  S    
N2    N11   A    
C5    C117  A    
C258  H255  S    
C32   C125  A    
N26   Ni5   S    
C40   C104  A    
C85   C94   A    
O31   C267  S    
C61   C78   A    
C246  H226  S    
C188  H76   S    
C87   C96   A    
O25   C249  S    
C218  H146  S    
O2    C180  S    
N5    N16   A    
C186  H71   S    
N30   Ni6   S    
C76   C92   A    
C179  H54   S    
C251  H237  S    
C18   C122  A    
C201  H106  S    
C180  H57   S    
C5    N5    A    
C24   N24   A    
C264  H269  S    
C70   C86   A    
C262  C263  S    
C207  H119  S    
C8    C120  A    
C239  H210  S    
C12   C113  A    
C17   C121  A    
C12   N12   A    
C187  H72   S    
C238  C239  S    
C135  O7    S    
C106  H42   S    
C67   C131  A    
C55   C72   A    
C194  H90   S    
C165  H165  S    
C201  C202  S    
C34   C82   A    
C247  H229  S    
C254  H246  S    
C183  H63   S    
C46   C110  A    
C140  O12   S    
N1    Ni1   S    
C38   C102  A    
C185  H68   S    
C8    N8    A    
C30   H30   S    
C199  H100  S    
C221  H152  S    
C36   C84   A    
C7    N7    A    
C267  H275  S    
C260  H260  S    
C56   C112  A    
N14   Ni2   S    
C268  C269  S    
C249  H234  S    
C51   C68   A    
C39   C167  A    
C25   C124  A    
C49   O17   S    
C40   C168  A    
C271  C272  S    
C177  H49   S    
C155  C171  A    
C248  H231  S    
C55   O23   S    
C243  H219  S    
C52   C108  A    
C247  C248  S    
C197  H95   S    
C26   C123  A    
C29   C128  A    
C47   C95   A    
C213  H133  S    
C31   C126  A    
C62   C102  A    
O21   C237  S    
C33   C81   A    
C6    C118  A    
C10   C115  A    
C58   C73   A    
C66   C130  A    
C221  H153  S    
