data_mof_unit_48753.cif
_audit_creation_date              2012-12-10T18:45:09-0500
_audit_creation_method            fapswitch 2.2
_symmetry_space_group_name_H-M    P1
_symmetry_Int_Tables_number       1
_space_group_crystal_system       triclinic
_cell_length_a                    10.681698
_cell_length_b                    9.840148
_cell_length_c                    10.644695
_cell_angle_alpha                 92.114749
_cell_angle_beta                  91.318985
_cell_angle_gamma                 89.850932
_cell_volume                      1117.79845735

loop_
_atom_site_label
_atom_site_type_symbol
_atom_type_description
_atom_site_fract_x
_atom_site_fract_y
_atom_site_fract_z
_atom_type_partial_charge
C1    C     C_R   0.260605 0.500609 0.508643 0.878169
C2    C     C_R   0.510104 0.503509 0.740731 0.904943
C3    C     C_R   0.328068 0.679346 0.106746 -0.089230
C4    C     C_R   0.478610 0.763939 0.908695 -0.094787
C5    C     C_R   0.313714 0.812680 0.061791 -0.132010
C6    C     C_R   0.391540 0.856506 0.964752 -0.167330
C7    C     C_R   0.478724 0.626721 0.946211 0.000006
C8    C     C_R   0.428551 0.598910 0.061410 -0.006610
C9    C     C_R   0.482529 0.490197 0.125768 -0.028807
C10   C     C_R   0.524922 0.512573 0.875426 -0.038235
C11   C     C_R   0.548648 0.387500 0.062402 -0.205543
C12   C     C_R   0.740064 0.499980 0.506102 0.921266
C13   C     C_R   0.561437 0.394151 0.935023 -0.136313
C14   C     C_R   0.068330 0.403657 0.594285 -0.094256
C15   C     C_R   0.937002 0.402624 0.591880 -0.034706
C16   C     C_R   0.872907 0.501101 0.521025 -0.082545
C17   C     C_R   0.128691 0.503120 0.525022 -0.136282
C18   C     C_2   0.223155 0.611257 0.172266 0.907248
C19   C     C_2   0.588586 0.814200 0.838338 0.967236
C20   C     C_2   0.222549 0.908498 0.120939 1.049491
C21   C     C_2   0.377939 0.997585 0.921543 1.024663
C22   C     C_2   0.143328 0.313776 0.677703 0.414663
C23   C     C_R   0.935647 0.605246 0.464213 -0.182432
C24   C     C_2   0.867612 0.307750 0.670002 0.487224
C25   C     C_R   0.062961 0.607478 0.468188 -0.134155
C26   C     C_R   0.606828 0.070635 0.476183 -0.041720
C27   C     C_R   0.393021 0.072975 0.522802 0.044680
C28   C     C_R   0.606777 0.926902 0.475955 -0.024706
C29   C     C_R   0.393051 0.929308 0.523115 0.062052
C30   C     C_R   0.492895 0.497268 0.259653 0.947424
H1    H     H_    0.588237 0.301754 0.110666 0.194207
H2    H     H_    0.766142 0.779770 0.783498 0.352134
H3    H     H_    0.155907 0.993411 0.281484 0.340868
H4    H     H_    0.367969 0.197091 0.968767 0.355500
H5    H     H_    0.231496 0.349897 0.719042 0.083387
H6    H     H_    0.884217 0.199106 0.661861 0.113991
H7    H     H_    0.599886 0.307312 0.883585 0.225310
H8    H     H_    0.886214 0.683154 0.413257 0.170644
H9    H     H_    0.110240 0.688513 0.422320 0.208747
H10   H     H_    0.692421 0.123593 0.456955 0.124127
H11   H     H_    0.307285 0.127707 0.541073 0.158093
H12   H     H_    0.692337 0.871966 0.456553 0.130082
H13   H     H_    0.307407 0.876359 0.542181 0.146393
H14   H     H_    0.153788 0.439215 0.242013 0.350277
N1    N     N_R   0.500000 0.857200 0.500000 -0.097032
N2    N     N_R   0.500000 0.142810 0.500000 -0.097490
O1    O     O_R   0.316770 0.614620 0.499990 -0.629338
O2    O     O_R   0.233097 0.475088 0.204639 -0.809779
O3    O     O_2   0.584900 0.922515 0.785853 -0.626867
O4    O     O_R   0.698667 0.736776 0.834378 -0.772651
O5    O     O_2   0.148454 0.971372 0.055650 -0.579328
O6    O     O_R   0.221735 0.925855 0.251909 -0.810220
O7    O     O_2   0.351042 0.017188 0.811467 -0.589807
O8    O     O_R   0.388844 0.107352 0.008115 -0.797551
O9    O     O_2   0.110016 0.198543 0.699002 -0.565730
O10   O     O_2   0.791471 0.351428 0.745047 -0.575997
O11   O     O_R   0.683230 0.614620 0.500010 -0.633939
O12   O     O_R   0.316800 0.385290 0.500000 -0.628950
O13   O     O_R   0.683200 0.385290 0.500000 -0.631445
O14   O     O_R   0.500010 0.614690 0.316770 -0.622256
O15   O     O_R   0.499990 0.614690 0.683230 -0.624735
O16   O     O_R   0.500040 0.385360 0.316770 -0.600004
O17   O     O_R   0.499960 0.385360 0.683230 -0.607627
O18   O     O_2   0.123168 0.669571 0.187269 -0.625911
Zn1   Zn    Zn3+2 0.500000 0.653120 0.500000 0.990933
Zn2   Zn    Zn3+2 0.500000 0.346880 0.500000 1.002569

loop_
_geom_bond_atom_site_label_1
_geom_bond_atom_site_label_2
_ccdc_geom_bond_type
C7    C10   A    
H14   O2    S    
N2    Zn2   S    
C22   O9    D    
C18   O2    S    
C24   O10   D    
C23   H8    S    
C11   C13   A    
C27   H11   S    
C13   H7    S    
C19   O4    S    
C2    O15   A    
H2    O4    S    
C17   C25   A    
C14   C22   S    
C23   C25   A    
O17   Zn2   S    
C11   H1    S    
C7    C8    A    
C20   O6    S    
C5    C20   S    
C1    O12   A    
C25   H9    S    
H3    O6    S    
C21   O7    D    
C22   H5    S    
C9    C11   A    
C14   C17   A    
C26   H10   S    
C24   H6    S    
C9    C30   S    
C4    C7    A    
C5    C6    A    
C12   O11   A    
C27   N2    A    
C28   H12   S    
C15   C24   S    
C12   O13   A    
O1    Zn1   S    
O14   Zn1   S    
H4    O8    S    
C16   C23   A    
C6    C21   S    
C30   O16   A    
O13   Zn2   S    
N1    Zn1   S    
C21   O8    S    
C28   N1    A    
C29   N1    A    
C27   C29   A    
C26   N2    A    
C15   C16   A    
C18   O18   D    
O15   Zn1   S    
C2    O17   A    
C3    C18   S    
C4    C6    A    
C3    C8    A    
O11   Zn1   S    
O16   Zn2   S    
C20   O5    D    
C1    O1    A    
C19   O3    D    
C14   C15   A    
C4    C19   S    
C26   C28   A    
O12   Zn2   S    
C1    C17   S    
C29   H13   S    
C12   C16   S    
C30   O14   A    
C8    C9    A    
C3    C5    A    
C10   C13   A    
C2    C10   S    
