data_mof_unit_60408.cif
_audit_creation_date              2013-03-05T16:41:23-0500
_audit_creation_method            fapswitch 2.2
_symmetry_space_group_name_H-M    P1
_symmetry_Int_Tables_number       1
_space_group_crystal_system       triclinic
_cell_length_a                    17.834332
_cell_length_b                    16.585809
_cell_length_c                    11.701935
_cell_angle_alpha                 89.999809
_cell_angle_beta                  92.548518
_cell_angle_gamma                 89.99734
_cell_volume                      3457.97163204

loop_
_atom_site_label
_atom_site_type_symbol
_atom_site_description
_atom_site_fract_x
_atom_site_fract_y
_atom_site_fract_z
_atom_type_partial_charge
O1    O     O_R   0.391260 0.567930 0.500000 -0.530601
O2    O     O_R   0.608740 0.432070 0.500000 -0.530582
O3    O     O_R   0.608740 0.567930 0.500000 -0.530622
O4    O     O_R   0.391260 0.432070 0.500000 -0.530553
C1    C     C_R   0.355519 0.500002 0.507243 0.894539
C2    C     C_R   0.644481 0.499998 0.492752 0.894516
O5    O     O_R   0.500010 0.567910 0.337200 -0.549779
O6    O     O_R   0.499990 0.432090 0.662800 -0.549820
O7    O     O_R   0.499990 0.567910 0.662800 -0.549809
O8    O     O_R   0.500010 0.432090 0.337200 -0.549851
C3    C     C_R   0.499776 0.500000 0.283787 0.835945
C4    C     C_R   0.500224 0.500000 0.716213 0.835930
Cu1   Cu    Cu3+1 0.500000 0.580420 0.500000 1.135726
Cu2   Cu    Cu3+1 0.500000 0.419580 0.500000 1.135685
C5    C     C_R   0.535374 0.829791 0.589870 0.157916
C6    C     C_R   0.464785 0.170187 0.410017 0.157817
C7    C     C_R   0.464642 0.829802 0.410147 0.157902
C8    C     C_R   0.535216 0.170188 0.589991 0.157808
C9    C     C_R   0.534967 0.744047 0.588698 0.393059
C10   C     C_R   0.465176 0.255933 0.411182 0.392953
C11   C     C_R   0.465044 0.744060 0.411300 0.393078
C12   C     C_R   0.534822 0.255933 0.588822 0.392992
N1    N     N_R   0.500000 0.701220 0.500000 -0.307207
N2    N     N_R   0.500000 0.298780 0.500000 -0.307061
C13   C     C_1   0.500007 0.962981 0.500011 0.227140
C14   C     C_1   0.500006 0.037005 0.500009 0.227158
C15   C     C_1   0.499837 0.500000 0.162234 -0.020561
C16   C     C_1   0.500162 0.500000 0.837766 -0.020519
C17   C     C_1   0.499931 0.500000 0.059832 0.110978
C18   C     C_1   0.500068 0.500000 0.940168 0.110991
C19   C     C_R   0.500007 0.873637 0.500012 -0.196120
C20   C     C_R   0.500004 0.126349 0.500004 -0.196072
C21   C     C_R   0.846990 0.573563 0.489280 0.229592
C22   C     C_R   0.152906 0.426657 0.510121 0.229603
C23   C     C_R   0.152999 0.573575 0.510605 0.229579
C24   C     C_R   0.847101 0.426646 0.489888 0.229593
C25   C     C_R   0.768132 0.573947 0.478456 0.227287
C26   C     C_R   0.231766 0.426127 0.520930 0.227033
C27   C     C_R   0.231857 0.573962 0.521445 0.227266
C28   C     C_R   0.768240 0.426111 0.479101 0.227017
C29   C     C_R   0.727670 0.500009 0.481544 -0.336642
C30   C     C_R   0.272328 0.500022 0.518433 -0.336641
C31   C     C_R   0.885833 0.500148 0.497244 -0.214399
C32   C     C_R   0.114165 0.500155 0.502695 -0.214393
C33   C     C_1   0.966369 0.500207 0.499443 0.209576
C34   C     C_1   0.033629 0.500209 0.500489 0.209579
N3    N     N_R   0.571724 0.871812 0.683921 0.178319
O9    O     O_R   0.642086 0.858244 0.711354 -0.182985
O10   O     O_R   0.532322 0.916349 0.750210 -0.204729
N4    N     N_R   0.428586 0.128151 0.315850 0.178395
O11   O     O_R   0.358253 0.141690 0.288176 -0.182954
O12   O     O_R   0.468102 0.083605 0.249730 -0.204783
N5    N     N_R   0.428291 0.871837 0.316108 0.178301
O13   O     O_R   0.357893 0.858386 0.288814 -0.183039
O14   O     O_R   0.467720 0.916231 0.249674 -0.204568
N6    N     N_R   0.571392 0.128153 0.684180 0.178375
O15   O     O_R   0.641728 0.141662 0.711859 -0.182976
O16   O     O_R   0.531841 0.083698 0.750364 -0.204677
N7    N     N_R   0.568604 0.703140 0.685600 0.173017
O17   O     O_R   0.541736 0.713975 0.786053 -0.260151
O18   O     O_R   0.633385 0.668167 0.678300 -0.268101
N8    N     N_R   0.431667 0.296812 0.314155 0.173055
O19   O     O_R   0.458562 0.285826 0.213753 -0.260034
O20   O     O_R   0.367014 0.332078 0.321346 -0.268178
N9    N     N_R   0.431421 0.703170 0.314374 0.173012
O21   O     O_R   0.458261 0.714069 0.213917 -0.260058
O22   O     O_R   0.366682 0.668113 0.321677 -0.268160
N10   N     N_R   0.568317 0.296810 0.685857 0.173057
O23   O     O_R   0.541385 0.285856 0.786240 -0.260045
O24   O     O_R   0.632980 0.332052 0.678698 -0.268150
N11   N     N_R   0.887916 0.648095 0.488085 0.185292
O25   O     O_R   0.880154 0.696744 0.401137 -0.187909
O26   O     O_R   0.933244 0.667303 0.573955 -0.224122
N12   N     N_R   0.111876 0.352175 0.510779 0.185409
O27   O     O_R   0.119676 0.303139 0.597282 -0.187507
O28   O     O_R   0.066404 0.333403 0.424880 -0.224671
N13   N     N_R   0.112062 0.648107 0.511722 0.185289
O29   O     O_R   0.119851 0.696824 0.598589 -0.187876
O30   O     O_R   0.066705 0.667253 0.425857 -0.224161
N14   N     N_R   0.888141 0.352163 0.489293 0.185404
O31   O     O_R   0.880293 0.303053 0.402882 -0.187476
O32   O     O_R   0.933656 0.333454 0.575170 -0.224713
N15   N     N_R   0.730146 0.649502 0.459449 0.182853
O33   O     O_R   0.744559 0.710481 0.526871 -0.202103
O34   O     O_R   0.690904 0.661182 0.364454 -0.286554
N16   N     N_R   0.269647 0.350443 0.539277 0.182919
O35   O     O_R   0.255139 0.289778 0.471320 -0.201897
O36   O     O_R   0.308776 0.338266 0.634247 -0.286255
N17   N     N_R   0.269833 0.649527 0.540380 0.182871
O37   O     O_R   0.255424 0.710469 0.472884 -0.202061
O38   O     O_R   0.309051 0.661261 0.635382 -0.286512
N18   N     N_R   0.730365 0.350420 0.460838 0.182926
O39   O     O_R   0.744888 0.289788 0.528853 -0.201865
O40   O     O_R   0.691242 0.338191 0.365878 -0.286249

loop_
_geom_bond_atom_site_label_1
_geom_bond_atom_site_label_2
_geom_bond_distance
_ccdc_geom_bond_type
C13   C19   1.481838 S    
C1    C30   1.495203 S    
C14   C20   1.481847 S    
C15   C17   1.198369 T    
C9    N1    1.383203 A    
C5    N3    1.433145 S    
O3    C2    1.299114 A    
N3    O10   1.299846 A    
N13   O29   1.301123 A    
C5    C9    1.422209 A    
N8    O19   1.301450 A    
N12   O28   1.300964 A    
C26   N16   1.437086 S    
O1    C1    1.299104 A    
C6    C10   1.422247 A    
C6    N4    1.433150 S    
C26   C30   1.424168 A    
N16   O36   1.301472 A    
N6    O15   1.300970 A    
Cu1   N1    2.003564 S    
Cu2   N2    2.003564 S    
O7    Cu1   1.916348 S    
N8    O20   1.298946 A    
N15   O33   1.301331 A    
N10   O23   1.301444 A    
N9    O22   1.298950 A    
C2    C29   1.495205 S    
N4    O12   1.299855 A    
N17   O38   1.301472 A    
O3    Cu1   1.950329 S    
C8    N6    1.433136 S    
N13   O30   1.300955 A    
N7    O17   1.301438 A    
C22   C26   1.406508 A    
Cu1   Cu2   2.667663 S    
C25   C29   1.424179 A    
O2    C2    1.299109 A    
C32   C34   1.435388 S    
O5    C3    1.288060 A    
C27   C30   1.424188 A    
N5    O14   1.299862 A    
N7    O18   1.298951 A    
N12   O27   1.301125 A    
C21   C31   1.401933 A    
C10   N2    1.383336 A    
C24   C28   1.406521 A    
C22   C32   1.401981 A    
N14   O32   1.300959 A    
C24   N14   1.436057 S    
N11   O26   1.300959 A    
N16   O35   1.301334 A    
N14   O31   1.301128 A    
C9    N7    1.430211 S    
C13   C14   1.227746 T    
C33   C34   1.199061 T    
C23   N13   1.435991 S    
C21   C25   1.406473 A    
C23   C27   1.406486 A    
C10   N8    1.430242 S    
C17   C18   1.400417 S    
N3    O9    1.300966 A    
C3    C15   1.422463 S    
O6    C4    1.288060 A    
N18   O40   1.301474 A    
N4    O11   1.300970 A    
C28   N18   1.437084 S    
C5    C19   1.404760 A    
C23   C32   1.401942 A    
C31   C33   1.435389 S    
C12   N10   1.430229 S    
C22   N12   1.436031 S    
C28   C29   1.424182 A    
N15   O34   1.301469 A    
C4    C16   1.422465 S    
C11   N1    1.383210 A    
O8    Cu2   1.916348 S    
C7    C19   1.404735 A    
C12   N2    1.383325 A    
O1    Cu1   1.950348 S    
C7    N5    1.433106 S    
O6    Cu2   1.916349 S    
C11   N9    1.430232 S    
C8    C12   1.422225 A    
O4    C1    1.299118 A    
N5    O13   1.300951 A    
C6    C20   1.404696 A    
C16   C18   1.198369 T    
N11   O25   1.301122 A    
N18   O39   1.301333 A    
N6    O16   1.299854 A    
O4    Cu2   1.950329 S    
O2    Cu2   1.950348 S    
O7    C4    1.288058 A    
C7    C11   1.422189 A    
O8    C3    1.288060 A    
C21   N11   1.435973 S    
O5    Cu1   1.916349 S    
C8    C20   1.404683 A    
N10   O24   1.298944 A    
N9    O21   1.301441 A    
C25   N15   1.437115 S    
C24   C31   1.401988 A    
N17   O37   1.301331 A    
C27   N17   1.437111 S    
