data_mof_unit_68237.cif
_audit_creation_date              2013-03-05T16:10:12-0500
_audit_creation_method            fapswitch 2.2
_symmetry_space_group_name_H-M    P1
_symmetry_Int_Tables_number       1
_space_group_crystal_system       triclinic
_cell_length_a                    14.599603
_cell_length_b                    7.342452
_cell_length_c                    13.812478
_cell_angle_alpha                 89.99993
_cell_angle_beta                  100.675532
_cell_angle_gamma                 90.000199
_cell_volume                      1455.02742851

loop_
_atom_site_label
_atom_site_type_symbol
_atom_site_description
_atom_site_fract_x
_atom_site_fract_y
_atom_site_fract_z
_atom_type_partial_charge
O1    O     O_R   0.648180 0.355050 0.151550 -0.588221
O2    O     O_R   0.351820 0.644950 0.848450 -0.589344
O3    O     O_R   0.851820 0.855050 0.348450 -0.588175
O4    O     O_R   0.148180 0.144950 0.651550 -0.589348
O5    O     O_R   0.835240 0.681980 0.154280 -0.593204
O6    O     O_R   0.164760 0.318020 0.845720 -0.584345
O7    O     O_R   0.664760 0.181980 0.345720 -0.593188
O8    O     O_R   0.335240 0.818020 0.654280 -0.584355
C1    C     C_R   0.865736 0.515879 0.135233 0.945852
C2    C     C_R   0.138471 0.484590 0.868846 0.947423
C3    C     C_R   0.634261 0.015876 0.364765 0.945951
C4    C     C_R   0.361528 0.984590 0.631154 0.947437
O9    O     O_R   0.647870 0.684600 0.139630 -0.591775
O10   O     O_R   0.352130 0.315400 0.860370 -0.593884
O11   O     O_R   0.852130 0.184600 0.360370 -0.591811
O12   O     O_R   0.147870 0.815400 0.639630 -0.593892
O13   O     O_R   0.663110 0.857440 0.333700 -0.600613
O14   O     O_R   0.336890 0.142560 0.666300 -0.604132
O15   O     O_R   0.836890 0.357440 0.166300 -0.600609
O16   O     O_R   0.163110 0.642560 0.833700 -0.604133
C5    C     C_R   0.615706 0.515999 0.112845 0.946392
C6    C     C_R   0.383367 0.484226 0.888187 0.934922
C7    C     C_R   0.884294 0.015998 0.387156 0.946349
C8    C     C_R   0.116632 0.984225 0.611814 0.934922
O17   O     O_3   0.755220 0.522230 0.313690 -0.299093
O18   O     O_3   0.244780 0.477770 0.686310 -0.305123
O19   O     O_3   0.744780 0.022230 0.186310 -0.299103
O20   O     O_3   0.255220 0.977770 0.813690 -0.305110
V1    V     V_3+5 0.749030 0.796100 0.238190 1.100421
V2    V     V_3+5 0.250970 0.203900 0.761810 1.096675
V3    V     V_3+5 0.750970 0.296100 0.261810 1.100404
V4    V     V_3+5 0.249030 0.703900 0.738190 1.096666
C9    C     C_1   0.966525 0.005735 0.466076 -0.282586
C10   C     C_1   0.035492 0.995128 0.531594 -0.287096
C11   C     C_1   0.533474 0.505736 0.033926 -0.282653
C12   C     C_1   0.464506 0.495129 0.968408 -0.287070
C13   C     C_R   0.565069 0.990658 0.706169 -0.049433
C14   C     C_R   0.426707 0.972693 0.288100 -0.027379
C15   C     C_R   0.934930 0.490663 0.793831 -0.049421
C16   C     C_R   0.073292 0.472801 0.211907 -0.027435
C17   C     C_R   0.659901 0.950406 0.741146 0.534315
C18   C     C_R   0.330030 0.944491 0.254126 0.484887
C19   C     C_R   0.840097 0.450410 0.758854 0.534312
C20   C     C_R   0.169968 0.444584 0.245882 0.484929
C21   C     C_R   0.721825 0.937766 0.674761 0.407697
C22   C     C_R   0.268171 0.940587 0.321145 0.404811
C23   C     C_R   0.778173 0.437763 0.825239 0.407686
C24   C     C_R   0.231820 0.440603 0.178855 0.404838
C25   C     C_R   0.689034 0.967182 0.574034 -0.437710
C26   C     C_R   0.302760 0.968870 0.421101 -0.382470
C27   C     C_R   0.810964 0.467176 0.925966 -0.437691
C28   C     C_R   0.197232 0.468860 0.078899 -0.382425
C29   C     C_R   0.593422 0.993599 0.535305 0.061751
C30   C     C_R   0.399228 0.989608 0.458942 0.028997
C31   C     C_R   0.906576 0.493602 0.964695 0.061728
C32   C     C_R   0.100768 0.489627 0.041059 0.028962
C33   C     C_R   0.529113 0.997630 0.601962 -0.068371
C34   C     C_R   0.463587 0.992379 0.391863 -0.050813
C35   C     C_R   0.970885 0.497634 0.898038 -0.068372
C36   C     C_R   0.036411 0.492436 0.108140 -0.050650
C37   C     C_R   0.562216 0.003943 0.430987 -0.178276
C38   C     C_R   0.431133 0.996118 0.563174 -0.169091
C39   C     C_R   0.937782 0.503962 0.069014 -0.178230
C40   C     C_R   0.068865 0.496120 0.936826 -0.169105
H1    H     H_    0.738497 0.951132 0.525356 0.139663
H2    H     H_    0.252986 0.957970 0.469828 0.139347
H3    H     H_    0.761501 0.451123 0.974644 0.139669
H4    H     H_    0.247003 0.457910 0.030171 0.139365
O21   O     O_3   0.685725 0.898369 0.839118 -0.663925
C41   C     C_3   0.773209 0.965039 0.885608 0.230078
H5    H     H_    0.794361 0.089073 0.850659 0.145725
H6    H     H_    0.826240 0.856439 0.887244 0.163307
C42   C     C_3   0.768606 0.011064 0.990548 -0.778166
H7    H     H_    0.742462 0.889615 0.024448 0.283683
H8    H     H_    0.839042 0.048201 0.031338 0.215525
H9    H     H_    0.720009 0.126595 0.992932 0.242448
O22   O     O_3   0.303850 0.876419 0.159145 -0.663282
C43   C     C_3   0.220452 0.952298 0.108004 0.185653
H10   H     H_    0.207033 0.091190 0.132544 0.120489
H11   H     H_    0.162608 0.858206 0.112860 0.165964
C44   C     C_3   0.226174 0.966511 0.001265 -0.741970
H12   H     H_    0.250072 0.834041 0.976370 0.266863
H13   H     H_    0.156451 0.000670 0.957623 0.216564
H14   H     H_    0.276557 0.075094 0.991358 0.252263
O23   O     O_3   0.814274 0.398386 0.660879 -0.663924
C45   C     C_3   0.726786 0.465041 0.614393 0.230088
H15   H     H_    0.705633 0.589074 0.649342 0.145727
H16   H     H_    0.673760 0.356432 0.612761 0.163307
C46   C     C_3   0.731382 0.511064 0.509451 -0.778154
H17   H     H_    0.757527 0.389616 0.475550 0.283683
H18   H     H_    0.660944 0.548194 0.468664 0.215503
H19   H     H_    0.779977 0.626600 0.507061 0.242454
O24   O     O_3   0.196141 0.376534 0.340870 -0.663272
C47   C     C_3   0.279557 0.452383 0.392000 0.185662
H20   H     H_    0.292983 0.591270 0.367460 0.120437
H21   H     H_    0.337392 0.358265 0.387139 0.165901
C48   C     C_3   0.273847 0.466619 0.498742 -0.741815
H22   H     H_    0.249912 0.334166 0.523635 0.266861
H23   H     H_    0.343588 0.500710 0.542380 0.216535
H24   H     H_    0.223492 0.575269 0.508658 0.252248
N1    N     N_2   0.506958 0.038995 0.775109 -0.101625
H25   H     H_    0.487101 0.172849 0.774982 0.197903
C49   C     C_3   0.508759 0.944536 0.867186 -0.683478
H26   H     H_    0.439799 0.958723 0.888973 0.238849
H27   H     H_    0.561183 0.006936 0.926200 0.237481
H28   H     H_    0.522759 0.798063 0.859529 0.247697
N2    N     N_2   0.488057 0.943787 0.219877 -0.102456
H29   H     H_    0.512693 0.812868 0.220244 0.183336
C50   C     C_3   0.467865 0.022231 0.121833 -0.750254
H30   H     H_    0.533224 0.076075 0.102892 0.237390
H31   H     H_    0.416563 0.134752 0.116615 0.273124
H32   H     H_    0.440582 0.915462 0.067089 0.245560
N3    N     N_2   0.993041 0.539004 0.724892 -0.101625
H33   H     H_    0.012897 0.672859 0.725019 0.197903
C51   C     C_3   0.991243 0.444541 0.632817 -0.683468
H34   H     H_    0.060205 0.458724 0.611035 0.238849
H35   H     H_    0.938823 0.506941 0.573799 0.237484
H36   H     H_    0.977241 0.298069 0.640474 0.247692
N4    N     N_2   0.011945 0.443958 0.280141 -0.102510
H37   H     H_    0.987299 0.313050 0.279794 0.183347
C52   C     C_3   0.032154 0.522430 0.378180 -0.750319
H38   H     H_    0.966801 0.576289 0.397128 0.237418
H39   H     H_    0.083457 0.634946 0.383383 0.273166
H40   H     H_    0.059441 0.415672 0.432931 0.245578
O25   O     O_3   0.180686 0.861777 0.293014 -0.664949
C53   C     C_3   0.110418 0.995410 0.286866 0.213038
H41   H     H_    0.127045 0.115423 0.246672 0.113418
H42   H     H_    0.101428 0.037495 0.361383 0.146772
C54   C     C_3   0.018599 0.924669 0.227666 -0.898893
H43   H     H_    0.992221 0.810766 0.266091 0.286415
H44   H     H_    0.965120 0.033268 0.217221 0.214252
H45   H     H_    0.026180 0.878572 0.153352 0.237076
O26   O     O_3   0.808344 0.859208 0.707780 -0.669685
C55   C     C_3   0.882059 0.958280 0.680257 0.217628
H46   H     H_    0.860783 0.085135 0.638641 0.152791
H47   H     H_    0.914010 0.868563 0.631678 0.132210
C56   C     C_3   0.954626 0.004219 0.772067 -0.969472
H48   H     H_    0.021876 0.041138 0.752009 0.243682
H49   H     H_    0.932172 0.121736 0.811499 0.236575
H50   H     H_    0.966371 0.887557 0.823796 0.254111
O27   O     O_3   0.319289 0.361736 0.206980 -0.664932
C57   C     C_3   0.389579 0.495326 0.213138 0.213058
H51   H     H_    0.372997 0.615305 0.253380 0.113358
H52   H     H_    0.398551 0.537492 0.138630 0.146807
C58   C     C_3   0.481390 0.424456 0.272271 -0.899230
H53   H     H_    0.507826 0.310920 0.233654 0.286335
H54   H     H_    0.534831 0.533110 0.282975 0.214281
H55   H     H_    0.473765 0.377775 0.346450 0.237376
O28   O     O_3   0.691654 0.359203 0.792219 -0.669695
C59   C     C_3   0.617939 0.458271 0.819745 0.217629
H56   H     H_    0.639215 0.585126 0.861361 0.152796
H57   H     H_    0.585989 0.368552 0.868323 0.132206
C60   C     C_3   0.545371 0.504210 0.727935 -0.969461
H58   H     H_    0.478121 0.541120 0.747994 0.243679
H59   H     H_    0.567823 0.621733 0.688505 0.236578
H60   H     H_    0.533629 0.387550 0.676205 0.254110

loop_
_geom_bond_atom_site_label_1
_geom_bond_atom_site_label_2
_geom_bond_distance
_ccdc_geom_bond_type
O17   V3    1.804893 S    
O1    C5    1.346570 A    
C53   H41   1.092509 S    
C16   C36   1.441904 A    
C31   C35   1.431885 A    
O19   V1    1.804892 S    
O13   V1    2.032201 S    
C42   H7    1.107409 S    
C22   O25   1.390432 S    
O3    C7    1.346566 A    
C11   C12   1.225268 T    
O15   V3    2.032197 S    
C58   H55   1.105410 S    
C55   C56   1.531860 S    
C58   H53   1.097583 S    
C33   C38   1.431602 A    
O22   C43   1.404715 S    
O7    C3    1.341008 A    
C56   H49   1.102182 S    
C35   C40   1.431593 A    
N1    H25   1.024589 S    
C25   H1    1.080437 S    
C36   C39   1.443727 A    
O9    V1    1.989936 S    
C15   N3    1.432409 S    
C14   C18   1.417701 A    
C50   H31   1.108489 S    
C30   C34   1.436756 A    
O4    C8    1.346248 A    
C45   H16   1.108738 S    
C51   H34   1.107815 S    
C48   H22   1.109351 S    
O1    V3    1.977900 S    
O2    V4    1.977898 S    
C18   C22   1.408236 A    
C14   N2    1.431087 S    
O3    V1    1.977897 S    
C52   H40   1.110598 S    
C20   O24   1.389719 S    
C48   H23   1.111433 S    
C14   C34   1.441877 A    
C29   C37   1.430494 A    
C1    O15   1.334836 A    
C23   O28   1.386657 S    
C2    O16   1.332322 A    
C51   H35   1.108604 S    
C59   C60   1.531860 S    
C31   C39   1.430500 A    
O2    C6    1.346249 A    
N2    H29   1.026035 S    
C32   C40   1.429533 A    
C41   H5    1.101380 S    
O14   V2    2.032200 S    
C46   H18   1.111127 S    
C16   C20   1.417698 A    
C27   C31   1.412694 A    
C28   H4    1.081050 S    
C54   H45   1.105678 S    
C34   C37   1.443739 A    
O11   C7    1.351127 A    
N1    C49   1.444590 S    
N2    C50   1.450753 S    
C57   C58   1.526102 S    
C47   H20   1.103573 S    
O10   V2    1.989935 S    
C58   H54   1.106495 S    
C44   H12   1.109281 S    
O5    V1    2.042066 S    
N4    C52   1.450774 S    
C56   H50   1.108263 S    
O7    V3    2.042062 S    
C19   O23   1.389378 S    
N3    H33   1.024594 S    
C50   H30   1.108045 S    
C50   H32   1.110592 S    
C29   C33   1.431886 A    
C43   H10   1.103579 S    
C15   C19   1.410613 A    
C30   C38   1.429529 A    
C53   C54   1.526205 S    
C7    C9    1.466415 S    
O23   C45   1.406918 S    
C8    C10   1.466679 S    
C32   C36   1.436763 A    
C60   H60   1.108264 S    
O8    V4    2.042060 S    
O5    C1    1.340985 A    
C59   H57   1.103510 S    
C4    C38   1.508320 S    
C21   C25   1.401692 A    
O8    C4    1.338117 A    
C51   H36   1.103455 S    
C15   C35   1.438746 A    
C41   C42   1.501929 S    
C9    C10   1.225269 T    
O9    C5    1.351119 A    
C49   H27   1.108600 S    
O24   C47   1.404776 S    
C27   H3    1.080438 S    
C46   H19   1.110291 S    
C47   H21   1.102750 S    
C26   H2    1.081046 S    
C52   H38   1.108037 S    
O6    V2    2.042067 S    
O26   C55   1.408364 S    
C42   H9    1.110285 S    
C57   H52   1.105479 S    
C60   H59   1.102184 S    
C42   H8    1.111121 S    
C44   H14   1.110280 S    
C45   H15   1.101381 S    
C17   O21   1.389374 S    
C54   H43   1.097800 S    
O16   V4    2.032200 S    
C3    O13   1.334826 A    
C53   H42   1.105503 S    
C48   H24   1.110382 S    
C1    C39   1.518897 S    
C2    C40   1.508343 S    
C3    C37   1.518925 S    
C45   C46   1.501935 S    
C44   H13   1.111353 S    
C23   C27   1.401693 A    
N4    H37   1.026028 S    
O11   V3    1.989938 S    
C55   H46   1.108289 S    
C5    C11   1.466418 S    
O12   V4    1.989939 S    
C6    C12   1.466681 S    
C56   H48   1.102266 S    
C22   C26   1.394986 A    
C21   O26   1.386655 S    
C47   C48   1.495725 S    
O10   C6    1.351770 A    
O20   V2    1.804893 S    
C46   H17   1.107410 S    
C26   C30   1.416758 A    
O27   C57   1.410712 S    
C13   N1    1.432411 S    
C43   C44   1.495715 S    
O25   C53   1.410720 S    
C25   C29   1.412691 A    
C55   H47   1.103508 S    
C24   O27   1.390393 S    
C49   H28   1.103454 S    
C43   H11   1.102695 S    
C13   C17   1.410613 A    
O21   C41   1.406915 S    
O4    V2    1.977899 S    
C52   H39   1.108490 S    
O6    C2    1.338124 A    
C28   C32   1.416729 A    
C24   C28   1.394967 A    
C16   N4    1.431105 S    
C18   O22   1.389700 S    
O12   C8    1.351770 A    
C4    O14   1.332321 A    
C49   H26   1.107819 S    
C17   C21   1.404945 A    
C57   H51   1.092468 S    
C41   H6    1.108733 S    
N3    C51   1.444592 S    
C60   H58   1.102265 S    
O28   C59   1.408367 S    
C19   C23   1.404949 A    
O18   V4    1.804894 S    
C13   C33   1.438752 A    
C20   C24   1.408251 A    
C59   H56   1.108288 S    
C54   H44   1.106582 S    
