data_mof_unit_29358.cif
_audit_creation_date              2012-12-11T15:59:31-0500
_audit_creation_method            fapswitch 2.2
_symmetry_space_group_name_H-M    P1
_symmetry_Int_Tables_number       1
_space_group_crystal_system       triclinic
_cell_length_a                    10.732213
_cell_length_b                    10.724165
_cell_length_c                    17.114449
_cell_angle_alpha                 99.735194
_cell_angle_beta                  100.130497
_cell_angle_gamma                 60.330492
_cell_volume                      1677.07516001

loop_
_atom_site_label
_atom_site_type_symbol
_atom_type_description
_atom_site_fract_x
_atom_site_fract_y
_atom_site_fract_z
_atom_type_partial_charge
C1    C     C_R   0.356063 0.769162 0.397844 0.525737
C2    C     C_R   0.855680 0.203961 0.197045 0.032123
C3    C     C_R   0.865681 0.213251 0.280910 0.018709
C4    C     C_R   0.780683 0.471278 0.285005 -0.142097
C5    C     C_R   0.786750 0.459593 0.204746 -0.156467
C6    C     C_R   0.873911 0.072097 0.153671 -0.060543
C7    C     C_R   0.924305 0.948873 0.192406 -0.137196
C8    C     C_R   0.950638 0.955613 0.275096 -0.135828
C9    C     C_R   0.919969 0.086814 0.319321 -0.091273
C10   C     C_R   0.819910 0.349459 0.323967 0.004487
C11   C     C_R   0.356013 0.816097 0.157802 -0.000099
C12   C     C_R   0.398129 0.368192 0.353964 0.559799
C13   C     C_R   0.448416 0.849933 0.216977 0.017102
C14   C     C_R   0.433521 0.855972 0.298160 0.012597
C15   C     C_R   0.282478 0.740682 0.256857 -0.143428
C16   C     C_R   0.284017 0.750256 0.178083 -0.141529
C17   C     C_R   0.553696 0.879187 0.198120 -0.104428
C18   C     C_R   0.630270 0.927611 0.257454 -0.133337
C19   C     C_R   0.607555 0.944441 0.336687 -0.091401
C20   C     C_R   0.507636 0.912219 0.357120 -0.083987
C21   C     C_R   0.347830 0.801863 0.317608 0.010488
C22   C     C_R   0.298146 0.276072 0.799500 -0.046981
C23   C     C_R   0.774609 0.378053 0.402933 0.546968
C24   C     C_R   0.424106 0.174981 0.762551 0.023415
C25   C     C_R   0.475680 0.223701 0.711650 -0.003884
C26   C     C_R   0.246483 0.449898 0.709187 0.209975
C27   C     C_R   0.209954 0.411156 0.771346 -0.103451
C28   C     C_R   0.504864 0.028505 0.778426 -0.084390
C29   C     C_R   0.642996 0.940351 0.755678 -0.105153
C30   C     C_R   0.704070 0.997022 0.717207 -0.098973
C31   C     C_R   0.621829 0.137226 0.695650 -0.090396
C32   C     C_R   0.378508 0.354483 0.676755 -0.004882
C33   C     C_1   0.770724 0.368376 0.714658 -0.059605
C34   C     C_R   0.358284 0.768891 0.627616 0.548108
C35   C     C_1   0.815190 0.329620 0.780635 -0.043851
C36   C     C_1   0.339556 0.808894 0.709670 -0.023825
C37   C     C_1   0.313194 0.836651 0.777544 -0.024786
C38   C     C_R   0.891163 0.308861 0.087092 0.539999
C39   C     C_R   0.297222 0.268186 0.124458 0.572974
C40   C     C_R   0.298794 0.886951 0.084145 0.544827
C41   C     C_R   0.880030 0.300681 0.860249 0.547761
C42   C     C_R   0.278325 0.252287 0.877022 0.550744
C43   C     C_R   0.279119 0.884331 0.857255 0.546994
C44   C     C_R   0.406840 0.375291 0.600351 0.548119
C45   C     C_R   0.719426 0.411428 0.635560 0.533121
C46   C     C_1   0.354372 0.341950 0.273245 -0.036441
C47   C     C_1   0.324419 0.311724 0.205024 -0.032386
C48   C     C_R   0.830434 0.326350 0.160498 0.000658
Cr1   Cr    Cr6+3 0.608100 0.610860 0.522250 1.033196
Cr2   Cr    Cr6+3 0.288890 0.599990 0.488420 1.065824
Cr3   Cr    Cr6+3 0.603040 0.289190 0.489390 0.993453
Cr4   Cr    Cr6+3 0.053960 0.052250 0.967380 1.023360
Cr5   Cr    Cr6+3 0.059890 0.373160 0.992710 1.017018
Cr6   Cr    Cr6+3 0.373370 0.061690 0.991710 0.995744
H1    H     H_    0.741880 0.578356 0.316183 0.159764
H2    H     H_    0.705975 0.953833 0.241431 0.135349
H3    H     H_    0.668026 0.982053 0.382486 0.140558
H4    H     H_    0.489606 0.932001 0.419232 0.142891
H5    H     H_    0.463254 0.981581 0.809607 0.148849
H6    H     H_    0.113201 0.488612 0.798807 0.174337
H7    H     H_    0.704007 0.829673 0.770192 0.134541
H8    H     H_    0.813912 0.931598 0.702411 0.169790
H9    H     H_    0.674047 0.175749 0.665796 0.153311
H10   H     H_    0.845312 0.062731 0.090064 0.143093
H11   H     H_    0.763383 0.554517 0.177891 0.138701
H12   H     H_    0.940446 0.848304 0.158275 0.105444
H13   H     H_    0.988727 0.860191 0.305239 0.127022
H14   H     H_    0.940533 0.088056 0.383570 0.135369
H15   H     H_    0.227821 0.685833 0.269987 0.135171
H16   H     H_    0.583262 0.859353 0.138378 0.140638
H17   H     H_    0.220442 0.714761 0.133160 0.141312
O1    O     O_R   0.749810 0.499790 0.438040 -0.503741
O2    O     O_R   0.298970 0.468800 0.557390 -0.417311
O3    O     O_R   0.489400 0.255930 0.561910 -0.528997
O4    O     O_R   0.723890 0.306050 0.584610 -0.524111
O5    O     O_3   0.500010 0.500010 0.500020 -0.306146
O6    O     O_R   0.171100 0.914680 0.053100 -0.511867
O7    O     O_R   0.941680 0.184840 0.050710 -0.511788
O8    O     O_R   0.922080 0.403420 0.072610 -0.525213
O9    O     O_R   0.196880 0.369150 0.083850 -0.492277
O10   O     O_R   0.411730 0.181020 0.091530 -0.506127
O11   O     O_R   0.365010 0.944360 0.063320 -0.526410
O12   O     O_R   0.477660 0.726260 0.439290 -0.509417
O13   O     O_R   0.159380 0.906670 0.876210 -0.477096
O14   O     O_R   0.930820 0.177420 0.886730 -0.488874
O15   O     O_R   0.910360 0.395420 0.895720 -0.521507
O16   O     O_R   0.186010 0.361730 0.919870 -0.490578
O17   O     O_R   0.400000 0.173010 0.914630 -0.506772
O18   O     O_R   0.354140 0.936940 0.899340 -0.546778
O19   O     O_3   0.162410 0.162370 0.983930 -0.278665
O20   O     O_R   0.260150 0.743000 0.412270 -0.534390
O21   O     O_R   0.297740 0.466550 0.394720 -0.490165
O22   O     O_R   0.488080 0.253500 0.386430 -0.509617
O23   O     O_R   0.722670 0.303800 0.421940 -0.517160
O24   O     O_R   0.751130 0.502220 0.613520 -0.467170
O25   O     O_R   0.478890 0.728510 0.601960 -0.516437
O26   O     O_R   0.261470 0.745430 0.587750 -0.460882
Cl1   Cl    Cl    0.124488 0.623010 0.678741 -0.599322

loop_
_geom_bond_atom_site_label_1
_geom_bond_atom_site_label_2
_ccdc_geom_bond_type
C25   C31   A    
C1    C21   S    
C33   C45   S    
Cr4   O19   S    
C19   C20   A    
Cr3   O3    S    
C7    C8    A    
C19   H3    S    
C26   C32   A    
C41   O15   A    
C26   C27   A    
C43   O18   A    
C14   C21   A    
C28   C29   A    
Cr5   O8    S    
C34   O25   A    
Cr6   O19   S    
C27   H6    S    
C30   C31   A    
C38   O8    A    
C15   C16   A    
C34   O26   A    
C14   C20   A    
C18   C19   A    
C6    H10   S    
Cr4   O13   S    
C8    C9    A    
Cr1   O1    S    
Cr5   O15   S    
C38   C48   S    
C18   H2    S    
C25   C32   A    
C17   H16   S    
C1    O20   A    
C13   C14   A    
C43   O13   A    
C2    C6    A    
C16   H17   S    
Cr4   O7    S    
C15   H15   S    
C5    C48   A    
C29   H7    S    
C40   O11   A    
Cr5   O9    S    
C24   C25   A    
C39   O10   A    
Cr6   O18   S    
C12   C46   S    
Cr2   O2    S    
C38   O7    A    
C2    C48   A    
Cr1   O24   S    
C37   C43   S    
C29   C30   A    
C3    C9    A    
Cr2   O5    S    
C11   C16   A    
C17   C18   A    
C32   C44   S    
Cr1   O5    S    
Cr5   O16   S    
Cr3   O5    S    
C44   O3    A    
C26   Cl1   S    
C5    H11   S    
Cr3   O22   S    
C22   C27   A    
C30   H8    S    
C4    H1    S    
C22   C24   A    
C12   O22   A    
C42   O17   A    
C4    C10   A    
Cr4   O6    S    
C45   O24   A    
Cr6   O11   S    
C39   C47   S    
C28   H5    S    
Cr2   O21   S    
C44   O2    A    
C46   C47   T    
Cr4   O14   S    
Cr2   O26   S    
C23   O1    A    
C12   O21   A    
C24   C28   A    
Cr3   O4    S    
C4    C5    A    
C6    C7    A    
C10   C23   S    
C1    O12   A    
C31   H9    S    
C41   O14   A    
C23   O23   A    
C13   C17   A    
C45   O4    A    
C39   O9    A    
Cr1   O12   S    
C2    C3    A    
C9    H14   S    
C3    C10   A    
C7    H12   S    
Cr6   O17   S    
C11   C13   A    
C22   C42   S    
C33   C35   T    
C34   C36   S    
Cr1   O25   S    
C11   C40   S    
C35   C41   S    
Cr3   O23   S    
Cr2   O20   S    
C15   C21   A    
C8    H13   S    
C36   C37   T    
Cr5   O19   S    
C40   O6    A    
C42   O16   A    
C20   H4    S    
Cr6   O10   S    
