data_mof_unit_26985.cif
_audit_creation_date              2012-12-11T14:08:21-0500
_audit_creation_method            fapswitch 2.2
_symmetry_space_group_name_H-M    P1
_symmetry_Int_Tables_number       1
_space_group_crystal_system       triclinic
_cell_length_a                    10.912409
_cell_length_b                    10.96833
_cell_length_c                    18.818072
_cell_angle_alpha                 90.521952
_cell_angle_beta                  89.808678
_cell_angle_gamma                 59.864476
_cell_volume                      1947.76247177

loop_
_atom_site_label
_atom_site_type_symbol
_atom_type_description
_atom_site_fract_x
_atom_site_fract_y
_atom_site_fract_z
_atom_type_partial_charge
C1    C     C_R   0.236034 0.645730 0.608696 0.540365
C2    C     C_3   0.544458 0.668279 0.809778 -0.241509
C3    C     C_3   0.691429 0.656562 0.816602 0.061244
C4    C     C_3   0.648571 0.613726 0.684422 0.019159
C5    C     C_3   0.777398 0.478968 0.714962 -0.200147
C6    C     C_3   0.516374 0.649458 0.730834 -0.253529
C7    C     C_2   0.703290 0.113660 0.647991 0.164712
C8    C     C_2   0.676244 0.185527 0.837384 -0.049741
C9    C     C_2   0.727499 0.110021 0.778076 -0.130195
C10   C     C_2   0.676339 0.180383 0.710775 -0.111601
C11   C     C_2   0.176593 0.664585 0.680494 -0.108193
C12   C     C_R   0.627313 0.586881 0.609495 0.556541
C13   C     C_2   0.186817 0.663156 0.837494 -0.143549
C14   C     C_2   0.161999 0.576604 0.796900 -0.155861
C15   C     C_2   0.194257 0.554648 0.720435 0.093973
C16   C     C_2   0.649289 0.639474 0.315775 -0.088716
C17   C     C_2   0.635533 0.666811 0.159576 -0.138666
C18   C     C_2   0.713418 0.544976 0.192718 -0.135066
C19   C     C_2   0.719733 0.529204 0.269594 0.126159
C20   C     C_2   0.673978 0.135166 0.333311 -0.089802
C21   C     C_2   0.651919 0.144659 0.179230 -0.124856
C22   C     C_2   0.621888 0.064453 0.221324 -0.136502
C23   C     C_R   0.639986 0.205376 0.587871 0.549377
C24   C     C_2   0.595333 0.092653 0.297427 0.108291
C25   C     C_2   0.182376 0.663894 0.329719 -0.067378
C26   C     C_2   0.183823 0.643239 0.173693 0.150647
C27   C     C_2   0.230827 0.714096 0.213081 0.113404
C28   C     C_2   0.274947 0.668314 0.284433 -0.081034
C29   C     C_R   0.698143 0.110608 0.902165 0.563825
C30   C     C_R   0.720913 0.684314 0.889833 0.567877
C31   C     C_R   0.117655 0.706640 0.906919 0.543320
C32   C     C_R   0.675108 0.106065 0.105040 0.540698
C33   C     C_R   0.691483 0.688735 0.094196 0.554734
C34   C     C_R   0.220834 0.649857 0.402327 0.530247
C35   C     C_R   0.097343 0.706628 0.111610 0.571399
C36   C     C_R   0.639597 0.616629 0.391045 0.572184
C37   C     C_R   0.621212 0.222365 0.397162 0.560279
C38   C     C_3   0.695583 0.767751 0.767447 -0.259617
C39   C     C_3   0.678738 0.737290 0.689338 -0.229956
C40   C     C_3   0.809717 0.507318 0.789841 0.038470
Cr1   Cr    Cr6+3 0.393010 0.398050 0.501480 1.033573
Cr2   Cr    Cr6+3 0.398820 0.707980 0.501630 1.009060
Cr3   Cr    Cr6+3 0.708140 0.393940 0.496850 1.044861
Cr4   Cr    Cr6+3 0.937950 0.938450 0.008940 1.064722
Cr5   Cr    Cr6+3 0.626180 0.937030 0.994750 1.020727
Cr6   Cr    Cr6+3 0.937790 0.625760 0.001410 1.039233
H1    H     H_    0.797806 0.766270 0.773611 0.105885
H2    H     H_    0.490280 0.563828 0.726114 0.111169
H3    H     H_    0.754628 0.391169 0.714211 0.160157
H4    H     H_    0.796298 0.996451 0.780619 0.126151
H5    H     H_    0.606171 0.294442 0.712603 0.108884
H6    H     H_    0.598573 0.297557 0.836463 0.103495
H7    H     H_    0.111511 0.522166 0.819571 0.160517
H8    H     H_    0.239076 0.716923 0.815872 0.100732
H9    H     H_    0.609179 0.875691 0.782312 0.148971
H10   H     H_    0.135697 0.768237 0.704775 0.074743
H11   H     H_    0.793064 0.454204 0.162698 0.184158
H12   H     H_    0.550117 0.758404 0.185574 0.072905
H13   H     H_    0.580928 0.745578 0.297475 0.050341
H14   H     H_    0.609021 0.979998 0.198699 0.147013
H15   H     H_    0.667866 0.228554 0.199642 0.124068
H16   H     H_    0.768802 0.125434 0.308853 0.117515
H17   H     H_    0.591075 0.834272 0.665448 0.156775
H18   H     H_    0.373692 0.659431 0.302425 0.132926
H19   H     H_    0.079016 0.681776 0.314171 0.081502
H20   H     H_    0.777577 0.709404 0.659332 0.145904
H21   H     H_    0.912002 0.506554 0.787729 0.134899
H22   H     H_    0.875101 0.443873 0.682368 0.134001
H23   H     H_    0.540384 0.586444 0.842504 0.151437
H24   H     H_    0.459805 0.772901 0.829834 0.125554
H25   H     H_    0.422990 0.748134 0.711948 0.141919
O1    O     O_R   0.507110 0.256280 0.580300 -0.511707
O2    O     O_R   0.524640 0.695370 0.425100 -0.513459
O3    O     O_R   0.735890 0.504390 0.415980 -0.442704
O4    O     O_R   0.690560 0.277820 0.422350 -0.475843
O5    O     O_3   0.499990 0.499990 0.499980 -0.274467
O6    O     O_R   0.089190 0.825870 0.932320 -0.500219
O7    O     O_R   0.819070 0.053960 0.931440 -0.460485
O8    O     O_R   0.607070 0.076440 0.916460 -0.529372
O9    O     O_R   0.647110 0.806550 0.917690 -0.513836
O10   O     O_R   0.837080 0.593860 0.915300 -0.474994
O11   O     O_R   0.064770 0.636080 0.932550 -0.505885
O12   O     O_R   0.280830 0.527190 0.577940 -0.474287
O13   O     O_R   0.068250 0.829200 0.092940 -0.487486
O14   O     O_R   0.799650 0.057040 0.080330 -0.493092
O15   O     O_R   0.586130 0.079760 0.077080 -0.516729
O16   O     O_R   0.627700 0.809630 0.066580 -0.501514
O17   O     O_R   0.816140 0.597180 0.075920 -0.511501
O18   O     O_R   0.045360 0.639170 0.081440 -0.508310
O19   O     O_3   0.833980 0.833750 0.001700 -0.266589
O20   O     O_R   0.261360 0.738990 0.584270 -0.529893
O21   O     O_R   0.532590 0.694780 0.574370 -0.504514
O22   O     O_R   0.744470 0.503750 0.577000 -0.529104
O23   O     O_R   0.698520 0.277230 0.571620 -0.531164
O24   O     O_R   0.498530 0.256920 0.419280 -0.484916
O25   O     O_R   0.272880 0.527780 0.428680 -0.481625
O26   O     O_R   0.252780 0.739630 0.423250 -0.523100
Br1   Br    Br    0.845286 0.350326 0.851280 -0.571165
N1    N     N_2   0.794396 0.964299 0.639599 -0.554082
H26   H     H_    0.880336 0.919227 0.672876 0.245240
C41   C     C_3   0.826706 0.906868 0.567953 -0.309493
H27   H     H_    0.727567 0.933189 0.539450 0.151342
H28   H     H_    0.893614 0.790267 0.569805 0.141063
H29   H     H_    0.885804 0.949039 0.538687 0.151818
N2    N     N_2   0.233816 0.420471 0.688674 -0.469005
H30   H     H_    0.162689 0.423159 0.651853 0.255616
C42   C     C_3   0.294878 0.297045 0.733186 -0.284099
H31   H     H_    0.345081 0.200736 0.699061 0.157474
H32   H     H_    0.211173 0.295289 0.766148 0.142588
H33   H     H_    0.377783 0.295527 0.767866 0.159322
Br2   Br    Br    0.853504 0.337159 0.295635 -0.609047
N3    N     N_2   0.484040 0.081283 0.331699 -0.472497
H34   H     H_    0.514608 0.016856 0.375451 0.251470
C43   C     C_3   0.374495 0.080542 0.288809 -0.277823
H35   H     H_    0.286924 0.092583 0.323832 0.159398
H36   H     H_    0.417198 0.979610 0.258934 0.108722
H37   H     H_    0.330810 0.169817 0.251181 0.172276
N4    N     N_2   0.218808 0.844167 0.191815 -0.500634
H38   H     H_    0.312891 0.843825 0.196377 0.233095
C44   C     C_3   0.103538 0.968019 0.225745 -0.263905
H39   H     H_    0.094712 0.064130 0.201678 0.171561
H40   H     H_    0.123533 0.969415 0.283551 0.150050
H41   H     H_    0.001488 0.970212 0.218124 0.174982
N5    N     N_2   0.216381 0.504525 0.193930 -0.543453
H42   H     H_    0.292360 0.425047 0.162288 0.254113
C45   C     C_3   0.098472 0.484580 0.212533 -0.266918
H43   H     H_    0.122987 0.424336 0.262585 0.176217
H44   H     H_    0.081642 0.423861 0.169912 0.166200
H45   H     H_    0.998567 0.586750 0.220743 0.151585

loop_
_geom_bond_atom_site_label_1
_geom_bond_atom_site_label_2
_ccdc_geom_bond_type
C7    C10   D    
C45   H43   S    
C1    C11   S    
C34   O26   A    
N3    C43   S    
C43   H35   S    
Cr6   O18   S    
C25   C28   D    
N2    C42   S    
C26   C27   D    
C41   H27   S    
C31   O11   A    
C7    N1    S    
C8    C29   S    
Cr4   O6    S    
Cr5   O16   S    
C33   O17   A    
C34   O25   A    
Cr2   O20   S    
C22   H14   S    
C38   C39   S    
Cr1   O25   S    
Cr1   O12   S    
Cr3   O23   S    
C37   O24   A    
C18   C19   S    
C13   C31   S    
N4    H38   S    
Cr6   O11   S    
C11   C15   D    
C29   O7    A    
C20   C24   D    
C3    C38   S    
C8    C9    D    
C40   H21   S    
C24   N3    S    
C42   H31   S    
C4    C12   S    
C2    H23   S    
C9    C10   S    
C8    H6    S    
C21   H15   S    
C44   H41   S    
C17   H12   S    
C30   O9    A    
Cr3   O3    S    
C37   O4    A    
C1    O20   A    
C13   C14   D    
C42   H32   S    
C5    H3    S    
C2    C6    S    
C17   C33   S    
C5    H22   S    
C10   H5    S    
N3    H34   S    
C44   H40   S    
C31   O6    A    
Cr6   O17   S    
Cr3   O4    S    
C6    H25   S    
C21   C32   S    
C38   H9    S    
C25   H19   S    
C4    C6    S    
Cr2   O26   S    
C45   H45   S    
C16   H13   S    
C3    C30   S    
Cr6   O10   S    
C18   H11   S    
N1    H26   S    
C29   O8    A    
C4    C39   S    
C32   O15   A    
C17   C18   D    
Cr5   O8    S    
Cr5   O19   S    
C38   H1    S    
C6    H2    S    
C36   O3    A    
Cr1   O1    S    
C28   H18   S    
N1    C41   S    
C3    C40   S    
C41   H29   S    
C26   N5    S    
C39   H20   S    
C22   C24   S    
C12   O22   A    
Cr4   O14   S    
C35   O18   A    
Cr4   O19   S    
C44   H39   S    
N5    C45   S    
C13   H8    S    
C27   N4    S    
Cr3   O5    S    
Cr2   O2    S    
C45   H44   S    
C23   O1    A    
C12   O21   A    
C9    H4    S    
C4    C5    S    
Cr4   O13   S    
C43   H36   S    
C35   O13   A    
Cr6   O19   S    
C19   Br2   S    
C1    O12   A    
C39   H17   S    
N2    H30   S    
C25   C34   S    
Cr2   O5    S    
C23   O23   A    
C42   H33   S    
C15   N2    S    
C30   O10   A    
Cr4   O7    S    
C2    C3    S    
C33   O16   A    
C2    H24   S    
C16   C36   S    
Cr1   O5    S    
C40   Br1   S    
C20   C37   S    
Cr1   O24   S    
C16   C19   D    
C7    C23   S    
C32   O14   A    
Cr3   O22   S    
Cr5   O15   S    
Cr5   O9    S    
Cr2   O21   S    
C20   H16   S    
N4    C44   S    
C43   H37   S    
C36   O2    A    
C26   C35   S    
C14   H7    S    
C41   H28   S    
C5    C40   S    
C27   C28   S    
C14   C15   S    
C21   C22   D    
C11   H10   S    
N5    H42   S    
