data_mof_unit_10023.cif
_audit_creation_date              2012-12-11T16:07:22-0500
_audit_creation_method            fapswitch 2.2
_symmetry_space_group_name_H-M    P1
_symmetry_Int_Tables_number       1
_space_group_crystal_system       triclinic
_cell_length_a                    17.108446
_cell_length_b                    17.107858
_cell_length_c                    17.232853
_cell_angle_alpha                 89.999351
_cell_angle_beta                  89.893388
_cell_angle_gamma                 89.998751
_cell_volume                      5043.85544805

loop_
_atom_site_label
_atom_site_type_symbol
_atom_type_description
_atom_site_fract_x
_atom_site_fract_y
_atom_site_fract_z
_atom_type_partial_charge
C1    C     C_R   0.422329 0.669733 0.646315 -0.142147
C2    C     C_R   0.605258 0.698007 0.607739 -0.140952
C3    C     C_3   0.750421 0.278933 0.720221 -0.137384
C4    C     C_3   0.777799 0.806896 0.365698 -0.150414
C5    C     C_3   0.222152 0.193144 0.634291 -0.150402
C6    C     C_3   0.720993 0.250137 0.279249 -0.137048
C7    C     C_3   0.278838 0.749729 0.720674 -0.136980
C8    C     C_3   0.749447 0.779071 0.779719 -0.137458
C9    C     C_3   0.250617 0.220853 0.220319 -0.137498
C10   C     C_3   0.693161 0.277205 0.865081 -0.150260
C11   C     C_3   0.306429 0.722306 0.134821 -0.149974
C12   C     C_3   0.221080 0.249797 0.779287 -0.137009
C13   C     C_R   0.670690 0.422445 0.354309 -0.129731
C14   C     C_3   0.778964 0.750164 0.220733 -0.137038
C15   C     C_3   0.277928 0.693207 0.865723 -0.150284
C16   C     C_3   0.722234 0.306931 0.134306 -0.150426
C17   C     C_R   0.329320 0.577550 0.645698 -0.129782
C18   C     C_R   0.606428 0.698113 0.393202 -0.151674
C19   C     C_R   0.393574 0.301889 0.606803 -0.151643
C20   C     C_R   0.330154 0.577728 0.353825 -0.142263
C21   C     C_R   0.669868 0.422244 0.646162 -0.142427
C22   C     C_R   0.893568 0.198113 0.106794 -0.151649
C23   C     C_R   0.106423 0.801891 0.893188 -0.151622
C24   C     C_R   0.169890 0.077780 0.146149 -0.142470
C25   C     C_R   0.577678 0.330262 0.353688 -0.142197
C26   C     C_R   0.830116 0.922230 0.853847 -0.142476
C27   C     C_R   0.105247 0.802017 0.107817 -0.141156
C28   C     C_R   0.894743 0.198002 0.892243 -0.141002
C29   C     C_R   0.829308 0.922444 0.145690 -0.129750
C30   C     C_R   0.170687 0.077554 0.854307 -0.129749
C31   C     C_R   0.922376 0.829185 0.854459 -0.129943
C32   C     C_R   0.077626 0.170822 0.145536 -0.129944
C33   C     C_R   0.198126 0.894584 0.892524 -0.141070
C34   C     C_R   0.801868 0.105419 0.107457 -0.141015
C35   C     C_R   0.077676 0.169740 0.853688 -0.142152
C36   C     C_R   0.697983 0.606285 0.607084 -0.151644
C37   C     C_R   0.922318 0.830256 0.146310 -0.142143
C38   C     C_R   0.802021 0.106280 0.892901 -0.151597
C39   C     C_R   0.197966 0.893746 0.107152 -0.151484
C40   C     C_3   0.266219 0.264794 0.335068 0.189135
C41   C     C_3   0.733777 0.735198 0.664953 0.189132
C42   C     C_3   0.323002 0.678432 0.250946 0.189437
C43   C     C_3   0.677003 0.321526 0.749061 0.189482
C44   C     C_3   0.735486 0.734092 0.335667 0.189208
C45   C     C_3   0.264516 0.265909 0.664343 0.189206
C46   C     C_3   0.678131 0.323336 0.250475 0.189358
C47   C     C_R   0.302014 0.393709 0.392929 -0.151691
C48   C     C_3   0.321879 0.676664 0.749519 0.189330
C49   C     C_3   0.822984 0.821504 0.750947 0.189493
C50   C     C_3   0.177016 0.178507 0.249054 0.189496
C51   C     C_3   0.766221 0.235190 0.835019 0.189133
C52   C     C_3   0.233766 0.764855 0.165093 0.189140
C53   C     C_3   0.178127 0.176668 0.750478 0.189361
C54   C     C_3   0.821866 0.823332 0.249521 0.189359
C55   C     C_3   0.235476 0.765909 0.835637 0.189207
C56   C     C_3   0.764507 0.234095 0.164323 0.189198
C57   C     C_R   0.363664 0.635349 0.689514 0.028712
C58   C     C_R   0.577611 0.329203 0.645553 -0.129986
C59   C     C_R   0.636356 0.364637 0.310498 0.028726
C60   C     C_R   0.681330 0.682246 0.626133 0.037318
C61   C     C_R   0.318665 0.317746 0.373889 0.037316
C62   C     C_R   0.635620 0.363390 0.689239 0.028063
C63   C     C_R   0.364428 0.636541 0.310717 0.027993
C64   C     C_R   0.317535 0.318431 0.625615 0.038061
C65   C     C_R   0.682468 0.681571 0.374395 0.038055
C66   C     C_R   0.817527 0.181573 0.125597 0.038046
C67   C     C_R   0.182458 0.818433 0.874367 0.038049
C68   C     C_R   0.135655 0.136656 0.189209 0.028108
C69   C     C_R   0.422409 0.670761 0.354422 -0.130126
C70   C     C_R   0.864353 0.863359 0.810782 0.028089
C71   C     C_R   0.181305 0.817806 0.126270 0.037364
C72   C     C_R   0.818674 0.182236 0.873836 0.037329
C73   C     C_R   0.863643 0.864635 0.189501 0.028711
C74   C     C_R   0.136348 0.135360 0.810493 0.028703
C75   C     C_3   0.777084 0.705700 0.736750 -0.154343
C76   C     C_3   0.223005 0.294279 0.263212 -0.154275
C77   C     C_3   0.648882 0.248356 0.792077 -0.165303
C78   C     C_3   0.351280 0.751249 0.207448 -0.165304
C79   C     C_3   0.191488 0.293907 0.707605 -0.168073
C80   C     C_R   0.301871 0.394585 0.607467 -0.141048
C81   C     C_3   0.808548 0.706109 0.292452 -0.168083
C82   C     C_3   0.352171 0.720328 0.820849 -0.160543
C83   C     C_3   0.647871 0.279863 0.179017 -0.160481
C84   C     C_3   0.751113 0.351539 0.207134 -0.165916
C85   C     C_3   0.249017 0.648408 0.793021 -0.165914
C86   C     C_3   0.705916 0.777942 0.264200 -0.154536
C87   C     C_3   0.294096 0.222005 0.735773 -0.154569
C88   C     C_3   0.279275 0.648125 0.179679 -0.160956
C89   C     C_3   0.720158 0.351742 0.820709 -0.160761
C90   C     C_3   0.294052 0.191365 0.292443 -0.168121
C91   C     C_R   0.698130 0.605417 0.392539 -0.141029
C92   C     C_3   0.705919 0.808572 0.707656 -0.168098
C93   C     C_3   0.219904 0.148328 0.320878 -0.160670
C94   C     C_3   0.780002 0.851695 0.679183 -0.160700
C95   C     C_3   0.205716 0.691938 0.208437 -0.167974
C96   C     C_3   0.794121 0.308460 0.792168 -0.168070
C97   C     C_3   0.748911 0.851549 0.292898 -0.165908
C98   C     C_3   0.251048 0.148435 0.707055 -0.165917
C99   C     C_3   0.794068 0.277901 0.235818 -0.154518
C100  C     C_3   0.205880 0.721915 0.764269 -0.154634
C101  C     C_3   0.308445 0.793930 0.792294 -0.168045
C102  C     C_R   0.394740 0.301989 0.392272 -0.140914
C103  C     C_3   0.691418 0.206125 0.207501 -0.168083
C104  C     C_3   0.147850 0.220241 0.679085 -0.160531
C105  C     C_3   0.852135 0.779814 0.320950 -0.160518
C106  C     C_3   0.722742 0.205664 0.763337 -0.154449
C107  C     C_3   0.277808 0.794481 0.236397 -0.154787
C108  C     C_3   0.851060 0.748229 0.708076 -0.165301
C109  C     C_3   0.148966 0.251837 0.291849 -0.165302
C110  C     C_3   0.192976 0.223027 0.365026 -0.150380
C111  C     C_3   0.806956 0.777052 0.634958 -0.150338
C112  C     C_3   0.249982 0.721559 0.280001 -0.137159
H1    H     H_    0.456514 0.720414 0.661843 0.099243
H2    H     H_    0.577210 0.754638 0.606839 0.084196
H3    H     H_    0.721655 0.456624 0.339643 0.093122
H4    H     H_    0.278353 0.543375 0.660368 0.093160
H5    H     H_    0.578983 0.755065 0.393882 0.090191
H6    H     H_    0.421017 0.244936 0.606121 0.090172
H7    H     H_    0.279567 0.543355 0.338366 0.098891
H8    H     H_    0.720450 0.456621 0.661629 0.098917
H9    H     H_    0.921010 0.255066 0.106112 0.090182
H10   H     H_    0.078981 0.744938 0.893871 0.090165
H11   H     H_    0.220477 0.043410 0.161616 0.098902
H12   H     H_    0.543489 0.279584 0.338156 0.099256
H13   H     H_    0.779532 0.956607 0.838381 0.098919
H14   H     H_    0.077221 0.745376 0.106932 0.084298
H15   H     H_    0.922784 0.254635 0.893140 0.084221
H16   H     H_    0.778343 0.956625 0.160356 0.093134
H17   H     H_    0.221655 0.043377 0.839640 0.093134
H18   H     H_    0.956771 0.778335 0.839847 0.092774
H19   H     H_    0.043226 0.221669 0.160146 0.092764
H20   H     H_    0.254782 0.922564 0.893571 0.083864
H21   H     H_    0.745214 0.077434 0.106405 0.083828
H22   H     H_    0.043489 0.220422 0.838159 0.099237
H23   H     H_    0.754915 0.578796 0.606544 0.090668
H24   H     H_    0.956499 0.779571 0.161839 0.099210
H25   H     H_    0.745088 0.078792 0.893442 0.090646
H26   H     H_    0.254899 0.921233 0.106608 0.090578
H27   H     H_    0.171361 0.225568 0.425754 0.105283
H28   H     H_    0.828517 0.774573 0.574210 0.105282
H29   H     H_    0.227393 0.720820 0.340484 0.109741
H30   H     H_    0.773355 0.280065 0.659872 0.109703
H31   H     H_    0.775650 0.828119 0.426542 0.105432
H32   H     H_    0.224263 0.171953 0.573435 0.105444
H33   H     H_    0.720073 0.227385 0.339630 0.109927
H34   H     H_    0.245081 0.421197 0.393470 0.090684
H35   H     H_    0.279624 0.772366 0.660248 0.109932
H36   H     H_    0.726409 0.780321 0.840026 0.109689
H37   H     H_    0.273712 0.219541 0.160034 0.109681
H38   H     H_    0.671701 0.274844 0.925870 0.105269
H39   H     H_    0.327560 0.724273 0.073906 0.105156
H40   H     H_    0.220228 0.272489 0.839692 0.109937
H41   H     H_    0.779855 0.727440 0.160341 0.109932
H42   H     H_    0.275880 0.672064 0.926597 0.105264
H43   H     H_    0.724414 0.328181 0.073473 0.105405
H44   H     H_    0.774728 0.645133 0.759837 0.106334
H45   H     H_    0.543220 0.278354 0.660172 0.092811
H46   H     H_    0.225436 0.354827 0.240084 0.106324
H47   H     H_    0.588360 0.224987 0.791412 0.101927
H48   H     H_    0.411941 0.774265 0.207697 0.102019
H49   H     H_    0.167731 0.354283 0.707778 0.101117
H50   H     H_    0.832337 0.645745 0.292323 0.101109
H51   H     H_    0.413156 0.717950 0.842579 0.108104
H52   H     H_    0.586925 0.282396 0.157197 0.108112
H53   H     H_    0.774297 0.412136 0.207639 0.102981
H54   H     H_    0.225951 0.587764 0.792657 0.103015
H55   H     H_    0.645257 0.776020 0.241432 0.106053
H56   H     H_    0.456789 0.721615 0.339790 0.092926
H57   H     H_    0.354766 0.223882 0.758517 0.106061
H58   H     H_    0.281585 0.587120 0.157876 0.107112
H59   H     H_    0.717391 0.412632 0.842778 0.107157
H60   H     H_    0.354273 0.167228 0.292750 0.101717
H61   H     H_    0.645675 0.832653 0.707422 0.101724
H62   H     H_    0.216924 0.087492 0.343065 0.107194
H63   H     H_    0.782907 0.912549 0.657036 0.107172
H64   H     H_    0.145296 0.668302 0.208788 0.101791
H65   H     H_    0.854406 0.332438 0.792265 0.101741
H66   H     H_    0.725754 0.912158 0.292423 0.102989
H67   H     H_    0.245216 0.422570 0.606417 0.083840
H68   H     H_    0.274172 0.087814 0.707488 0.102993
H69   H     H_    0.854718 0.275943 0.258608 0.106088
H70   H     H_    0.145190 0.723719 0.741570 0.106054
H71   H     H_    0.332145 0.854328 0.792046 0.101125
H72   H     H_    0.667603 0.145773 0.207597 0.101110
H73   H     H_    0.086884 0.217789 0.657311 0.108098
H74   H     H_    0.913089 0.782311 0.342749 0.108097
H75   H     H_    0.724961 0.145062 0.740329 0.106319
H76   H     H_    0.276047 0.855199 0.259138 0.106253
H77   H     H_    0.911540 0.724754 0.708869 0.101898
H78   H     H_    0.754785 0.577431 0.393590 0.083829
H79   H     H_    0.088510 0.275369 0.290987 0.101885
H80   H     H_    0.422791 0.245360 0.393173 0.084181
N1    N     N_R   0.424590 0.632770 0.578330 -0.041964
N2    N     N_R   0.575410 0.632770 0.578330 -0.032877
N3    N     N_R   0.632770 0.424590 0.421670 -0.042154
N4    N     N_R   0.367230 0.575410 0.578330 -0.042160
N5    N     N_R   0.575410 0.632770 0.421670 -0.033023
N6    N     N_R   0.424590 0.367230 0.578330 -0.033030
N7    N     N_R   0.367230 0.575410 0.421670 -0.041663
N8    N     N_R   0.632770 0.424590 0.578330 -0.041642
N9    N     N_R   0.924590 0.132770 0.078330 -0.033037
N10   N     N_R   0.075410 0.867230 0.921670 -0.033037
N11   N     N_R   0.132770 0.075410 0.078330 -0.041636
N12   N     N_R   0.575410 0.367230 0.421670 -0.041955
N13   N     N_R   0.867230 0.924590 0.921670 -0.041636
N14   N     N_R   0.075410 0.867230 0.078330 -0.032865
N15   N     N_R   0.924590 0.132770 0.921670 -0.032878
N16   N     N_R   0.867230 0.924590 0.078330 -0.042156
N17   N     N_R   0.132770 0.075410 0.921670 -0.042156
N18   N     N_R   0.924590 0.867230 0.921670 -0.041841
N19   N     N_R   0.075410 0.132770 0.078330 -0.041839
N20   N     N_R   0.132770 0.924590 0.921670 -0.033225
N21   N     N_R   0.867230 0.075410 0.078330 -0.033224
N22   N     N_R   0.075410 0.132770 0.921670 -0.041955
N23   N     N_R   0.632770 0.575410 0.578330 -0.032699
N24   N     N_R   0.924590 0.867230 0.078330 -0.041950
N25   N     N_R   0.867230 0.075410 0.921670 -0.032701
N26   N     N_R   0.132770 0.924590 0.078330 -0.032697
N27   N     N_R   0.367230 0.424590 0.421670 -0.032700
N28   N     N_R   0.575410 0.367230 0.578330 -0.041846
N29   N     N_R   0.424590 0.632770 0.421670 -0.041858
N30   N     N_R   0.367230 0.424590 0.578330 -0.033211
N31   N     N_R   0.632770 0.575410 0.421670 -0.033216
N32   N     N_R   0.424590 0.367230 0.421670 -0.032881
Ni1   Ni    Ni4+2 0.500000 0.631570 0.500000 0.206854
Ni2   Ni    Ni4+2 0.500000 0.368430 0.500000 0.206869
Ni3   Ni    Ni4+2 0.631570 0.500000 0.500000 0.206861
Ni4   Ni    Ni4+2 0.368430 0.500000 0.500000 0.206852
Ni5   Ni    Ni4+2 0.000000 0.131570 0.000000 0.206873
Ni6   Ni    Ni4+2 0.000000 0.868430 0.000000 0.206882
Ni7   Ni    Ni4+2 0.131570 0.000000 0.000000 0.206866
Ni8   Ni    Ni4+2 0.868430 0.000000 0.000000 0.206855

loop_
_geom_bond_atom_site_label_1
_geom_bond_atom_site_label_2
_ccdc_geom_bond_type
C58   C62   A    
C83   H52   S    
N4    Ni4   S    
C24   N11   A    
C46   C59   S    
N14   Ni6   S    
C11   C88   S    
C107  C112  S    
C12   H40   S    
C39   N26   A    
C53   C74   S    
C25   N12   A    
N25   Ni8   S    
C34   C66   A    
C30   N17   A    
C17   C57   A    
C24   H11   S    
C102  N32   A    
C48   C57   S    
C35   C74   A    
C8    H36   S    
C32   C68   A    
N14   N26   A    
C18   C65   A    
N9    N21   A    
C104  H73   S    
C76   H46   S    
C43   C89   S    
C29   N16   A    
C83   C103  S    
C22   H9    S    
C85   H54   S    
N2    Ni1   S    
C110  H27   S    
N6    N30   A    
C45   C64   S    
C106  H75   S    
C21   H8    S    
C7    C101  S    
C95   C112  S    
C36   N23   A    
C43   C77   S    
C30   C74   A    
C33   N20   A    
N31   Ni3   S    
C8    C49   S    
C29   C73   A    
C82   H51   S    
C11   C52   S    
C53   C104  S    
C87   H57   S    
C12   C79   S    
N29   Ni1   S    
C93   H62   S    
C16   C84   S    
C35   H22   S    
C52   C95   S    
N17   Ni7   S    
C23   C67   A    
C86   C97   S    
C42   C112  S    
C22   C66   A    
C15   H42   S    
C94   H63   S    
C84   H53   S    
C50   C68   S    
N27   N32   A    
C58   N28   A    
C75   H44   S    
C52   C107  S    
C31   C70   A    
C63   C69   A    
C10   C89   S    
C76   C109  S    
C55   C100  S    
N24   Ni6   S    
C56   C66   S    
C54   C97   S    
C3    C96   S    
N7    N29   A    
C9    C76   S    
C49   C94   S    
C23   H10   S    
C100  H70   S    
N7    Ni4   S    
C32   N19   A    
C37   N24   A    
C69   N29   A    
C12   C53   S    
C54   C105  S    
C28   H15   S    
C51   C96   S    
N10   Ni6   S    
C87   C98   S    
C56   C103  S    
N9    Ni5   S    
C5    C104  S    
C75   C108  S    
N16   N24   A    
C105  H74   S    
C4    C97   S    
C64   C80   A    
C38   N25   A    
N11   N19   A    
C44   C65   S    
C28   C72   A    
C3    H30   S    
C1    H1    S    
C79   H49   S    
C44   C86   S    
C10   C51   S    
C4    H31   S    
C25   H12   S    
C10   C77   S    
C111  H28   S    
C15   C82   S    
C7    H35   S    
C3    C106  S    
C9    H37   S    
C91   H78   S    
C38   C72   A    
N15   N25   A    
C88   H58   S    
C7    C100  S    
C9    C50   S    
C23   N10   A    
C103  H72   S    
C80   H67   S    
C2    C60   A    
C14   C86   S    
C44   C81   S    
N2    N23   A    
N20   Ni7   S    
N15   Ni5   S    
C5    H32   S    
C40   C110  S    
N3    N12   A    
C4    C44   S    
C34   H21   S    
C36   C60   A    
C47   H34   S    
C5    C45   S    
C107  H76   S    
C34   N21   A    
C50   C109  S    
C40   C61   S    
C40   C76   S    
N32   Ni2   S    
C78   C107  S    
C2    N2    A    
C26   H13   S    
C15   C55   S    
C112  H29   S    
C81   H50   S    
N27   Ni4   S    
C1    N1    A    
C95   H64   S    
C16   C56   S    
C20   N7    A    
C11   C78   S    
C1    C57   A    
C41   C75   S    
C54   C73   S    
C96   H65   S    
C102  H80   S    
N30   Ni4   S    
C19   C64   A    
N1    N4    A    
C3    C43   S    
C16   H43   S    
C92   C94   S    
N18   Ni6   S    
C37   H24   S    
N28   Ni2   S    
C45   C79   S    
C6    C103  S    
C18   H5    S    
C89   H59   S    
C21   C62   A    
C13   H3    S    
N21   Ni8   S    
C77   H47   S    
C8    C92   S    
C33   H20   S    
C11   H39   S    
C14   C54   S    
N16   Ni8   S    
C42   C78   S    
C49   C70   S    
C14   H41   S    
C41   C111  S    
C26   C70   A    
C46   C84   S    
C108  H77   S    
C26   N13   A    
C42   C88   S    
C51   C72   S    
C21   N8    A    
C91   N31   A    
C6    H33   S    
C36   H23   S    
C27   C71   A    
C33   C67   A    
C90   C93   S    
C78   H48   S    
C65   C91   A    
C81   C105  S    
C37   C73   A    
C77   C106  S    
C19   N6    A    
C6    C46   S    
C22   N9    A    
C45   C87   S    
C82   C101  S    
C84   C99   S    
C30   H17   S    
C86   H55   S    
C41   C60   S    
N10   N20   A    
N5    N31   A    
C58   H45   S    
C101  H71   S    
C9    C90   S    
C47   C61   A    
C55   C67   S    
C50   C93   S    
C88   C95   S    
C13   C59   A    
N3    Ni3   S    
C53   C98   S    
C31   H18   S    
C94   C111  S    
N13   Ni8   S    
C4    C105  S    
C93   C110  S    
C18   N5    A    
N17   N22   A    
C14   C81   S    
C108  C111  S    
C15   C85   S    
C39   H26   S    
C27   N14   A    
C40   C90   S    
C6    C99   S    
C20   C63   A    
C61   C102  A    
C69   H56   S    
N1    Ni1   S    
C12   C87   S    
C85   C100  S    
C92   H61   S    
C109  C110  S    
C7    C48   S    
N12   Ni2   S    
N11   Ni7   S    
C2    H2    S    
C97   H66   S    
C31   N18   A    
C47   N27   A    
N13   N18   A    
C109  H79   S    
C51   C106  S    
N8    N28   A    
C19   H6    S    
C55   C101  S    
C27   H14   S    
C38   H25   S    
C48   C82   S    
N23   Ni3   S    
C8    C75   S    
C79   C104  S    
C35   N22   A    
C49   C108  S    
N26   Ni7   S    
C99   H69   S    
C24   C68   A    
N19   Ni5   S    
C46   C83   S    
N6    Ni2   S    
C41   C92   S    
C5    C98   S    
C43   C62   S    
C13   N3    A    
C29   H16   S    
C90   H60   S    
C52   C71   S    
C28   N15   A    
C39   C71   A    
C48   C85   S    
C17   N4    A    
C16   C83   S    
C25   C59   A    
C56   C99   S    
C89   C96   S    
N22   Ni5   S    
C98   H68   S    
C42   C63   S    
N8    Ni3   S    
C20   H7    S    
C10   H38   S    
C32   H19   S    
C17   H4    S    
C80   N30   A    
N5    Ni1   S    
