data_mof_unit_38692.cif
_audit_creation_date              2012-12-10T16:36:38-0500
_audit_creation_method            fapswitch 2.2
_symmetry_space_group_name_H-M    P1
_symmetry_Int_Tables_number       1
_space_group_crystal_system       triclinic
_cell_length_a                    14.224205
_cell_length_b                    16.420981
_cell_length_c                    15.128891
_cell_angle_alpha                 89.121429
_cell_angle_beta                  91.95733
_cell_angle_gamma                 90.120636
_cell_volume                      3531.2553583

loop_
_atom_site_label
_atom_site_type_symbol
_atom_type_description
_atom_site_fract_x
_atom_site_fract_y
_atom_site_fract_z
_atom_type_partial_charge
C1    C     C_R   0.678923 0.844102 0.519783 0.577621
C2    C     C_R   0.991309 0.451855 0.110454 0.182372
C3    C     C_R   0.552317 0.089214 0.132431 0.224501
C4    C     C_R   0.052415 0.589169 0.132423 0.224514
C5    C     C_R   0.541851 0.105751 0.041121 0.244155
C6    C     C_R   0.041954 0.605713 0.041115 0.244177
C7    C     C_2   0.249165 0.220264 0.472908 0.237297
C8    C     C_2   0.240846 0.787338 0.487049 0.219777
C9    C     C_2   0.749156 0.720256 0.472918 0.237272
C10   C     C_2   0.740835 0.287347 0.487063 0.219856
C11   C     C_2   0.748746 0.782123 0.530849 0.209789
C12   C     C_R   0.679961 0.154629 0.519514 0.565540
C13   C     C_2   0.754134 0.213264 0.524877 0.202288
C14   C     C_2   0.248742 0.282118 0.530855 0.209741
C15   C     C_2   0.254132 0.713264 0.524887 0.202207
C16   C     C_R   0.319945 0.155948 0.480988 0.523651
C17   C     C_R   0.319027 0.844702 0.482793 0.508615
C18   C     C_R   0.819945 0.655948 0.480989 0.523597
C19   C     C_R   0.819022 0.344706 0.482798 0.508560
C20   C     C_R   0.520390 0.001439 0.261297 0.617602
C21   C     C_R   0.020390 0.501434 0.261297 0.617578
C22   C     C_R   0.478074 0.998895 0.739071 0.525972
C23   C     C_R   0.178924 0.344103 0.519786 0.577562
C24   C     C_R   0.978073 0.498895 0.739070 0.525975
C25   C     C_R   0.526461 0.012590 0.166177 0.035879
C26   C     C_R   0.026463 0.512575 0.166174 0.035867
C27   C     C_R   0.471800 0.993505 0.835492 0.029375
C28   C     C_R   0.971793 0.493508 0.835489 0.029398
C29   C     C_R   0.439071 0.909815 0.963687 -0.083215
C30   C     C_R   0.938982 0.409847 0.963683 -0.083221
C31   C     C_R   0.429287 0.924212 0.873248 0.204465
C32   C     C_R   0.929228 0.424239 0.873242 0.204459
C33   C     C_R   0.515486 0.052352 0.890106 0.267549
C34   C     C_R   0.179960 0.654629 0.519514 0.565536
C35   C     C_R   0.015525 0.552331 0.890102 0.267549
C36   C     C_3   0.668900 0.177313 0.181492 0.035172
C37   C     C_3   0.718646 0.179307 0.272432 -0.269686
C38   C     C_3   0.808026 0.230516 0.270738 -0.441131
C39   C     C_3   0.169168 0.677098 0.181477 0.035167
C40   C     C_3   0.218826 0.679262 0.272458 -0.269549
C41   C     C_3   0.308227 0.730441 0.270724 -0.441128
C42   C     C_3   0.288677 0.870030 0.826690 0.006152
C43   C     C_3   0.242537 0.817999 0.754282 -0.262161
C44   C     C_3   0.135751 0.815778 0.761051 -0.452485
C45   C     C_R   0.513001 0.042950 0.983110 -0.028292
C46   C     C_3   0.788601 0.370102 0.826658 0.006136
C47   C     C_3   0.742459 0.318114 0.754214 -0.262125
C48   C     C_3   0.635666 0.315938 0.760939 -0.452514
C49   C     C_3   0.655208 0.089667 0.828210 0.026392
C50   C     C_3   0.730358 0.115031 0.897343 -0.272127
C51   C     C_3   0.828797 0.092695 0.868866 -0.457286
C52   C     C_3   0.155272 0.589555 0.828194 0.026356
C53   C     C_3   0.230453 0.614864 0.897321 -0.272111
C54   C     C_3   0.328869 0.592482 0.868820 -0.457311
C55   C     C_3   0.613582 0.665892 0.413725 0.007103
C56   C     C_R   0.013030 0.542934 0.983106 -0.028280
C57   C     C_3   0.557419 0.655159 0.326767 -0.234184
C58   C     C_3   0.483948 0.587768 0.334341 -0.486261
C59   C     C_3   0.614305 0.372234 0.497440 0.006150
C60   C     C_3   0.508474 0.375989 0.477000 -0.252246
C61   C     C_3   0.462279 0.443155 0.529006 -0.435762
C62   C     C_3   0.113596 0.165941 0.413670 0.007079
C63   C     C_3   0.057345 0.155345 0.326727 -0.234066
C64   C     C_3   0.983887 0.087938 0.334245 -0.486219
C65   C     C_3   0.114220 0.872076 0.497493 0.006217
C66   C     C_3   0.008469 0.876022 0.476647 -0.252077
C67   C     C_R   0.481737 0.967533 0.019215 -0.069518
C68   C     C_3   0.962169 0.943139 0.528642 -0.435828
C69   C     C_R   0.981689 0.467543 0.019214 -0.069511
C70   C     C_R   0.491381 0.951844 0.110453 0.182360
Cl1   Cl    Cl    0.461576 0.855626 0.156667 -0.675016
Cl2   Cl    Cl    0.961391 0.355668 0.156672 -0.675105
Cl3   Cl    Cl    0.548500 0.208531 0.004513 -0.563792
Cl4   Cl    Cl    0.048705 0.708488 0.004512 -0.563891
Cl5   Cl    Cl    0.315616 0.287584 0.631585 -0.598955
Cl6   Cl    Cl    0.364009 0.673226 0.563508 -0.669883
Cl7   Cl    Cl    0.815684 0.787639 0.631538 -0.598952
Cl8   Cl    Cl    0.864026 0.173217 0.563442 -0.669826
H1    H     H_    0.411608 0.853090 0.989428 0.195635
H2    H     H_    0.167179 0.739805 0.152787 0.211128
H3    H     H_    0.211525 0.638340 0.137590 0.112957
H4    H     H_    0.170851 0.705562 0.320752 0.231633
H5    H     H_    0.236921 0.616163 0.294351 0.186690
H6    H     H_    0.355756 0.707341 0.220121 0.183415
H7    H     H_    0.345217 0.727253 0.336402 0.164175
H8    H     H_    0.290565 0.795110 0.255482 0.217787
H9    H     H_    0.263116 0.933921 0.817330 0.134565
H10   H     H_    0.267539 0.846203 0.892412 0.144756
H11   H     H_    0.260585 0.843303 0.688451 0.176675
H12   H     H_    0.911471 0.353139 0.989424 0.195625
H13   H     H_    0.270214 0.754902 0.759772 0.195425
H14   H     H_    0.116085 0.791189 0.826659 0.229508
H15   H     H_    0.104894 0.775762 0.709121 0.194958
H16   H     H_    0.106086 0.877934 0.751503 0.151245
H17   H     H_    0.763072 0.434005 0.817319 0.134554
H18   H     H_    0.767435 0.346259 0.892364 0.144736
H19   H     H_    0.760553 0.343430 0.688402 0.176636
H20   H     H_    0.770095 0.255003 0.759690 0.195369
H21   H     H_    0.615956 0.291307 0.826517 0.229417
H22   H     H_    0.604806 0.275980 0.708957 0.194952
H23   H     H_    0.666774 0.240085 0.153000 0.211132
H24   H     H_    0.606046 0.378115 0.751439 0.151185
H25   H     H_    0.670903 0.119754 0.764087 0.164172
H26   H     H_    0.659993 0.022708 0.817224 0.113353
H27   H     H_    0.726997 0.181867 0.907048 0.200216
H28   H     H_    0.717170 0.083882 0.961407 0.167574
H29   H     H_    0.834765 0.025705 0.861630 0.176131
H30   H     H_    0.881587 0.112805 0.919758 0.172300
H31   H     H_    0.844413 0.123118 0.804947 0.185609
H32   H     H_    0.170985 0.619635 0.764071 0.164153
H33   H     H_    0.159996 0.522594 0.817201 0.113378
H34   H     H_    0.711275 0.138746 0.137440 0.113109
H35   H     H_    0.227144 0.681700 0.907045 0.200229
H36   H     H_    0.217254 0.583708 0.961380 0.167579
H37   H     H_    0.334785 0.525492 0.861555 0.176158
H38   H     H_    0.381683 0.612546 0.919713 0.172276
H39   H     H_    0.344496 0.622918 0.804911 0.185603
H40   H     H_    0.566134 0.690067 0.464116 0.176607
H41   H     H_    0.639912 0.604991 0.436617 0.138091
H42   H     H_    0.522122 0.713457 0.307809 0.204844
H43   H     H_    0.606119 0.639242 0.273782 0.211322
H44   H     H_    0.518986 0.528576 0.349182 0.156447
H45   H     H_    0.670713 0.205488 0.320828 0.231552
H46   H     H_    0.443399 0.582468 0.270701 0.158893
H47   H     H_    0.434512 0.601446 0.387351 0.191052
H48   H     H_    0.646400 0.431181 0.477214 0.148155
H49   H     H_    0.625361 0.363154 0.570271 0.116702
H50   H     H_    0.495518 0.387455 0.405052 0.177019
H51   H     H_    0.476012 0.316531 0.494496 0.221113
H52   H     H_    0.469415 0.429765 0.601109 0.192400
H53   H     H_    0.386342 0.446811 0.509917 0.202896
H54   H     H_    0.495464 0.502993 0.514844 0.156390
H55   H     H_    0.066203 0.190071 0.464143 0.176546
H56   H     H_    0.736786 0.116178 0.294157 0.186657
H57   H     H_    0.139921 0.104998 0.436449 0.138245
H58   H     H_    0.022024 0.213674 0.307906 0.204801
H59   H     H_    0.105993 0.139511 0.273660 0.211360
H60   H     H_    0.018943 0.028728 0.348957 0.156460
H61   H     H_    0.943281 0.082726 0.270624 0.158879
H62   H     H_    0.934501 0.101533 0.387325 0.191087
H63   H     H_    0.146501 0.931065 0.477671 0.147897
H64   H     H_    0.124937 0.862691 0.570317 0.117054
H65   H     H_    0.995855 0.887666 0.404684 0.177033
H66   H     H_    0.975808 0.816573 0.493853 0.220810
H67   H     H_    0.855530 0.207505 0.220071 0.183522
H68   H     H_    0.968991 0.929598 0.600740 0.192751
H69   H     H_    0.886300 0.946925 0.509283 0.202773
H70   H     H_    0.995523 0.002967 0.514738 0.156359
H71   H     H_    0.845059 0.227243 0.336387 0.164168
H72   H     H_    0.790335 0.295196 0.255616 0.217749
O1    O     O_3   0.500000 0.000000 0.500000 -0.477612
O2    O     O_R   0.885830 0.337110 0.539910 -0.507487
O3    O     O_R   0.692160 0.095230 0.468550 -0.548787
O4    O     O_R   0.692160 0.904770 0.468550 -0.537772
O5    O     O_R   0.192160 0.595230 0.468550 -0.548789
O6    O     O_R   0.192160 0.404770 0.468550 -0.537758
O7    O     O_R   0.316720 0.904790 0.427870 -0.538909
O8    O     O_R   0.316720 0.095210 0.427870 -0.538933
O9    O     O_R   0.816720 0.404790 0.427870 -0.539026
O10   O     O_R   0.816720 0.595210 0.427870 -0.538951
O11   O     O_R   0.594900 1.000000 0.310900 -0.535645
O12   O     O_3   0.000000 0.500000 0.500000 -0.477602
O13   O     O_R   0.094900 0.500000 0.310900 -0.535604
O14   O     O_R   0.483090 0.932320 0.697550 -0.493248
O15   O     O_R   0.483090 0.067680 0.697550 -0.501830
O16   O     O_R   0.983090 0.432320 0.697550 -0.493267
O17   O     O_R   0.983090 0.567680 0.697550 -0.501849
O18   O     O_R   0.438930 0.000000 0.294000 -0.499222
O19   O     O_R   0.938930 0.500000 0.294000 -0.499211
O20   O     O_3   0.575058 0.150553 0.191401 -0.537913
O21   O     O_3   0.075271 0.650485 0.191387 -0.537869
O22   O     O_3   0.387315 0.865467 0.820259 -0.528468
O23   O     O_R   0.605310 0.837110 0.563680 -0.513912
O24   O     O_3   0.887239 0.365506 0.820248 -0.528500
O25   O     O_3   0.564857 0.116284 0.852496 -0.496688
O26   O     O_3   0.064949 0.616231 0.852492 -0.496761
O27   O     O_3   0.687816 0.721447 0.399520 -0.575067
O28   O     O_3   0.653240 0.307855 0.449698 -0.597653
O29   O     O_3   0.187853 0.221478 0.399491 -0.575071
O30   O     O_3   0.153276 0.807837 0.449630 -0.597630
O31   O     O_R   0.605310 0.162890 0.563680 -0.546045
O32   O     O_R   0.105310 0.337110 0.563680 -0.513894
O33   O     O_R   0.105310 0.662890 0.563680 -0.546055
O34   O     O_R   0.385830 0.162890 0.539910 -0.507621
O35   O     O_R   0.385830 0.837110 0.539910 -0.507516
O36   O     O_R   0.885830 0.662890 0.539910 -0.507557
Zn1   Zn    Zn3+2 0.493670 0.096680 0.574000 0.976624
Zn2   Zn    Zn3+2 0.493670 0.903320 0.574000 1.002834
Zn3   Zn    Zn3+2 0.993670 0.596680 0.574000 0.976640
Zn4   Zn    Zn3+2 0.993670 0.403320 0.574000 1.002820
Zn5   Zn    Zn3+2 0.617760 0.000000 0.438070 0.964877
Zn6   Zn    Zn3+2 0.117760 0.500000 0.438070 0.964887
Zn7   Zn    Zn3+2 0.394920 0.000000 0.413930 0.971315
Zn8   Zn    Zn3+2 0.894920 0.500000 0.413930 0.971225

loop_
_geom_bond_atom_site_label_1
_geom_bond_atom_site_label_2
_ccdc_geom_bond_type
C62   H57   S    
O9    Zn8   S    
C66   C68   S    
C21   C26   S    
O23   Zn2   S    
C21   O13   A    
C4    O21   S    
C33   C45   A    
C1    C11   S    
C49   O25   S    
C12   O3    A    
O11   Zn5   S    
C49   H26   S    
O12   Zn6   S    
O31   Zn1   S    
C68   H68   S    
C55   H41   S    
C34   O5    A    
C27   C33   A    
C59   H48   S    
O1    Zn1   S    
C41   H8    S    
C1    O23   A    
C62   C63   S    
C47   H20   S    
O7    Zn7   S    
C35   O26   S    
C62   H55   S    
C36   C37   S    
C64   H62   S    
C2    Cl2   S    
C66   H66   S    
C31   O22   S    
C59   H49   S    
C22   O14   A    
C46   C47   S    
C49   C50   S    
O2    Zn4   S    
C44   H15   S    
C11   Cl7   S    
C61   H54   S    
C29   C67   A    
C22   O15   A    
C7    C14   D    
C46   H17   S    
C47   C48   S    
C28   C35   A    
C17   O35   A    
C51   H30   S    
C54   H38   S    
C45   C67   A    
C50   H27   S    
C39   O21   S    
C46   O24   S    
O13   Zn6   S    
C2    C69   A    
C17   O7    A    
C52   O26   S    
C15   C34   S    
C68   H70   S    
C64   H61   S    
C30   H12   S    
O1    Zn5   S    
C15   Cl6   S    
C63   H59   S    
C59   C60   S    
C51   H31   S    
C37   H45   S    
C23   O6    A    
C55   O27   S    
C40   H5    S    
C20   O18   A    
O33   Zn3   S    
C28   C32   A    
C53   H35   S    
C6    Cl4   S    
O1    Zn2   S    
C48   H22   S    
C58   H44   S    
O8    Zn7   S    
C27   C31   A    
C10   O28   S    
C40   H4    S    
C3    C25   A    
C24   O17   A    
C44   H16   S    
C39   H3    S    
C23   O32   A    
C4    C6    A    
C62   O29   S    
O35   Zn2   S    
C64   H60   S    
C66   H65   S    
C52   H33   S    
O14   Zn2   S    
C53   C54   S    
C41   H6    S    
C16   O8    A    
C18   O36   A    
C43   H13   S    
C53   H36   S    
C63   C64   S    
C36   H23   S    
O16   Zn4   S    
C14   C23   S    
C24   O16   A    
C43   C44   S    
C38   H67   S    
C36   H34   S    
C37   C38   S    
C65   H63   S    
C8    O30   S    
C12   O31   A    
C29   H1    S    
C52   H32   S    
C10   C19   S    
C48   H24   S    
C54   H37   S    
O12   Zn8   S    
C50   C51   S    
C7    O29   S    
C34   O33   A    
C2    C26   A    
O15   Zn1   S    
C9    C11   D    
C70   Cl1   S    
C68   H69   S    
C42   O22   S    
C61   H52   S    
C57   H42   S    
O6    Zn6   S    
C7    C16   S    
C65   C66   S    
C8    C15   D    
C22   C27   S    
C55   C57   S    
C42   H10   S    
C42   C43   S    
O12   Zn4   S    
C30   C69   A    
C9    O27   S    
C52   C53   S    
O10   Zn8   S    
O3    Zn5   S    
C48   H21   S    
C13   Cl8   S    
C40   C41   S    
C38   H71   S    
C35   C56   A    
C36   O20   S    
C59   O28   S    
C24   C28   S    
C60   H50   S    
C6    C56   A    
C3    C5    A    
C10   C13   D    
C44   H14   S    
C60   H51   S    
C49   H25   S    
C4    C26   A    
C16   O34   A    
C3    O20   S    
O19   Zn8   S    
C25   C70   A    
C65   O30   S    
C41   H7    S    
C58   H46   S    
C8    C17   S    
C47   H19   S    
O34   Zn1   S    
O18   Zn7   S    
C67   C70   A    
C19   O9    A    
C39   H2    S    
O1    Zn7   S    
O36   Zn3   S    
C29   C31   A    
C14   Cl5   S    
C30   C32   A    
C65   H64   S    
C57   C58   S    
C32   O24   S    
C21   O19   A    
C20   O11   A    
C38   H72   S    
C43   H11   S    
C5    Cl3   S    
C1    O4    A    
C33   O25   S    
C18   O10   A    
O5    Zn6   S    
C61   H53   S    
C57   H43   S    
C5    C45   A    
C39   C40   S    
C9    C18   S    
C46   H18   S    
C12   C13   S    
C58   H47   S    
C51   H29   S    
C56   C69   A    
C20   C25   S    
C54   H39   S    
C50   H28   S    
C37   H56   S    
C60   C61   S    
C63   H58   S    
C42   H9    S    
O32   Zn4   S    
C55   H40   S    
O12   Zn3   S    
O17   Zn3   S    
O4    Zn5   S    
C19   O2    A    
