data_mof_unit_29281.cif
_audit_creation_date              2012-12-11T17:15:58-0500
_audit_creation_method            fapswitch 2.2
_symmetry_space_group_name_H-M    P1
_symmetry_Int_Tables_number       1
_space_group_crystal_system       triclinic
_cell_length_a                    14.877014
_cell_length_b                    7.438143
_cell_length_c                    13.36699
_cell_angle_alpha                 90.000809
_cell_angle_beta                  100.250247
_cell_angle_gamma                 89.999505
_cell_volume                      1455.54836236

loop_
_atom_site_label
_atom_site_type_symbol
_atom_type_description
_atom_site_fract_x
_atom_site_fract_y
_atom_site_fract_z
_atom_type_partial_charge
O1    O     O_R   0.398210 0.494340 0.401550 -0.532214
O2    O     O_R   0.601790 0.994340 0.598450 -0.532221
O3    O     O_R   0.586310 0.821730 0.403360 -0.536847
O4    O     O_R   0.413690 0.321730 0.596640 -0.536832
C1    C     C_R   0.615649 0.656251 0.383541 0.741282
C2    C     C_R   0.384352 0.156255 0.616463 0.741290
O5    O     O_R   0.397970 0.823900 0.389580 -0.547950
O6    O     O_R   0.602030 0.323900 0.610420 -0.547948
O7    O     O_R   0.412100 0.996500 0.584560 -0.510112
O8    O     O_R   0.587900 0.496500 0.415440 -0.510097
C3    C     C_R   0.366181 0.655282 0.362787 0.676323
C4    C     C_R   0.633819 0.155282 0.637213 0.676334
O9    O     O_3   0.504860 0.661550 0.563990 -0.386667
O10   O     O_3   0.495140 0.161550 0.436010 -0.386646
V1    V     V_3+5 0.499100 0.935510 0.488130 1.408640
V2    V     V_3+5 0.500900 0.435510 0.511870 1.408682
C5    C     C_1   0.715308 0.144522 0.717525 -0.196585
C6    C     C_1   0.284692 0.644522 0.282475 -0.196572
C7    C     C_1   0.783689 0.133624 0.783795 -0.202798
C8    C     C_1   0.216311 0.633624 0.216205 -0.202800
C9    C     C_3   0.253151 0.287752 0.836032 0.372320
C10   C     C_3   0.746832 0.787711 0.163961 0.372297
H1    H     H_    0.296803 0.232176 0.906184 -0.068070
H2    H     H_    0.703168 0.732105 0.093824 -0.068069
C11   C     C_3   0.315637 0.317859 0.754706 0.188880
C12   C     C_3   0.684367 0.817839 0.245301 0.188920
C13   C     C_3   0.134017 0.161388 0.688223 0.273523
C14   C     C_3   0.865974 0.661296 0.311768 0.273493
C15   C     C_3   0.234062 0.946876 0.802064 0.204066
C16   C     C_3   0.765908 0.446853 0.197911 0.203974
C17   C     C_3   0.180228 0.131325 0.802519 -0.315962
C18   C     C_3   0.819757 0.631293 0.197468 -0.315931
C19   C     C_3   0.308415 0.150377 0.681122 -0.327973
C20   C     C_3   0.691582 0.650353 0.318881 -0.328001
C21   C     C_3   0.206240 0.135659 0.612652 0.740288
C22   C     C_3   0.793757 0.635596 0.387346 0.740350
C23   C     C_3   0.325707 0.989953 0.764083 0.344780
C24   C     C_3   0.674274 0.489930 0.235919 0.344864
O11   O     O_R   0.912140 0.786650 0.084610 -0.484435
O12   O     O_R   0.087860 0.286650 0.915390 -0.484439
O13   O     O_R   0.102040 0.454810 0.110430 -0.536177
O14   O     O_R   0.897960 0.954810 0.889570 -0.536180
C25   C     C_R   0.134538 0.623240 0.136316 0.681095
C26   C     C_R   0.865462 0.123240 0.863683 0.681098
O15   O     O_R   0.913690 0.457060 0.096650 -0.571914
O16   O     O_R   0.086310 0.957060 0.903350 -0.571873
O17   O     O_R   0.898200 0.284560 0.901540 -0.534773
O18   O     O_R   0.101800 0.784560 0.098460 -0.534767
C27   C     C_R   0.887821 0.624898 0.121037 0.721632
C28   C     C_R   0.112170 0.124903 0.878954 0.721541
O19   O     O_3   0.995160 0.617270 0.936040 -0.395046
O20   O     O_3   0.004840 0.117270 0.063960 -0.395064
V3    V     V_3+5 0.000900 0.343280 0.011870 1.371357
V4    V     V_3+5 0.999100 0.843280 0.988130 1.371381
O21   O     O_3   0.213988 0.452537 0.858039 -0.498352
C29   C     C_3   0.263339 0.528458 0.948595 -0.109326
H3    H     H_    0.333313 0.567439 0.938569 0.113185
H4    H     H_    0.266241 0.435787 0.014468 0.090982
H5    H     H_    0.227278 0.649829 0.968128 0.114203
O22   O     O_3   0.785976 0.952489 0.141914 -0.498396
C30   C     C_3   0.736595 0.028353 0.051358 -0.109446
H6    H     H_    0.666611 0.067249 0.061386 0.113157
H7    H     H_    0.733716 0.935670 0.985492 0.091036
H8    H     H_    0.772609 0.149768 0.031808 0.114130
O23   O     O_3   0.365736 0.834295 0.730036 -0.498602
C31   C     C_3   0.452986 0.796245 0.788057 -0.047461
H9    H     H_    0.448014 0.767436 0.868528 0.068086
H10   H     H_    0.501324 0.908925 0.783686 0.069414
H11   H     H_    0.480903 0.674514 0.756843 0.163190
O24   O     O_3   0.634262 0.334269 0.269983 -0.498582
C32   C     C_3   0.547045 0.296109 0.211930 -0.047369
H12   H     H_    0.552052 0.267395 0.131457 0.068053
H13   H     H_    0.498659 0.408696 0.216310 0.069463
H14   H     H_    0.519170 0.174286 0.243106 0.163169
H15   H     H_    0.082674 0.057081 0.661767 0.080245
H16   H     H_    0.917298 0.556938 0.338195 0.080350
O25   O     O_3   0.194808 0.959440 0.569035 -0.570459
C33   C     C_3   0.220674 0.941896 0.471998 -0.131316
H17   H     H_    0.276535 0.032094 0.459170 0.164044
H18   H     H_    0.162527 0.969300 0.411002 0.109470
H19   H     H_    0.240345 0.801536 0.460785 0.095459
O26   O     O_3   0.805178 0.459373 0.430956 -0.570462
C34   C     C_3   0.779334 0.441842 0.528005 -0.131356
H20   H     H_    0.723449 0.531986 0.540825 0.164070
H21   H     H_    0.837479 0.469336 0.588989 0.109493
H22   H     H_    0.759711 0.301461 0.539249 0.095425
H23   H     H_    0.386272 0.309657 0.799567 0.053583
H24   H     H_    0.613726 0.809665 0.200452 0.053568
O27   O     O_3   0.318325 0.498440 0.719595 -0.515658
C35   C     C_3   0.263981 0.543218 0.626007 0.176535
H25   H     H_    0.191283 0.525619 0.625895 0.179321
H26   H     H_    0.289376 0.492848 0.559137 0.107689
H27   H     H_    0.270584 0.684937 0.612597 0.203291
O28   O     O_3   0.681706 0.998420 0.280414 -0.515652
C36   C     C_3   0.736041 0.043175 0.374011 0.176405
H28   H     H_    0.808743 0.025560 0.374135 0.179229
H29   H     H_    0.710636 0.992804 0.440873 0.107719
H30   H     H_    0.729439 0.184898 0.387418 0.203353
O29   O     O_3   0.090705 0.331197 0.679710 -0.553754
C37   C     C_3   0.995554 0.314883 0.677467 -0.273351
H31   H     H_    0.969062 0.443877 0.701537 0.149424
H32   H     H_    0.977837 0.210639 0.729954 0.116107
H33   H     H_    0.960707 0.281822 0.599242 0.134000
O30   O     O_3   0.909315 0.831066 0.320310 -0.553833
C38   C     C_3   0.004462 0.814708 0.322532 -0.273575
H34   H     H_    0.030951 0.943662 0.298419 0.149515
H35   H     H_    0.022168 0.710426 0.270065 0.116093
H36   H     H_    0.039319 0.781687 0.400754 0.134075
O31   O     O_3   0.191084 0.263819 0.531756 -0.595022
C39   C     C_3   0.101085 0.267025 0.474046 -0.287512
H37   H     H_    0.066534 0.393498 0.489562 0.167877
H38   H     H_    0.058192 0.149802 0.487000 0.149163
H39   H     H_    0.105640 0.269751 0.392120 0.135317
O32   O     O_3   0.808924 0.763752 0.468247 -0.595009
C40   C     C_3   0.898928 0.766967 0.525941 -0.287540
H40   H     H_    0.933475 0.893431 0.510415 0.167920
H41   H     H_    0.941817 0.649741 0.512984 0.149151
H42   H     H_    0.894384 0.769714 0.607870 0.135270
O33   O     O_3   0.188518 0.813336 0.734662 -0.524261
C41   C     C_3   0.103683 0.746879 0.751833 0.004166
H43   H     H_    0.079120 0.650554 0.691082 0.148662
H44   H     H_    0.047557 0.845255 0.742180 0.040887
H45   H     H_    0.108974 0.679538 0.825539 0.213670
O34   O     O_3   0.811450 0.313295 0.265299 -0.524275
C42   C     C_3   0.896246 0.246777 0.248043 0.004143
H46   H     H_    0.920733 0.150167 0.308619 0.149021
H47   H     H_    0.952431 0.345008 0.257839 0.040855
H48   H     H_    0.890913 0.179668 0.174265 0.213576
H49   H     H_    0.251684 0.892117 0.880170 0.060078
H50   H     H_    0.748274 0.392115 0.119800 0.060047
H51   H     H_    0.371928 0.037548 0.834305 -0.079586
H52   H     H_    0.628030 0.537535 0.165716 -0.079623

loop_
_geom_bond_atom_site_label_1
_geom_bond_atom_site_label_2
_ccdc_geom_bond_type
C12   O28   S    
C31   H10   S    
O21   C29   S    
C24   O24   S    
C3    C6    S    
C36   H28   S    
O1    C3    A    
C22   O32   S    
C2    O7    A    
O32   C40   S    
C36   H30   S    
O25   C33   S    
O20   V3    S    
O5    C3    A    
C38   H35   S    
C13   O29   S    
C10   C18   S    
C10   O22   S    
C33   H18   S    
O11   V4    S    
C40   H40   S    
C11   H23   S    
C29   H3    S    
C16   C24   S    
C30   H7    S    
C39   H37   S    
C5    C7    T    
C12   C20   S    
C15   H49   S    
O29   C37   S    
C22   O26   S    
C40   H41   S    
C23   O23   S    
C4    C5    S    
C42   H48   S    
O24   C32   S    
C25   O18   A    
C20   C22   S    
C21   O31   S    
C26   O17   A    
C7    C26   S    
O17   V3    S    
O5    V1    S    
C31   H9    S    
O2    C4    A    
O6    V2    S    
C2    C19   S    
O13   C25   A    
O28   C36   S    
O14   C26   A    
C13   H15   S    
O30   C38   S    
C41   H44   S    
C38   H36   S    
C15   O33   S    
C13   C17   S    
C14   C18   S    
O4    C2    A    
C32   H13   S    
C33   H17   S    
C13   C21   S    
C16   H50   S    
C21   O25   S    
C37   H33   S    
C19   C23   S    
C23   H51   S    
O22   C30   S    
C24   H52   S    
O4    V2    S    
C30   H8    S    
O18   V4    S    
C9    C17   S    
C14   O30   S    
C35   H26   S    
C34   H20   S    
O15   C27   A    
O6    C4    A    
C40   H42   S    
C1    C20   S    
O16   V4    S    
C37   H32   S    
O1    V2    S    
O2    V1    S    
C39   H39   S    
O13   V3    S    
C34   H21   S    
C16   O34   S    
O12   V3    S    
C9    H1    S    
C42   H46   S    
C10   H2    S    
C17   C28   S    
C14   H16   S    
C8    C25   S    
O3    V1    S    
C41   H43   S    
C35   H27   S    
C9    O21   S    
C9    C11   S    
C36   H29   S    
O11   C27   A    
C20   C24   S    
O3    C1    A    
C32   H14   S    
O33   C41   S    
C41   H45   S    
C38   H34   S    
O16   C28   A    
C11   O27   S    
C29   H5    S    
O19   V4    S    
O7    V1    S    
C1    O8    A    
C15   C17   S    
O8    V2    S    
O31   C39   S    
O14   V4    S    
C16   C18   S    
C33   H19   S    
C35   H25   S    
O12   C28   A    
C37   H31   S    
C19   C21   S    
C29   H4    S    
C6    C8    T    
C30   H6    S    
C39   H38   S    
C18   C27   S    
O15   V3    S    
C31   H11   S    
C32   H12   S    
C34   H22   S    
C14   C22   S    
C12   H24   S    
O23   C31   S    
C10   C12   S    
O9    V2    S    
C15   C23   S    
C42   H47   S    
O10   V1    S    
O26   C34   S    
O27   C35   S    
C11   C19   S    
O34   C42   S    
