data_mof_unit_10135.cif
_audit_creation_date              2012-10-26T20:22:05-0400
_audit_creation_method            fapswitch 2.2
_symmetry_space_group_name_H-M    P1
_symmetry_Int_Tables_number       1
_space_group_crystal_system       triclinic
_cell_length_a                    10.828011
_cell_length_b                    9.591778
_cell_length_c                    10.627649
_cell_angle_alpha                 90.088589
_cell_angle_beta                  91.443685
_cell_angle_gamma                 89.977527
_cell_volume                      1103.43456362

loop_
_atom_site_label
_atom_site_type_symbol
_atom_type_description
_atom_site_fract_x
_atom_site_fract_y
_atom_site_fract_z
_atom_type_partial_charge
C1    C     C_R   0.871679 0.499981 0.500111 0.024516
C2    C     C_3   0.506730 0.367588 0.040678 -0.104035
C3    C     C_3   0.402202 0.427666 0.955114 -0.121857
C4    C     C_3   0.597798 0.572334 0.044886 -0.121857
C5    C     C_3   0.500312 0.500834 0.877597 0.041449
C6    C     C_3   0.499688 0.499166 0.122403 0.041449
C7    C     C_R   0.422174 0.074351 0.420643 0.063946
C8    C     C_R   0.577826 0.925649 0.579357 0.063946
C9    C     C_R   0.578005 0.074409 0.579167 0.066933
C10   C     C_R   0.421995 0.925591 0.420833 0.066933
C11   C     C_R   0.063913 0.373330 0.499276 -0.123728
C12   C     C_R   0.128321 0.500019 0.499889 0.024516
C13   C     C_R   0.936087 0.626670 0.500724 -0.123727
C14   C     C_R   0.936152 0.373312 0.499340 -0.123124
C15   C     C_R   0.063848 0.626688 0.500660 -0.123124
C16   C     C_1   0.339547 0.148246 0.335267 0.239845
C17   C     C_1   0.660453 0.851754 0.664733 0.239845
C18   C     C_1   0.662135 0.148211 0.663098 0.245585
C19   C     C_1   0.337865 0.851788 0.336902 0.245585
C20   C     C_R   0.262282 0.500015 0.499854 0.556959
C21   C     C_R   0.737718 0.499985 0.500146 0.556959
C22   C     C_R   0.499656 0.499787 0.259391 0.563285
C23   C     C_R   0.500344 0.500213 0.740609 0.563285
C24   C     C_3   0.395161 0.559082 0.039081 -0.117957
C25   C     C_3   0.604838 0.440918 0.960919 -0.117957
C26   C     C_3   0.493270 0.632412 0.959322 -0.104035
Cu1   Cu    Cu3+1 0.500000 0.640660 0.500000 0.979531
Cu2   Cu    Cu3+1 0.500000 0.359340 0.500000 0.979531
H1    H     H_    0.111911 0.274242 0.498760 0.144269
H2    H     H_    0.512170 0.258993 0.076444 0.139764
H3    H     H_    0.888088 0.725758 0.501239 0.144269
H4    H     H_    0.888204 0.274220 0.498709 0.144817
H5    H     H_    0.111796 0.725780 0.501290 0.144817
H6    H     H_    0.322191 0.368515 0.915322 0.129177
H7    H     H_    0.677809 0.631485 0.084678 0.129177
H8    H     H_    0.308923 0.606725 0.073449 0.151875
H9    H     H_    0.691077 0.393274 0.926551 0.151875
H10   H     H_    0.487830 0.741007 0.923556 0.139764
N1    N     N_R   0.500000 0.852070 0.500000 -0.267842
N2    N     N_R   0.500000 0.147930 0.500000 -0.267842
N3    N     N_1   0.273019 0.206376 0.266365 -0.307323
N4    N     N_1   0.726981 0.793624 0.733635 -0.307323
N5    N     N_1   0.730233 0.206049 0.730670 -0.320962
N6    N     N_1   0.269767 0.793951 0.269330 -0.320962
O1    O     O_R   0.319640 0.618740 0.499990 -0.503897
O2    O     O_R   0.680360 0.381260 0.500010 -0.503897
O3    O     O_R   0.680360 0.618740 0.500010 -0.504489
O4    O     O_R   0.319640 0.381260 0.499990 -0.504489
O5    O     O_R   0.499970 0.618770 0.316850 -0.496875
O6    O     O_R   0.500030 0.381230 0.683150 -0.496875
O7    O     O_R   0.500030 0.618770 0.683150 -0.499865
O8    O     O_R   0.499970 0.381230 0.316850 -0.499865

loop_
_geom_bond_atom_site_label_1
_geom_bond_atom_site_label_2
_ccdc_geom_bond_type
C8    C9    A    
C7    C10   A    
C4    C26   S    
C7    N2    A    
C1    C21   S    
C8    N1    A    
C23   O7    A    
C8    C17   S    
C5    C23   S    
C12   C15   A    
C10   C19   S    
C2    H2    S    
C6    C24   S    
Cu1   O1    S    
C4    C25   S    
C4    H7    S    
C20   O4    A    
C18   N5    T    
Cu2   O8    S    
Cu2   O2    S    
C3    C24   S    
C2    C6    S    
Cu1   N1    S    
C12   C20   S    
C22   O5    A    
C5    C25   S    
C24   H8    S    
C4    C6    S    
C7    C16   S    
Cu1   O7    S    
C2    C3    S    
C2    C25   S    
C13   C15   A    
C11   C14   A    
C1    C13   A    
Cu2   N2    S    
Cu1   O3    S    
C5    C26   S    
C6    C22   S    
C3    C5    S    
C9    C18   S    
C19   N6    T    
C11   H1    S    
C22   O8    A    
C21   O2    A    
C20   O1    A    
C14   H4    S    
Cu1   Cu2   S    
C13   H3    S    
C17   N4    T    
Cu2   O4    S    
C23   O6    A    
C1    C14   A    
C3    H6    S    
C25   H9    S    
Cu2   O6    S    
C16   N3    T    
C15   H5    S    
C9    N2    A    
C26   H10   S    
Cu1   O5    S    
C11   C12   A    
C24   C26   S    
C10   N1    A    
C21   O3    A    
