data_mof_unit_12161.cif
_audit_creation_date              2012-10-26T21:17:58-0400
_audit_creation_method            fapswitch 2.2
_symmetry_space_group_name_H-M    P1
_symmetry_Int_Tables_number       1
_space_group_crystal_system       triclinic
_cell_length_a                    14.796715
_cell_length_b                    14.802147
_cell_length_c                    27.81247
_cell_angle_alpha                 75.83916
_cell_angle_beta                  102.578589
_cell_angle_gamma                 115.160512
_cell_volume                      5300.9560973

loop_
_atom_site_label
_atom_site_type_symbol
_atom_type_description
_atom_site_fract_x
_atom_site_fract_y
_atom_site_fract_z
_atom_type_partial_charge
C1    C     C_R   0.880424 0.312464 0.508166 0.544075
C2    C     C_R   0.919785 0.428902 0.127619 0.024427
C3    C     C_R   0.998926 0.500085 0.645227 0.003979
C4    C     C_R   0.001202 0.500055 0.354781 0.004294
C5    C     C_R   0.918175 0.426735 0.025673 0.018190
C6    C     C_R   0.080066 0.575234 0.973818 0.018180
C7    C     C_R   0.082576 0.572487 0.025541 0.018202
C8    C     C_R   0.919285 0.424895 0.974929 0.018203
C9    C     C_R   0.000702 0.499421 0.050915 0.033880
C10   C     C_R   0.999349 0.500271 0.949064 0.033929
C11   C     C_R   0.836767 0.358532 0.052255 -0.140038
C12   C     C_R   0.119552 0.687541 0.491648 0.544481
C13   C     C_R   0.155434 0.651090 0.945606 -0.139991
C14   C     C_R   0.837895 0.359602 0.102158 -0.112710
C15   C     C_R   0.153453 0.651163 0.895462 -0.112668
C16   C     C_R   0.999607 0.499951 0.592359 0.552455
C17   C     C_R   0.000426 0.500094 0.407642 0.552751
C18   C     C_R   0.843113 0.349602 0.948951 -0.139998
C19   C     C_R   0.164782 0.640132 0.053150 -0.139991
C20   C     C_R   0.812412 0.204993 0.511278 -0.001270
C21   C     C_R   0.187502 0.795200 0.485639 -0.001614
C22   C     C_R   0.782146 0.027553 0.523809 -0.128798
C23   C     C_R   0.998721 0.500661 0.897797 -0.027133
C24   C     C_R   0.217808 0.973035 0.461850 -0.128666
C25   C     C_R   0.849128 0.128370 0.522208 -0.132691
C26   C     C_R   0.150838 0.871894 0.468208 -0.132311
C27   C     C_R   0.708424 0.179702 0.501910 -0.129226
C28   C     C_R   0.291413 0.820767 0.496679 -0.133657
C29   C     C_R   0.639214 0.079068 0.502051 0.034749
C30   C     C_R   0.360748 0.921752 0.488269 0.034127
C31   C     C_R   0.677850 0.002371 0.514043 0.052046
C32   C     C_R   0.322126 0.998470 0.471715 0.052506
C33   C     C_R   0.533112 0.052634 0.491250 0.034213
C34   C     C_R   0.001331 0.499082 0.102177 -0.027163
C35   C     C_R   0.466902 0.948435 0.496273 0.035258
C36   C     C_R   0.508986 0.874511 0.507895 -0.134578
C37   C     C_R   0.491023 0.126725 0.474764 -0.137223
C38   C     C_R   0.612258 0.901284 0.516191 -0.130867
C39   C     C_R   0.387746 0.099807 0.464998 -0.130430
C40   C     C_R   0.921799 0.426998 0.822422 0.397101
C41   C     C_R   0.082346 0.567747 0.178636 0.396945
C42   C     C_R   0.720506 0.673426 0.419108 -0.166842
C43   C     C_R   0.279269 0.325522 0.579650 -0.166097
C44   C     C_R   0.797403 0.638697 0.429396 0.017318
C45   C     C_R   0.920690 0.425581 0.872952 0.024461
C46   C     C_R   0.202765 0.360675 0.570177 0.016772
C47   C     C_R   0.715973 0.509709 0.494615 0.243020
C48   C     C_R   0.283524 0.490437 0.505028 0.242739
C49   C     C_R   0.628543 0.533640 0.481147 0.011691
C50   C     C_R   0.370567 0.465732 0.517494 0.011414
C51   C     C_R   0.637755 0.623255 0.445902 0.022883
C52   C     C_R   0.361425 0.375643 0.552416 0.022887
C53   C     C_R   0.535921 0.477822 0.502902 0.019312
C54   C     C_R   0.462775 0.521238 0.495226 0.020179
C55   C     C_R   0.486741 0.619873 0.467263 -0.147687
C56   C     C_R   0.083464 0.568982 0.128128 0.024649
C57   C     C_R   0.511689 0.378704 0.530204 -0.147679
C58   C     C_R   0.568061 0.666331 0.440264 -0.129405
C59   C     C_R   0.430499 0.332013 0.557307 -0.127544
C60   C     C_R   0.074206 0.575039 0.820684 0.396846
C61   C     C_R   0.921791 0.429952 0.178179 0.396545
C62   C     C_R   0.071455 0.478981 0.732302 -0.057511
C63   C     C_R   0.931834 0.526033 0.267429 -0.057358
C64   C     C_R   0.071937 0.478634 0.682293 -0.144583
C65   C     C_R   0.931253 0.526271 0.317439 -0.144597
C66   C     C_R   0.925424 0.521733 0.659189 -0.142938
C67   C     C_R   0.843888 0.350272 0.899036 -0.112698
C68   C     C_R   0.071739 0.473722 0.341109 -0.143473
C69   C     C_R   0.925042 0.521874 0.709259 -0.060397
C70   C     C_R   0.072054 0.473415 0.291053 -0.060482
C71   C     C_R   0.998082 0.500604 0.745955 0.241818
C72   C     C_R   0.002091 0.499497 0.254042 0.240564
C73   C     C_R   0.164867 0.638424 0.103292 -0.112626
C74   C     C_R   0.076171 0.576087 0.871240 0.024315
Cu1   Cu    Cu3+1 0.081740 0.475690 0.513040 0.964630
Cu2   Cu    Cu3+1 0.918260 0.524310 0.486960 0.965424
H1    H     H_    0.868345 0.538738 0.631512 0.141696
H2    H     H_    0.535418 0.206858 0.467531 0.102741
H3    H     H_    0.579469 0.739577 0.416799 0.119785
H4    H     H_    0.418837 0.258379 0.580390 0.119866
H5    H     H_    0.138520 0.321352 0.590664 0.125353
H6    H     H_    0.861971 0.677785 0.409127 0.124257
H7    H     H_    0.726722 0.740497 0.391142 0.104390
H8    H     H_    0.273125 0.258048 0.607305 0.105014
H9    H     H_    0.445383 0.664590 0.466194 0.100200
H10   H     H_    0.552943 0.334094 0.530457 0.102317
H11   H     H_    0.868266 0.538918 0.719583 0.130777
H12   H     H_    0.126408 0.452972 0.369019 0.139878
H13   H     H_    0.126384 0.452497 0.280987 0.132036
H14   H     H_    0.783662 0.290918 0.880959 0.165748
H15   H     H_    0.229573 0.692122 0.122580 0.165631
H16   H     H_    0.876159 0.547124 0.326780 0.132121
H17   H     H_    0.129463 0.461600 0.672731 0.132957
H18   H     H_    0.877789 0.546673 0.238983 0.133069
H19   H     H_    0.127948 0.462184 0.760542 0.131635
H20   H     H_    0.773671 0.305618 0.120713 0.165979
H21   H     H_    0.213195 0.710829 0.875691 0.165938
H22   H     H_    0.769626 0.303895 0.035512 0.111023
H23   H     H_    0.316346 0.760190 0.512714 0.118608
H24   H     H_    0.216743 0.713045 0.960791 0.111129
H25   H     H_    0.782084 0.287500 0.966191 0.110995
H26   H     H_    0.231605 0.694835 0.037476 0.110961
H27   H     H_    0.640947 0.842045 0.524706 0.114740
H28   H     H_    0.359035 0.159107 0.452144 0.113985
H29   H     H_    0.293269 0.628416 0.463162 0.221711
H30   H     H_    0.295774 0.544050 0.430059 0.209410
H31   H     H_    0.701210 0.457689 0.569420 0.208587
H32   H     H_    0.707293 0.373203 0.537914 0.220585
H33   H     H_    0.683219 0.240242 0.495240 0.112638
H34   H     H_    0.070705 0.853846 0.459595 0.128520
H35   H     H_    0.929294 0.146227 0.529508 0.129861
H36   H     H_    0.811887 0.969114 0.532648 0.109921
H37   H     H_    0.188060 0.031494 0.448810 0.109606
H38   H     H_    0.464437 0.794719 0.509781 0.095444
N1    N     N_R   0.997884 0.501018 0.797436 -0.397443
N2    N     N_R   0.002200 0.498916 0.202544 -0.397145
N3    N     N_R   0.795430 0.560780 0.467350 -0.202590
N4    N     N_R   0.204570 0.439220 0.532650 -0.203170
N5    N     N_3   0.266635 0.553080 0.458765 -0.568915
N6    N     N_3   0.732625 0.448764 0.541576 -0.571359
O1    O     O_R   0.977900 0.338120 0.517190 -0.509306
O2    O     O_2   0.160229 0.635451 0.203536 -0.501202
O3    O     O_2   0.844356 0.362119 0.202931 -0.500195
O4    O     O_2   0.147637 0.647709 0.794850 -0.499453
O5    O     O_R   0.022100 0.661880 0.482810 -0.509244
O6    O     O_R   0.839850 0.379180 0.495160 -0.497712
O7    O     O_R   0.160150 0.620820 0.504840 -0.497576
O8    O     O_R   0.069030 0.479490 0.580750 -0.511732
O9    O     O_R   0.930970 0.520510 0.419250 -0.511929
O10   O     O_R   0.930970 0.520550 0.558720 -0.463989
O11   O     O_R   0.069030 0.479450 0.441280 -0.464445
O12   O     O_2   0.847944 0.354527 0.798538 -0.500222

loop_
_geom_bond_atom_site_label_1
_geom_bond_atom_site_label_2
_ccdc_geom_bond_type
C65   H16   S    
C21   C26   A    
C63   C65   A    
C34   C56   A    
C23   C45   A    
H30   N5    S    
C17   O11   A    
Cu2   O6    S    
H32   N6    S    
C35   C36   A    
C36   H38   S    
C66   C69   A    
C39   H28   S    
C47   C49   A    
C12   O7    A    
C3    C64   A    
C63   H18   S    
C50   C54   A    
C30   C35   A    
C11   H22   S    
C24   C26   A    
C64   H17   S    
C5    C11   A    
C44   H6    S    
C4    C65   A    
C11   C14   A    
C43   C52   A    
C57   C59   A    
C40   N1    A    
C27   C29   A    
C20   C25   A    
C29   C33   A    
C57   H10   S    
C46   N4    A    
C69   C71   A    
Cu1   O8    S    
C32   C39   A    
C60   C74   A    
C60   O4    S    
C62   C64   A    
C33   C35   A    
Cu2   O10   S    
C49   C51   A    
C22   C25   A    
C45   C67   A    
C50   C52   A    
C16   O10   A    
C26   H34   S    
C69   H11   S    
C2    C61   A    
C42   C51   A    
C2    C34   A    
C48   C50   A    
C40   O12   S    
C24   H37   S    
C62   H19   S    
Cu2   O5    S    
Cu1   N4    S    
C42   C44   A    
C15   H21   S    
C14   H20   S    
Cu1   O11   S    
C48   N5    S    
C1    O1    A    
C40   C45   A    
C37   C39   A    
C22   C31   A    
C17   O9    A    
C19   C73   A    
C1    O6    A    
C73   H15   S    
C43   H8    S    
C4    C68   A    
C53   C57   A    
C48   N4    A    
C12   O5    A    
C18   C67   A    
C53   C54   A    
C12   C21   S    
C67   H14   S    
C33   C37   A    
C18   H25   S    
C41   O2    S    
C55   H9    S    
Cu1   Cu2   S    
C24   C32   A    
C41   C56   A    
C5    C9    A    
C38   H27   S    
C52   C59   A    
C46   H5    S    
Cu2   O9    S    
C61   N2    A    
C71   N1    S    
C51   C58   A    
C16   O8    A    
C58   H3    S    
C4    C17   S    
C28   H23   S    
C8    C10   A    
C47   N6    S    
C21   C28   A    
C22   H36   S    
C13   C15   A    
C9    C34   A    
C68   H12   S    
C70   H13   S    
C23   C74   A    
H31   N6    S    
C7    C9    A    
C66   H1    S    
C54   C55   A    
C1    C20   S    
C56   C73   A    
Cu1   O1    S    
C42   H7    S    
C59   H4    S    
C6    C10   A    
C5    C8    A    
C6    C7    A    
C20   C27   A    
C10   C23   A    
C37   H2    S    
C72   N2    S    
C7    C19   A    
Cu2   N3    S    
C31   C38   A    
C61   O3    S    
C13   H24   S    
C36   C38   A    
C29   C31   A    
C6    C13   A    
C30   C32   A    
C44   N3    A    
C49   C53   A    
C28   C30   A    
C19   H26   S    
C62   C71   A    
Cu1   O7    S    
C2    C14   A    
C43   C46   A    
C8    C18   A    
C25   H35   S    
C3    C66   A    
C47   N3    A    
C15   C74   A    
C63   C72   A    
C27   H33   S    
C68   C70   A    
C55   C58   A    
H29   N5    S    
C60   N1    A    
C70   C72   A    
C41   N2    A    
C3    C16   S    
