data_mof_unit_59122.cif
_audit_creation_date              2013-03-05T15:47:55-0500
_audit_creation_method            fapswitch 2.2
_symmetry_space_group_name_H-M    P1
_symmetry_Int_Tables_number       1
_space_group_crystal_system       triclinic
_cell_length_a                    11.733436
_cell_length_b                    12.95604
_cell_length_c                    13.455012
_cell_angle_alpha                 93.314174
_cell_angle_beta                  75.656105
_cell_angle_gamma                 99.698909
_cell_volume                      1953.051217

loop_
_atom_site_label
_atom_site_type_symbol
_atom_site_description
_atom_site_fract_x
_atom_site_fract_y
_atom_site_fract_z
_atom_type_partial_charge
O1    O     O_R   0.419710 0.645650 0.494620 -0.507295
O2    O     O_R   0.611450 0.658430 0.507430 -0.581900
C1    C     C_R   0.520548 0.700302 0.502094 0.877302
O3    O     O_R   0.357340 0.490460 0.641450 -0.551982
O4    O     O_R   0.549080 0.503250 0.654260 -0.614910
C2    C     C_R   0.435537 0.486948 0.695511 0.749068
Cu1   Cu    Cu3+1 0.386470 0.492430 0.492410 1.038599
Cu2   Cu    Cu3+1 0.613530 0.507570 0.507590 1.000707
O5    O     O_R   0.388550 0.341570 0.492570 -0.571833
O6    O     O_R   0.580290 0.354350 0.505380 -0.553529
O7    O     O_R   0.450920 0.496750 0.345740 -0.580201
O8    O     O_R   0.642660 0.509540 0.358550 -0.541295
C3    C     C_R   0.480089 0.299528 0.496167 0.844917
C4    C     C_R   0.564474 0.505657 0.303802 0.879994
C5    C     C_R   0.742988 0.472334 0.031722 -0.245845
H1    H     H_    0.761952 0.409965 0.838068 0.156272
H2    H     H_    0.832459 0.461302 0.991442 0.159948
C6    C     C_R   0.601862 0.503483 0.190802 -0.154307
C7    C     C_R   0.278172 0.477501 0.858013 -0.171022
C8    C     C_R   0.242895 0.480753 0.964231 -0.123904
C9    C     C_R   0.325808 0.481971 0.022482 -0.156773
C10   C     C_R   0.445985 0.472857 0.975157 0.078242
C11   C     C_R   0.477853 0.456732 0.867138 0.076507
C12   C     C_R   0.535566 0.478265 0.031086 0.067479
C13   C     C_R   0.651939 0.461064 0.979494 0.087307
C14   C     C_R   0.675783 0.430345 0.876694 -0.205079
C15   C     C_R   0.588965 0.424780 0.822300 -0.193745
C16   C     C_R   0.513401 0.500377 0.136693 -0.267813
C17   C     C_R   0.719887 0.497142 0.136302 0.469137
C18   C     C_R   0.396542 0.470921 0.807810 -0.122147
H3    H     H_    0.426813 0.514268 0.179296 0.187629
H4    H     H_    0.212315 0.480732 0.815299 0.211117
H5    H     H_    0.291619 0.487207 0.104290 0.159213
H6    H     H_    0.150899 0.485049 0.001690 0.168090
H7    H     H_    0.610013 0.392182 0.745544 0.178713
C19   C     C_R   0.472382 0.186576 0.485696 -0.099455
C20   C     C_R   0.529179 0.813363 0.509153 -0.245643
C21   C     C_R   0.577040 0.977179 0.597001 -0.221765
C22   C     C_R   0.574876 0.869422 0.587730 0.404655
C23   C     C_R   0.481745 0.864284 0.442852 0.285340
C24   C     C_R   0.478079 0.971871 0.456727 -0.007167
C25   C     C_R   0.527003 0.028242 0.533682 0.050949
C26   C     C_R   0.526251 0.135488 0.545845 -0.220435
C27   C     C_R   0.417588 0.130727 0.412597 0.426565
C28   C     C_R   0.427419 0.024585 0.394771 -0.214961
H8    H     H_    0.566720 0.179497 0.602885 0.159391
H9    H     H_    0.615089 0.020378 0.655695 0.163218
H10   H     H_    0.394628 0.983960 0.332605 0.188241
N1    N     N_R   0.215880 0.481050 0.481000 -0.257701
N2    N     N_R   0.784100 0.518950 0.519000 -0.252854
C29   C     C_R   0.944160 0.602885 0.591261 -0.217434
C30   C     C_R   0.826680 0.593448 0.581761 -0.003736
C31   C     C_R   0.857597 0.452888 0.461695 0.511319
C32   C     C_R   0.980956 0.467314 0.460894 -0.181043
C33   C     C_R   0.022526 0.539025 0.531359 -0.110023
C34   C     C_R   0.141710 0.545120 0.539980 0.532543
C35   C     C_R   0.179060 0.417037 0.407704 -0.095581
C36   C     C_R   0.063704 0.411390 0.393036 0.254940
H11   H     H_    0.242216 0.374673 0.356175 0.187362
H12   H     H_    0.972906 0.660732 0.644966 0.207177
H13   H     H_    0.768347 0.644276 0.626831 0.177431
O9    O     O_3   0.811908 0.506232 0.185055 -0.536228
C37   C     C_3   0.854912 0.613305 0.200755 0.127337
H14   H     H_    0.878971 0.620632 0.276012 0.184308
H15   H     H_    0.787611 0.666166 0.205361 0.117458
C38   C     C_3   0.966987 0.649680 0.116888 -0.368117
H16   H     H_    0.033429 0.597303 0.114372 0.250984
H17   H     H_    0.944249 0.645370 0.041201 0.214782
C39   C     C_3   0.022289 0.761728 0.137092 -0.879017
H18   H     H_    0.958081 0.816218 0.139029 0.265271
H19   H     H_    0.103202 0.785658 0.074982 0.263503
H20   H     H_    0.048366 0.767082 0.211378 0.267324
O10   O     O_3   0.366462 0.183703 0.352291 -0.611931
C40   C     C_3   0.252504 0.130055 0.345971 0.056931
H21   H     H_    0.187613 0.184869 0.371665 0.195804
H22   H     H_    0.217468 0.061561 0.397679 0.141092
C41   C     C_3   0.254812 0.096728 0.234474 -0.311094
H23   H     H_    0.266497 0.167504 0.187805 0.248598
H24   H     H_    0.331486 0.054984 0.202226 0.217413
C42   C     C_3   0.140350 0.024558 0.226156 -0.821642
H25   H     H_    0.130823 0.951124 0.268237 0.253864
H26   H     H_    0.143568 0.004326 0.144283 0.253778
H27   H     H_    0.061495 0.063468 0.258559 0.299287
O11   O     O_3   0.622970 0.820805 0.653164 -0.603647
C43   C     C_3   0.530967 0.767653 0.731058 0.069605
H28   H     H_    0.563334 0.697811 0.751368 0.172259
H29   H     H_    0.446940 0.738044 0.706623 0.143903
C44   C     C_3   0.504274 0.837356 0.827068 -0.373947
H30   H     H_    0.588208 0.866944 0.850950 0.238926
H31   H     H_    0.466720 0.905486 0.809645 0.217439
C45   C     C_3   0.415191 0.776861 0.915324 -0.844878
H32   H     H_    0.330314 0.746666 0.893266 0.268247
H33   H     H_    0.396209 0.829486 0.983474 0.261773
H34   H     H_    0.452337 0.710046 0.936220 0.262660
N3    N     N_R   0.438709 0.806539 0.361347 0.124161
O12   O     O_R   0.510222 0.758642 0.291316 -0.404000
O13   O     O_R   0.325814 0.792896 0.362997 -0.343676
N4    N     N_R   0.185335 0.620659 0.609005 0.123784
O14   O     O_R   0.157688 0.599876 0.706135 -0.433120
O15   O     O_R   0.213972 0.718229 0.582011 -0.350675
N5    N     N_R   0.038538 0.361640 0.301183 0.159146
O16   O     O_R   0.009088 0.416424 0.236213 -0.326294
O17   O     O_R   0.070230 0.271235 0.271644 -0.385089
N6    N     N_R   0.806742 0.358079 0.418061 0.153267
O18   O     O_R   0.811197 0.268522 0.454829 -0.369996
O19   O     O_R   0.770737 0.359093 0.334376 -0.257547

loop_
_geom_bond_atom_site_label_1
_geom_bond_atom_site_label_2
_geom_bond_distance
_ccdc_geom_bond_type
C38   H17   1.111048 S    
C33   C34   1.420362 A    
C37   H15   1.117818 S    
N5    O16   1.300555 A    
C24   C25   1.414524 A    
C4    C6    1.474335 S    
C7    C8    1.386159 A    
C34   N4    1.429694 S    
N6    O19   1.298372 A    
Cu1   Cu2   2.695742 S    
C43   H28   1.110626 S    
Cu1   O7    1.930949 S    
C14   C15   1.384589 A    
C40   H22   1.116824 S    
C22   O11   1.385769 S    
C21   C25   1.397169 A    
C20   C23   1.406624 A    
C30   H13   1.081617 S    
C42   H27   1.110027 S    
C21   C22   1.390974 A    
O7    C4    1.300060 A    
C35   H11   1.081473 S    
C38   C39   1.525371 S    
C9    H5    1.076522 S    
C31   N6    1.432758 S    
N1    C35   1.357522 A    
C5    H2    1.084399 S    
O10   C40   1.419361 S    
C39   H19   1.110625 S    
O5    C3    1.295605 A    
C32   C33   1.405216 A    
N3    O12   1.301196 A    
C40   C41   1.531880 S    
N2    C30   1.358909 A    
C11   C15   1.413616 A    
C8    H6    1.081538 S    
C44   H30   1.111515 S    
C41   H24   1.110653 S    
C38   H16   1.109918 S    
C37   C38   1.530417 S    
N5    O17   1.299175 A    
C9    C10   1.417842 A    
C27   O10   1.390563 S    
O3    Cu1   1.949926 S    
C7    H4    1.078362 S    
N6    O18   1.301305 A    
C5    C17   1.394589 A    
C43   H29   1.116199 S    
H1    C14   1.084331 S    
N2    C31   1.383365 A    
C40   H21   1.107685 S    
C29   C30   1.400042 A    
C11   C18   1.426412 A    
C6    C16   1.402129 A    
O11   C43   1.417877 S    
Cu1   N1    2.025325 S    
C3    C19   1.451713 S    
C42   H26   1.110412 S    
C45   H32   1.111170 S    
C6    C17   1.410836 A    
C28   H10   1.079374 S    
C15   H7    1.079009 S    
C13   C14   1.389957 A    
C41   H23   1.111523 S    
O1    C1    1.296078 A    
C39   H20   1.110779 S    
O9    C37   1.416594 S    
C45   H33   1.110396 S    
C44   C45   1.527591 S    
Cu2   O8    1.949926 S    
C36   N5    1.433409 S    
C12   C13   1.418101 A    
C21   H9    1.084274 S    
O3    C2    1.312096 A    
C23   C24   1.402059 A    
C2    C18   1.482313 S    
C44   H31   1.111048 S    
N4    O15   1.300888 A    
C10   C12   1.427234 A    
C19   C27   1.406613 A    
C25   C26   1.390924 A    
C23   N3    1.438616 S    
Cu2   N2    2.025092 S    
C27   C28   1.401267 A    
C32   C36   1.422179 A    
C43   C44   1.530494 S    
Cu1   O5    1.958941 S    
C17   O9    1.381700 S    
O1    Cu1   1.957490 S    
C16   H3    1.074377 S    
O2    Cu2   1.958938 S    
C12   C16   1.401334 A    
O8    C4    1.304516 A    
C42   H25   1.110568 S    
O6    C3    1.297229 A    
O4    Cu2   1.930949 S    
N3    O13   1.301305 A    
C31   C32   1.425292 A    
N1    C34   1.378857 A    
O2    C1    1.294016 A    
C20   C22   1.411976 A    
C45   H34   1.111025 S    
C41   C42   1.526367 S    
C35   C36   1.404860 A    
O4    C2    1.296113 A    
C29   C33   1.411259 A    
C39   H18   1.110860 S    
C26   H8    1.085507 S    
C5    C13   1.401427 A    
C37   H14   1.111552 S    
C8    C9    1.390028 A    
C1    C20   1.450414 S    
Cu2   O6    1.957491 S    
N4    O14   1.298807 A    
C24   C28   1.401003 A    
C10   C11   1.420474 A    
C19   C26   1.396048 A    
C29   H12   1.081935 S    
C7    C18   1.400341 A    
