data_mof_unit_51011.cif
_audit_creation_date              2012-12-11T14:13:05-0500
_audit_creation_method            fapswitch 2.2
_symmetry_space_group_name_H-M    P1
_symmetry_Int_Tables_number       1
_space_group_crystal_system       triclinic
_cell_length_a                    11.68686
_cell_length_b                    18.475714
_cell_length_c                    9.946238
_cell_angle_alpha                 89.832498
_cell_angle_beta                  111.366491
_cell_angle_gamma                 90.149995
_cell_volume                      2000.00292393

loop_
_atom_site_label
_atom_site_type_symbol
_atom_type_description
_atom_site_fract_x
_atom_site_fract_y
_atom_site_fract_z
_atom_type_partial_charge
C1    C     C_R   0.072903 0.646335 0.139648 0.567188
C2    C     C_R   0.928091 0.353160 0.860720 0.568088
C3    C     C_R   0.926369 0.146049 0.860239 0.569909
C4    C     C_R   0.071561 0.853054 0.139015 0.553910
C5    C     C_R   0.396286 0.457328 0.451823 -0.001050
C6    C     C_R   0.608063 0.546016 0.559404 -0.015736
C7    C     C_R   0.608689 0.955944 0.541018 -0.035923
C8    C     C_R   0.393378 0.042800 0.459779 0.007715
C9    C     C_2   0.369372 0.941151 0.982598 0.045108
C10   C     C_2   0.598082 0.074308 0.092321 0.047197
C11   C     C_2   0.629009 0.440630 0.021843 0.053467
C12   C     C_2   0.402538 0.574776 0.907721 0.058190
C13   C     C_2   0.449107 0.979997 0.090527 -0.146459
C14   C     C_2   0.481639 0.055068 0.068995 -0.116130
C15   C     C_2   0.552248 0.480592 0.913431 -0.157144
C16   C     C_2   0.519597 0.555271 0.935933 -0.117045
C17   C     C_2   0.002299 0.919487 0.108437 -0.083141
C18   C     C_2   0.983186 0.075806 0.886237 -0.100547
C19   C     C_2   0.994491 0.420513 0.891435 -0.074498
C20   C     C_2   0.008712 0.578178 0.110020 -0.092611
C21   C     C_2   0.999306 0.958196 0.994350 -0.157308
C22   C     C_2   0.958958 0.032229 0.979387 -0.154825
C23   C     C_2   0.974330 0.464273 0.986423 -0.156400
C24   C     C_2   0.028072 0.535148 0.013254 -0.141163
C25   C     C_R   0.468511 0.646765 0.443354 0.608025
C26   C     C_R   0.532161 0.353910 0.558094 0.552080
C27   C     C_R   0.531554 0.146448 0.557995 0.586294
C28   C     C_R   0.468808 0.853223 0.442498 0.553812
C29   C     C_R   0.375799 0.644736 0.961070 0.551184
C30   C     C_R   0.646029 0.363571 0.994673 0.525829
C31   C     C_R   0.624183 0.144678 0.039082 0.538102
C32   C     C_R   0.353403 0.863354 0.006760 0.531892
C33   C     C_R   0.513304 0.426770 0.490922 0.026394
C34   C     C_R   0.490469 0.576064 0.518931 0.003248
C35   C     C_R   0.492741 0.924489 0.513867 -0.046719
C36   C     C_R   0.509149 0.074583 0.488232 0.008598
C37   C     C_R   0.287704 0.418455 0.373128 0.083983
C38   C     C_R   0.716887 0.586081 0.634715 0.066932
C39   C     C_R   0.719749 0.915091 0.593719 0.037349
C40   C     C_R   0.281784 0.082563 0.400427 0.084545
C41   C     C_R   0.174693 0.443898 0.373331 -0.114300
C42   C     C_R   0.829937 0.559111 0.637897 -0.109096
C43   C     C_R   0.829298 0.945750 0.593769 -0.120784
C44   C     C_R   0.171731 0.051846 0.399361 -0.123972
C45   C     C_R   0.168966 0.509447 0.438875 -0.125500
C46   C     C_R   0.835881 0.492493 0.576592 -0.144393
C47   C     C_R   0.830457 0.015678 0.544082 -0.118998
C48   C     C_R   0.170984 0.982843 0.453730 -0.130629
C49   C     C_R   0.273243 0.553013 0.493163 -0.045284
C50   C     C_R   0.731702 0.449201 0.522365 -0.017294
C51   C     C_R   0.723637 0.056800 0.498809 -0.035030
C52   C     C_R   0.278494 0.942466 0.503904 -0.009000
C53   C     C_R   0.387087 0.529458 0.490312 -0.041166
C54   C     C_R   0.617648 0.473137 0.523711 0.001241
C55   C     C_R   0.613510 0.029813 0.508446 -0.024099
C56   C     C_R   0.388892 0.969363 0.494819 -0.003941
Cr1   Cr    Cr6+3 0.187610 0.750000 0.979860 1.097066
Cr2   Cr    Cr6+3 0.812390 0.250000 0.020140 1.110609
Cr3   Cr    Cr6+3 0.245810 0.750000 0.341640 1.036469
Cr4   Cr    Cr6+3 0.754190 0.250000 0.658360 1.033594
Cr5   Cr    Cr6+3 0.485760 0.750000 0.219910 1.113068
Cr6   Cr    Cr6+3 0.514240 0.250000 0.780090 1.086508
H1    H     H_    0.090112 0.414813 0.317600 0.176924
H2    H     H_    0.914484 0.588809 0.690165 0.181041
H3    H     H_    0.914372 0.915439 0.632942 0.154372
H4    H     H_    0.085609 0.080767 0.353742 0.158397
H5    H     H_    0.081975 0.528697 0.439949 0.122813
H6    H     H_    0.922625 0.472678 0.576123 0.099041
H7    H     H_    0.914985 0.038553 0.541562 0.123279
H8    H     H_    0.085989 0.959737 0.454286 0.106711
H9    H     H_    0.264449 0.604248 0.540700 0.187076
H10   H     H_    0.740810 0.398366 0.473791 0.186532
H11   H     H_    0.728016 0.109063 0.451899 0.180625
H12   H     H_    0.274329 0.890628 0.552607 0.175667
H13   H     H_    0.407801 0.093265 0.018153 0.182030
H14   H     H_    0.500845 0.953751 0.192521 0.166641
H15   H     H_    0.593515 0.592837 0.990929 0.178147
H16   H     H_    0.503391 0.455622 0.809290 0.159779
H17   H     H_    0.907416 0.051048 0.043881 0.197525
H18   H     H_    0.036612 0.937170 0.917310 0.202949
H19   H     H_    0.087018 0.551704 0.955599 0.192724
H20   H     H_    0.913378 0.448463 0.041618 0.190113
H21   H     H_    0.030813 0.056690 0.818053 0.120058
H22   H     H_    0.969224 0.941126 0.188177 0.115542
H23   H     H_    0.955726 0.560643 0.173976 0.118735
H24   H     H_    0.050118 0.436664 0.830077 0.123383
O1    O     O_R   0.267710 0.668200 0.902110 -0.469759
O2    O     O_R   0.732290 0.331800 0.097890 -0.465180
O3    O     O_R   0.732290 0.168200 0.097890 -0.468778
O4    O     O_R   0.267710 0.831800 0.902110 -0.466613
O5    O     O_R   0.099480 0.674460 0.038850 -0.471966
O6    O     O_R   0.900520 0.325540 0.961150 -0.482439
O7    O     O_R   0.900520 0.174460 0.961150 -0.474173
O8    O     O_R   0.099480 0.825540 0.038850 -0.502877
O9    O     O_R   0.116720 0.669210 0.267660 -0.519418
O10   O     O_R   0.883280 0.330790 0.732340 -0.527609
O11   O     O_R   0.883280 0.169210 0.732340 -0.518332
O12   O     O_R   0.116720 0.830790 0.267660 -0.519736
O13   O     O_R   0.366710 0.675440 0.427590 -0.513172
O14   O     O_R   0.633290 0.324560 0.572410 -0.514449
O15   O     O_R   0.633290 0.175440 0.572410 -0.515874
O16   O     O_R   0.366710 0.824560 0.427590 -0.516466
O17   O     O_R   0.534870 0.669390 0.371760 -0.462053
O18   O     O_R   0.465130 0.330610 0.628240 -0.503559
O19   O     O_R   0.465130 0.169390 0.628240 -0.473200
O20   O     O_R   0.534870 0.830610 0.371760 -0.492161
O21   O     O_R   0.453080 0.674480 0.075160 -0.485915
O22   O     O_R   0.546920 0.325520 0.924840 -0.483071
O23   O     O_R   0.546920 0.174480 0.924840 -0.491006
O24   O     O_R   0.453080 0.825520 0.075160 -0.476310
O25   O     O_3   0.306390 0.750000 0.180470 -0.301654
O26   O     O_3   0.693610 0.250000 0.819530 -0.299850
C57   C     C_2   0.287775 0.362785 0.265396 0.591430
O27   O     O_2   0.193984 0.329008 0.199816 -0.481702
O28   O     O_R   0.391274 0.354410 0.227698 -0.687292
H25   H     H_    0.375249 0.322884 0.139561 0.344868
C58   C     C_2   0.718727 0.647973 0.731439 0.607417
O29   O     O_2   0.623960 0.669940 0.742452 -0.504995
O30   O     O_R   0.831299 0.677764 0.819232 -0.663270
H26   H     H_    0.822234 0.715990 0.887575 0.370538
C59   C     C_2   0.726881 0.842256 0.658890 0.597115
O31   O     O_2   0.788376 0.795499 0.631024 -0.443394
O32   O     O_R   0.666646 0.826272 0.753839 -0.642666
H27   H     H_    0.627566 0.870125 0.780404 0.311510
C60   C     C_2   0.274144 0.150905 0.319903 0.580900
O33   O     O_2   0.192643 0.194360 0.309365 -0.465467
O34   O     O_R   0.355564 0.163459 0.248594 -0.731114
H28   H     H_    0.333398 0.207914 0.185013 0.352140
C61   C     C_2   0.704259 0.024174 0.159700 0.548005
O35   O     O_2   0.694278 0.959111 0.135718 -0.515367
O36   O     O_R   0.817572 0.052585 0.247728 -0.715210
H29   H     H_    0.880882 0.013850 0.292803 0.309120
C62   C     C_2   0.291579 0.975646 0.843251 0.558200
O37   O     O_2   0.333168 0.023100 0.788036 -0.520020
O38   O     O_R   0.169845 0.953494 0.775550 -0.726690
H30   H     H_    0.122108 0.985986 0.692238 0.312474
C63   C     C_2   0.296469 0.524874 0.836587 0.548841
O39   O     O_2   0.305839 0.459630 0.859061 -0.510049
O40   O     O_R   0.183911 0.553533 0.747044 -0.715658
H31   H     H_    0.120393 0.514843 0.701783 0.309965
C64   C     C_2   0.702292 0.473248 0.164941 0.564278
O41   O     O_2   0.656447 0.518032 0.220378 -0.506292
O42   O     O_R   0.824455 0.452477 0.235820 -0.726725
H32   H     H_    0.868480 0.483198 0.323435 0.317216

loop_
_geom_bond_atom_site_label_1
_geom_bond_atom_site_label_2
_ccdc_geom_bond_type
C44   C48   A    
C23   H20   S    
C4    O12   A    
C12   C29   S    
Cr3   O13   S    
C44   H4    S    
C7    C55   A    
C19   H24   S    
C6    C34   A    
C8    C56   A    
Cr2   O6    S    
C62   O37   D    
O38   H30   S    
Cr6   O19   S    
C63   O40   S    
C50   C54   A    
C32   O24   A    
Cr2   O26   S    
C5    C53   A    
Cr5   O17   S    
Cr2   O7    S    
C22   H17   S    
C38   C42   A    
C52   H12   S    
C58   O30   S    
C42   C46   A    
C15   H16   S    
C37   C57   S    
C5    C37   A    
C27   O19   A    
C15   C16   S    
C3    C18   S    
C16   H15   S    
C8    C36   A    
C9    C13   D    
C47   H7    S    
C50   H10   S    
C9    C32   S    
C26   O18   A    
C38   C58   S    
C11   C15   D    
C10   C31   S    
C25   O13   A    
C32   O4    A    
C20   C24   D    
C11   C30   S    
C28   O20   A    
C31   O3    A    
C5    C33   A    
C45   H5    S    
Cr3   O25   S    
C23   C24   S    
C6    C38   A    
C40   C44   A    
C43   H3    S    
C25   C34   S    
C35   C56   A    
C1    O5    A    
C21   C22   S    
Cr3   O9    S    
C6    C54   A    
Cr5   O24   S    
Cr6   O18   S    
C59   O32   S    
Cr1   O4    S    
C12   C16   D    
O32   H27   S    
C28   C35   S    
Cr4   O11   S    
C10   C14   D    
C25   O17   A    
C39   C43   A    
C27   O15   A    
C17   C21   D    
Cr1   O1    S    
C19   C23   D    
C24   H19   S    
C46   H6    S    
Cr4   O26   S    
C3    O11   A    
C26   C33   S    
C13   H14   S    
C45   C49   A    
C1    O9    A    
C20   H23   S    
C18   H21   S    
C31   O23   A    
Cr6   O26   S    
C3    O7    A    
O30   H26   S    
C2    O6    A    
Cr5   O20   S    
C11   C64   S    
C59   O31   D    
C4    O8    A    
C4    C17   S    
Cr4   O10   S    
Cr1   O8    S    
C64   O41   D    
C60   O33   D    
C41   H1    S    
C30   O2    A    
Cr4   O15   S    
Cr5   O25   S    
C42   H2    S    
C62   O38   S    
C57   O27   D    
C33   C54   A    
C1    C20   S    
C7    C39   A    
Cr1   O5    S    
C30   O22   A    
C2    C19   S    
C18   C22   D    
Cr3   O16   S    
C7    C35   A    
C51   H11   S    
C48   H8    S    
Cr4   O14   S    
Cr2   O2    S    
C47   C51   A    
O40   H31   S    
O34   H28   S    
C27   C36   S    
C63   O39   D    
C46   C50   A    
C39   C59   S    
C17   H22   S    
C14   H13   S    
C64   O42   S    
C61   O35   D    
C10   C61   S    
C36   C55   A    
C58   O29   D    
O28   H25   S    
Cr1   O25   S    
Cr6   O23   S    
C52   C56   A    
C49   C53   A    
C40   C60   S    
C21   H18   S    
C2    O10   A    
C51   C55   A    
C37   C41   A    
O36   H29   S    
Cr5   O21   S    
Cr2   O3    S    
C29   O1    A    
C28   O16   A    
C48   C52   A    
Cr6   O22   S    
C34   C53   A    
C49   H9    S    
C60   O34   S    
Cr3   O12   S    
C41   C45   A    
C12   C63   S    
C29   O21   A    
C8    C40   A    
C57   O28   S    
C13   C14   S    
C43   C47   A    
O42   H32   S    
C26   O14   A    
C61   O36   S    
C9    C62   S    
