data_mof_unit_63760.cif
_audit_creation_date              2012-10-26T21:26:40-0400
_audit_creation_method            fapswitch 2.2
_symmetry_space_group_name_H-M    P1
_symmetry_Int_Tables_number       1
_space_group_crystal_system       triclinic
_cell_length_a                    15.872005
_cell_length_b                    17.960608
_cell_length_c                    29.185033
_cell_angle_alpha                 90.158276
_cell_angle_beta                  89.998074
_cell_angle_gamma                 90.14066
_cell_volume                      8319.74563708

loop_
_atom_site_label
_atom_site_type_symbol
_atom_type_description
_atom_site_fract_x
_atom_site_fract_y
_atom_site_fract_z
_atom_type_partial_charge
C1    C     C_R   0.499932 0.389966 0.058958 0.546106
C2    C     C_1   0.379089 0.997911 0.763914 0.060498
C3    C     C_1   0.490787 0.876129 0.829743 0.093560
C4    C     C_1   0.489261 0.120920 0.830516 0.094428
C5    C     C_1   0.307293 0.997330 0.750323 0.130536
C6    C     C_1   0.560749 0.000436 0.702864 0.134840
C7    C     C_R   0.597368 0.020794 0.293519 -0.142317
C8    C     C_R   0.413854 0.898617 0.319419 -0.141642
C9    C     C_R   0.381859 0.015589 0.283117 -0.154893
C10   C     C_R   0.622718 0.889074 0.300877 -0.153419
C11   C     C_R   0.659338 0.036527 0.326423 0.003238
C12   C     C_R   0.500081 0.610208 0.058890 0.558598
C13   C     C_R   0.354862 0.912550 0.353927 0.002599
C14   C     C_R   0.321566 0.031458 0.316972 0.003472
C15   C     C_R   0.685459 0.902478 0.333617 0.001920
C16   C     C_R   0.570986 0.016258 0.187742 -0.119892
C17   C     C_R   0.424186 0.808246 0.230009 -0.119313
C18   C     C_R   0.422946 0.986194 0.179877 -0.107994
C19   C     C_R   0.569471 0.823801 0.206735 -0.106667
C20   C     C_R   0.567695 0.056535 0.146877 -0.103959
C21   C     C_R   0.425201 0.735241 0.213365 -0.099019
C22   C     C_R   0.419872 0.026502 0.139035 -0.094855
C23   C     C_R   0.606598 0.001806 0.659755 0.036535
C24   C     C_R   0.570324 0.750741 0.190131 -0.104498
C25   C     C_R   0.499959 0.611813 0.942199 0.572165
C26   C     C_R   0.499829 0.387732 0.942288 0.570391
C27   C     C_3   0.500330 0.932788 0.249148 0.005796
C28   C     C_R   0.578767 0.947464 0.279514 0.005849
C29   C     C_R   0.426896 0.948114 0.282794 0.005109
C30   C     C_R   0.703379 0.976832 0.347172 0.057075
C31   C     C_R   0.307169 0.979202 0.352572 0.057742
C32   C     C_R   0.497829 0.982318 0.205955 0.020723
C33   C     C_R   0.497955 0.852605 0.229488 0.022129
C34   C     C_R   0.221824 0.996533 0.732777 0.039954
C35   C     C_R   0.492116 0.062122 0.122584 0.032466
C36   C     C_R   0.498753 0.705786 0.194354 0.033306
C37   C     C_1   0.242702 0.991911 0.386662 0.091222
C38   C     C_1   0.762955 0.990537 0.383721 0.100273
C39   C     C_1   0.188639 0.998286 0.415371 0.077858
C40   C     C_1   0.813541 0.997691 0.414205 0.106438
C41   C     C_1   0.489277 0.102883 0.080196 -0.009852
C42   C     C_1   0.500965 0.629165 0.179787 -0.023926
C43   C     C_1   0.487076 0.136929 0.044673 0.058907
C44   C     C_1   0.502827 0.564764 0.168065 -0.005759
C45   C     C_R   0.685533 0.005031 0.574071 0.121372
C46   C     C_R   0.123680 0.999874 0.449366 0.552411
C47   C     C_R   0.875884 0.999731 0.449615 0.577222
C48   C     C_R   0.554526 0.754179 0.849170 0.096398
C49   C     C_R   0.430716 0.199993 0.891833 0.100835
C50   C     C_R   0.439677 0.803183 0.895570 0.102180
C51   C     C_R   0.560786 0.237732 0.854208 0.095802
C52   C     C_R   0.892987 0.000009 0.569462 0.627279
C53   C     C_R   0.107209 0.000125 0.569390 0.536794
C54   C     C_R   0.555224 0.688435 0.875720 0.069916
C55   C     C_R   0.434455 0.263696 0.920251 0.070269
C56   C     C_R   0.065197 0.993995 0.689065 0.137656
C57   C     C_R   0.442764 0.739453 0.923729 0.072847
C58   C     C_R   0.562141 0.304358 0.880175 0.072932
C59   C     C_R   0.622294 0.934011 0.635784 -0.038258
C60   C     C_R   0.182979 0.064569 0.719788 -0.042073
C61   C     C_R   0.180889 0.927289 0.724394 -0.041650
C62   C     C_R   0.629317 0.071326 0.639781 -0.038993
C63   C     C_R   0.662906 0.936485 0.592605 -0.040692
C64   C     C_R   0.103800 0.062489 0.697468 -0.044099
C65   C     C_R   0.101733 0.926758 0.702024 -0.040844
C66   C     C_R   0.669842 0.072049 0.596559 -0.041667
C67   C     C_1   0.482583 0.931335 0.806490 0.064789
C68   C     C_3   0.467076 0.998556 0.779085 -0.032724
C69   C     C_R   0.495614 0.810529 0.858526 -0.004910
C70   C     C_R   0.493994 0.186946 0.859181 -0.006462
C71   C     C_R   0.499207 0.680421 0.913295 -0.022571
C72   C     C_R   0.498666 0.318266 0.913569 -0.026727
C73   C     C_2   0.686221 0.868576 0.566436 0.237898
C74   C     C_2   0.057735 0.130667 0.683656 0.240782
C75   C     C_2   0.053567 0.857360 0.692837 0.245070
C76   C     C_2   0.700177 0.141447 0.574412 0.240453
C77   C     C_2   0.592621 0.861122 0.654102 0.233043
C78   C     C_1   0.481530 0.065642 0.807064 0.065745
C79   C     C_2   0.225871 0.137351 0.727868 0.228317
C80   C     C_2   0.221590 0.855641 0.737307 0.230070
C81   C     C_2   0.607031 0.143223 0.662298 0.234514
C82   C     C_2   0.673533 0.116315 0.338231 0.237932
C83   C     C_2   0.346948 0.855133 0.390502 0.231070
C84   C     C_2   0.276716 0.103987 0.313443 0.229757
C85   C     C_2   0.728124 0.835826 0.353177 0.237294
C86   C     C_1   0.520570 0.999451 0.738050 0.061240
Cu1   Cu    Cu3+1 0.415470 0.500000 0.000080 1.074891
Cu2   Cu    Cu3+1 0.584530 0.500000 0.000080 1.052474
Cu3   Cu    Cu3+1 0.000000 0.072960 0.508900 1.088677
Cu4   Cu    Cu3+1 0.000000 0.927040 0.508900 1.095670
H1    H     H_    0.624563 0.082430 0.133868 0.123086
H2    H     H_    0.365333 0.829369 0.243318 0.119837
H3    H     H_    0.366539 0.957725 0.191282 0.121043
H4    H     H_    0.625840 0.857373 0.203202 0.121150
H5    H     H_    0.680569 0.813692 0.581413 0.115441
H6    H     H_    0.079250 0.185472 0.693958 0.114863
H7    H     H_    0.073380 0.804424 0.706806 0.114624
H8    H     H_    0.700231 0.194102 0.592583 0.115732
H9    H     H_    0.573740 0.816869 0.630931 0.105756
H10   H     H_    0.218868 0.182464 0.703582 0.100114
H11   H     H_    0.213124 0.806456 0.716185 0.102819
H12   H     H_    0.368590 0.701603 0.215575 0.124616
H13   H     H_    0.592855 0.191863 0.641823 0.106356
H14   H     H_    0.633953 0.158682 0.322863 0.111204
H15   H     H_    0.380299 0.802715 0.386938 0.113119
H16   H     H_    0.288412 0.139795 0.284197 0.111207
H17   H     H_    0.704722 0.780573 0.344813 0.112165
H18   H     H_    0.361294 0.029227 0.120060 0.134334
H19   H     H_    0.627145 0.729087 0.174487 0.122633
H20   H     H_    0.561291 0.066328 0.279239 0.104275
H21   H     H_    0.451473 0.848453 0.321333 0.105005
H22   H     H_    0.395173 0.057707 0.257702 0.104710
H23   H     H_    0.606093 0.831834 0.293671 0.104606
H24   H     H_    0.631589 0.010574 0.204234 0.120761
I1    I     I_    0.638016 0.599964 0.856510 -0.170142
I2    I     I_    0.346428 0.270749 0.976102 -0.238000
I3    I     I_    0.366082 0.737277 0.984290 -0.232696
I4    I     I_    0.659212 0.384103 0.865996 -0.165985
I5    I     I_    0.643061 0.770430 0.794781 -0.150682
I6    I     I_    0.329052 0.121400 0.897403 -0.173771
I7    I     I_    0.350222 0.890265 0.908272 -0.186373
I8    I     I_    0.660467 0.211103 0.807497 -0.154216
O1    O     O_R   0.429360 0.416280 0.044700 -0.495725
O2    O     O_R   0.906590 0.940530 0.464300 -0.479056
O3    O     O_R   0.906590 0.059470 0.464300 -0.488739
O4    O     O_R   0.093410 0.940530 0.464300 -0.498273
O5    O     O_R   0.920740 0.061400 0.553530 -0.457138
O6    O     O_R   0.079260 0.938600 0.553530 -0.484301
O7    O     O_R   0.079260 0.061400 0.553530 -0.485987
O8    O     O_R   0.920740 0.938600 0.553530 -0.467401
O9    O     O_2   0.713793 0.873316 0.527459 -0.463331
O10   O     O_2   0.993554 0.126284 0.660682 -0.467902
O11   O     O_2   0.989541 0.858685 0.669615 -0.461542
O12   O     O_R   0.570640 0.583720 0.044700 -0.516051
O13   O     O_2   0.727205 0.140366 0.535215 -0.457134
O14   O     O_2   0.589313 0.849273 0.695186 -0.456736
O15   O     O_2   0.268605 0.148103 0.762055 -0.457116
O16   O     O_2   0.264116 0.850464 0.772016 -0.457529
O17   O     O_2   0.604696 0.149324 0.703901 -0.455941
O18   O     O_2   0.729131 0.136301 0.364432 -0.477265
O19   O     O_2   0.305197 0.865148 0.425067 -0.495528
O20   O     O_2   0.227256 0.125331 0.342645 -0.490476
O21   O     O_2   0.790052 0.840741 0.377777 -0.482446
O22   O     O_R   0.570640 0.416280 0.044700 -0.514596
O23   O     O_R   0.429360 0.583720 0.044700 -0.494742
O24   O     O_R   0.427420 0.583550 0.955440 -0.481496
O25   O     O_R   0.572580 0.416450 0.955440 -0.481078
O26   O     O_R   0.572580 0.583550 0.955440 -0.482294
O27   O     O_R   0.427420 0.416450 0.955440 -0.479798
O28   O     O_R   0.093410 0.059470 0.464300 -0.505627

loop_
_geom_bond_atom_site_label_1
_geom_bond_atom_site_label_2
_ccdc_geom_bond_type
C40   C47   S    
C38   C40   T    
Cu1   Cu2   S    
C73   O9    D    
C60   C79   S    
C8    C13   A    
Cu1   O24   S    
C74   O10   D    
C27   C29   S    
C26   C72   S    
C36   C42   S    
C58   I4    S    
C48   C69   A    
C85   O21   D    
C4    C70   S    
Cu3   O7    S    
C21   C36   A    
Cu3   O3    S    
C27   C33   S    
C23   C59   A    
C22   C35   A    
C17   H2    S    
C24   C36   A    
C17   C33   A    
C8    C29   A    
C3    C69   S    
C50   C69   A    
C2    C68   S    
C10   C15   A    
C81   H13   S    
C80   O16   D    
C49   I6    S    
C55   I2    S    
C61   C80   S    
C76   H8    S    
C56   C65   A    
C75   H7    S    
C68   C86   S    
C30   C38   S    
C82   O18   D    
C20   C35   A    
C52   O5    A    
C23   C62   A    
C54   C71   A    
C11   C30   A    
C84   H16   S    
C56   C64   A    
C25   O24   A    
C25   C71   S    
C77   O14   D    
C14   C84   S    
C14   C31   A    
C55   C72   A    
C9    C29   A    
C15   C85   S    
C9    H22   S    
C12   O12   A    
C5    C34   S    
C34   C60   A    
C41   C43   T    
C59   C77   S    
C50   I7    S    
C42   C44   T    
C76   O13   D    
C46   O4    A    
C47   O3    A    
C48   I5    S    
C11   C82   S    
C68   C78   S    
C20   H1    S    
C62   C66   A    
C67   C68   S    
C74   H6    S    
C79   H10   S    
C19   C33   A    
C8    H21   S    
C83   O19   D    
C63   C73   S    
C49   C55   A    
C45   C63   A    
C34   C61   A    
C17   C21   A    
C7    C28   A    
C31   C37   S    
C12   O23   A    
C48   C54   A    
C9    C14   A    
C1    O1    A    
C4    C78   T    
C53   O6    A    
C61   C65   A    
C7    C11   A    
C84   O20   D    
C16   C20   A    
C66   C76   S    
C54   I1    S    
Cu4   O4    S    
C51   C58   A    
C57   C71   A    
C19   H4    S    
C10   H23   S    
C39   C46   S    
C21   H12   S    
Cu3   O28   S    
C46   O28   A    
C62   C81   S    
C49   C70   A    
C51   C70   A    
C2    C5    T    
C18   C32   A    
C73   H5    S    
C27   C28   S    
C15   C30   A    
C57   I3    S    
Cu3   O5    S    
C18   H3    S    
C10   C28   A    
C81   O17   D    
C64   C74   S    
Cu1   O23   S    
C79   O15   D    
C27   C32   S    
C18   C22   A    
C50   C57   A    
Cu4   O2    S    
C13   C31   A    
C26   O27   A    
C3    C67   T    
C24   H19   S    
C16   H24   S    
C75   O11   D    
C16   C32   A    
C13   C83   S    
C59   C63   A    
C6    C86   T    
C7    H20   S    
Cu4   O6    S    
C80   H11   S    
C60   C64   A    
C52   O8    A    
C19   C24   A    
Cu2   O12   S    
C37   C39   T    
C1    O22   A    
Cu1   O1    S    
Cu2   O26   S    
C58   C72   A    
C47   O2    A    
C22   H18   S    
C6    C23   S    
Cu2   O25   S    
C77   H9    S    
C25   O26   A    
C26   O25   A    
C35   C41   S    
Cu4   O8    S    
C83   H15   S    
C53   O7    A    
Cu1   O27   S    
C45   C66   A    
C51   I8    S    
C82   H14   S    
Cu3   Cu4   S    
C85   H17   S    
Cu2   O22   S    
C65   C75   S    
