data_mof_unit_19834.cif
_audit_creation_date              2013-03-05T15:42:54-0500
_audit_creation_method            fapswitch 2.2
_symmetry_space_group_name_H-M    P1
_symmetry_Int_Tables_number       1
_space_group_crystal_system       triclinic
_cell_length_a                    15.116835
_cell_length_b                    10.894074
_cell_length_c                    9.742217
_cell_angle_alpha                 89.756795
_cell_angle_beta                  90.299047
_cell_angle_gamma                 89.605278
_cell_volume                      1604.31185121

loop_
_atom_site_label
_atom_site_type_symbol
_atom_site_description
_atom_site_fract_x
_atom_site_fract_y
_atom_site_fract_z
_atom_type_partial_charge
O1    O     O_R   0.500020 0.321960 0.617040 -0.576148
O2    O     O_R   0.499980 0.321920 0.382900 -0.579372
C1    C     C_R   0.497588 0.265361 0.500725 0.884425
O3    O     O_R   0.370270 0.499990 0.617090 -0.615985
O4    O     O_R   0.370240 0.499950 0.382940 -0.573397
C2    C     C_R   0.328902 0.500386 0.499766 0.845324
Cu1   Cu    Cu3+1 0.500020 0.500020 0.638630 0.968220
Cu2   Cu    Cu3+1 0.499980 0.499980 0.361370 0.975082
O5    O     O_R   0.500020 0.678080 0.617100 -0.606742
O6    O     O_R   0.499980 0.678040 0.382960 -0.528779
O7    O     O_R   0.629760 0.500050 0.617060 -0.534813
O8    O     O_R   0.629730 0.500010 0.382910 -0.598371
C3    C     C_R   0.497534 0.734571 0.499468 0.913325
C4    C     C_R   0.671423 0.497302 0.500731 0.837570
C5    C     C_R   0.815066 0.519249 0.382426 -0.283696
C6    C     C_R   0.768814 0.492951 0.503282 -0.188388
C7    C     C_R   0.816103 0.464427 0.625370 0.336043
C8    C     C_R   0.909003 0.467096 0.626188 -0.030730
C9    C     C_R   0.954534 0.494401 0.504142 0.009026
C10   C     C_R   0.907255 0.519651 0.381721 0.122536
C11   C     C_R   0.957005 0.442972 0.747259 -0.176203
C12   C     C_R   0.049378 0.447144 0.750212 0.071041
C13   C     C_R   0.095353 0.472826 0.627027 0.087692
C14   C     C_R   0.047497 0.496116 0.504034 0.060857
C15   C     C_R   0.092564 0.522172 0.380506 0.112125
C16   C     C_R   0.044926 0.547580 0.259961 -0.212438
C17   C     C_R   0.952845 0.546168 0.260418 -0.180623
C18   C     C_R   0.187805 0.476457 0.623038 -0.260640
C19   C     C_R   0.232308 0.499978 0.500208 -0.063363
C20   C     C_R   0.184682 0.522861 0.379270 -0.197010
H1    H     H_    0.779265 0.540728 0.288501 0.179075
H2    H     H_    0.922756 0.421424 0.841545 0.197543
H3    H     H_    0.226349 0.459446 0.714850 0.166961
H4    H     H_    0.219202 0.542176 0.284359 0.167921
H5    H     H_    0.079062 0.569396 0.165588 0.145365
H6    H     H_    0.917275 0.566056 0.165936 0.157774
C21   C     C_2   0.451665 0.934831 0.404171 0.378635
C22   C     C_2   0.497819 0.867272 0.497236 -0.447574
H7    H     H_    0.543679 0.909410 0.568566 0.133113
C23   C     C_2   0.467378 0.067885 0.394940 -0.212986
C24   C     C_2   0.487604 0.133427 0.506252 -0.372638
H8    H     H_    0.457289 0.113485 0.296656 0.203840
H9    H     H_    0.490076 0.091227 0.607367 0.162560
C25   C     C_2   0.556366 0.444454 0.926901 0.046217
N1    N     N_2   0.499020 0.498660 0.846910 -0.202178
H10   H     H_    0.602874 0.380815 0.881520 0.201911
C26   C     C_2   0.565871 0.469439 0.077849 -0.091114
N2    N     N_2   0.499000 0.498630 0.153040 -0.297039
H11   H     H_    0.630872 0.460434 0.124313 0.180855
H12   H     H_    0.439052 0.468814 0.116451 0.209129
C27   C     C_3   0.451956 0.610302 0.890594 -0.101124
C28   C     C_3   0.515134 0.717437 0.922211 -0.331704
C29   C     C_3   0.468016 0.841339 0.908691 -0.812966
H13   H     H_    0.448522 0.858850 0.800310 0.249385
H14   H     H_    0.407807 0.842740 0.973210 0.296598
H15   H     H_    0.512878 0.915737 0.942532 0.254362
H16   H     H_    0.541140 0.709141 0.028528 0.230513
H17   H     H_    0.572528 0.715779 0.851443 0.247921
H18   H     H_    0.406851 0.638625 0.806460 0.215126
H19   H     H_    0.403988 0.595811 0.973456 0.114076
N3    N     N_R   0.770394 0.428414 0.747318 0.105920
O9    O     O_R   0.749826 0.313773 0.765591 -0.394608
O10   O     O_R   0.760796 0.506037 0.847389 -0.413870
C30   C     C_3   0.095473 0.426956 0.887379 -0.426152
C31   C     C_3   0.133480 0.296499 0.900350 -0.336977
C32   C     C_3   0.183593 0.280026 0.035747 -0.803449
H20   H     H_    0.240092 0.344582 0.040999 0.241657
H21   H     H_    0.138891 0.297079 0.123924 0.259249
H22   H     H_    0.209688 0.184703 0.043423 0.265378
H23   H     H_    0.078532 0.229273 0.896223 0.235497
H24   H     H_    0.179157 0.276213 0.814381 0.223897
H25   H     H_    0.147575 0.497008 0.903084 0.194078
H26   H     H_    0.047727 0.440760 0.972398 0.197989
N4    N     N_R   0.386164 0.881576 0.314258 0.139592
O11   O     O_R   0.361631 0.940221 0.203712 -0.400174
O12   O     O_R   0.338028 0.790269 0.356057 -0.374150

loop_
_geom_bond_atom_site_label_1
_geom_bond_atom_site_label_2
_geom_bond_distance
_ccdc_geom_bond_type
C32   H21   1.111215 S    
C21   N4    1.444816 S    
C8    C11   1.404505 A    
C9    C10   1.412275 A    
Cu1   Cu2   2.701127 S    
C26   H11   1.083373 S    
C29   H13   1.110111 S    
C25   N1    1.299812 D    
Cu1   O7    1.973578 S    
C16   C17   1.392187 A    
C21   C22   1.353200 D    
N4    O12   1.301691 A    
Cu1   N1    2.029235 S    
C18   C19   1.399406 A    
C21   C23   1.472898 S    
O4    C2    1.301277 A    
O7    C4    1.299775 A    
C32   H22   1.110392 S    
N1    C27   1.470425 S    
C5    C6    1.402036 A    
C8    C9    1.408651 A    
N3    O10   1.301305 A    
O5    C3    1.298731 A    
C7    N3    1.432186 S    
C6    C7    1.416765 A    
C30   H26   1.111480 S    
C25   C26   1.503011 S    
C23   H8    1.086393 S    
C32   H20   1.111211 S    
C11   C12   1.397589 A    
C24   H9    1.085672 S    
O3    Cu1   1.971515 S    
C25   H10   1.081445 S    
C29   H14   1.108872 S    
C5    C10   1.393694 A    
C11   H2    1.082458 S    
N4    O11   1.300884 A    
C20   H4    1.084645 S    
C27   C28   1.544204 S    
C14   C15   1.414669 A    
O3    C2    1.299999 A    
C15   C16   1.400011 A    
C31   H24   1.110215 S    
O1    C1    1.292831 A    
Cu2   N2    2.029689 S    
C19   C20   1.398153 A    
C26   N2    1.290295 D    
Cu2   O8    1.971516 S    
C7    C8    1.404837 A    
C13   C18   1.399158 A    
C3    C22   1.445768 S    
C28   H17   1.111092 S    
C23   C24   1.336192 D    
O8    C4    1.306726 A    
C18   H3    1.079609 S    
C4    C6    1.472760 S    
C27   H18   1.105015 S    
C28   C29   1.526728 S    
C29   H15   1.110417 S    
C15   C20   1.392727 A    
Cu1   O5    1.950220 S    
C1    C24   1.447035 S    
O1    Cu1   1.952056 S    
O2    Cu2   1.950220 S    
O6    C3    1.294229 A    
O4    Cu2   1.973576 S    
C5    H1    1.084532 S    
C10   C17   1.401183 A    
C17   H6    1.083917 S    
C30   C31   1.533743 S    
O2    C1    1.301273 A    
C22   H7    1.084573 S    
N2    H12   1.027368 S    
C9    C14   1.405562 A    
C30   H25   1.110938 S    
N3    O9    1.300837 A    
C28   H16   1.109052 S    
C13   C14   1.417501 A    
C12   C30   1.518318 S    
C16   H5    1.082984 S    
C2    C19   1.460254 S    
Cu2   O6    1.952056 S    
C31   C32   1.526989 S    
C12   C13   1.417764 A    
C27   H19   1.099545 S    
C31   H23   1.111858 S    
