data_mof_unit_25084.cif
_audit_creation_date              2012-12-11T17:17:04-0500
_audit_creation_method            fapswitch 2.2
_symmetry_space_group_name_H-M    P1
_symmetry_Int_Tables_number       1
_space_group_crystal_system       triclinic
_cell_length_a                    6.962879
_cell_length_b                    13.374273
_cell_length_c                    14.673478
_cell_angle_alpha                 98.919905
_cell_angle_beta                  89.764855
_cell_angle_gamma                 90.305506
_cell_volume                      1349.8924942

loop_
_atom_site_label
_atom_site_type_symbol
_atom_type_description
_atom_site_fract_x
_atom_site_fract_y
_atom_site_fract_z
_atom_type_partial_charge
O1    O     O_R   0.354890 0.151580 0.148210 -0.539161
O2    O     O_R   0.645110 0.848420 0.851790 -0.539138
O3    O     O_R   0.682370 0.152980 0.336770 -0.541790
O4    O     O_R   0.317630 0.847020 0.663230 -0.541800
O5    O     O_R   0.854980 0.348430 0.351800 -0.529933
O6    O     O_R   0.145020 0.651570 0.648200 -0.529928
C1    C     C_R   0.512901 0.130083 0.364927 0.753830
C2    C     C_R   0.487098 0.869913 0.635069 0.753813
O7    O     O_R   0.684450 0.139580 0.148000 -0.540341
O8    O     O_R   0.315550 0.860420 0.852000 -0.540351
O9    O     O_R   0.857080 0.334940 0.161680 -0.541801
O10   O     O_R   0.142920 0.665060 0.838320 -0.541799
C3    C     C_R   0.515551 0.112679 0.114121 0.714373
C4    C     C_R   0.484449 0.887321 0.885879 0.714384
O11   O     O_R   0.352790 0.165070 0.338330 -0.539132
O12   O     O_R   0.647210 0.834930 0.661670 -0.539107
O13   O     O_3   0.522170 0.314120 0.254710 -0.368555
O14   O     O_3   0.477830 0.685880 0.745290 -0.368554
V1    V     V_3+5 0.796120 0.238110 0.249130 1.431017
V2    V     V_3+5 0.203880 0.761890 0.750870 1.430992
O15   O     O_R   0.186930 0.347040 0.163240 -0.543396
O16   O     O_R   0.813070 0.652960 0.836760 -0.543396
C5    C     C_R   0.018385 0.368738 0.133623 0.672428
C6    C     C_R   0.981615 0.631262 0.866377 0.672432
O17   O     O_R   0.184850 0.360440 0.352010 -0.534090
O18   O     O_R   0.815150 0.639560 0.647990 -0.534098
C7    C     C_R   0.015843 0.387263 0.385938 0.745315
C8    C     C_R   0.984157 0.612737 0.614062 0.745302
V3    V     V_3+5 0.296410 0.261900 0.250880 1.433849
V4    V     V_3+5 0.703590 0.738100 0.749120 1.433863
O19   O     O_3   0.020490 0.185890 0.245290 -0.371384
O20   O     O_3   0.979510 0.814110 0.754710 -0.371377
C9    C     C_1   0.005157 0.466886 0.466330 -0.163674
C10   C     C_1   0.994843 0.533114 0.533670 -0.163679
C11   C     C_3   0.178439 0.528397 0.980005 -0.113391
C12   C     C_3   0.821561 0.471603 0.019995 -0.113393
C13   C     C_3   0.083561 0.548570 0.076773 -0.143687
C14   C     C_3   0.916439 0.451430 0.923227 -0.143680
H1    H     H_    0.152583 0.588271 0.140421 0.105917
H2    H     H_    0.847417 0.411729 0.859579 0.105901
H3    H     H_    0.326051 0.551888 0.963354 0.110777
H4    H     H_    0.673948 0.448112 0.036645 0.110777
C15   C     C_3   0.008555 0.438836 0.062723 -0.004611
C16   C     C_3   0.991445 0.561164 0.937277 -0.004607
C17   C     C_3   0.103322 0.417860 0.966734 -0.141885
C18   C     C_3   0.896678 0.582140 0.033266 -0.141889
H5    H     H_    0.188908 0.349811 0.939737 0.100186
H6    H     H_    0.811092 0.650188 0.060263 0.100182
C19   C     C_3   0.335784 0.987656 0.452066 0.115705
C20   C     C_3   0.664215 0.012335 0.547926 0.115579
C21   C     C_3   0.482687 0.904852 0.461609 0.379142
C22   C     C_3   0.517313 0.095139 0.538386 0.379172
C23   C     C_3   0.497682 0.940979 0.565724 -0.108035
C24   C     C_3   0.502317 0.059013 0.434269 -0.107926
C25   C     C_3   0.349317 0.025310 0.557664 -0.363136
C26   C     C_3   0.650682 0.974681 0.442328 -0.363222
H7    H     H_    0.237441 0.049281 0.609879 0.135812
H8    H     H_    0.762569 0.950710 0.390119 0.135767
C27   C     C_1   0.504964 0.033093 0.033696 -0.191389
C28   C     C_1   0.495036 0.966907 0.966304 -0.191399
O21   O     O_3   0.463688 0.802784 0.423258 -0.649944
H9    H     H_    0.523253 0.796326 0.361184 0.277995
O22   O     O_3   0.536288 0.197205 0.576744 -0.649921
H10   H     H_    0.477218 0.203589 0.638922 0.278033
C29   C     C_3   0.147750 0.969906 0.399374 -0.334311
C30   C     C_3   0.177317 0.928269 0.297369 -0.729781
H11   H     H_    0.274764 0.977631 0.263981 0.216587
H12   H     H_    0.237752 0.850842 0.288998 0.225292
H13   H     H_    0.036733 0.924257 0.261514 0.204708
H14   H     H_    0.062377 0.914393 0.431621 0.182823
H15   H     H_    0.068627 0.042553 0.405865 0.187776
C31   C     C_3   0.852265 0.030056 0.600607 -0.334324
C32   C     C_3   0.822747 0.071717 0.702610 -0.729741
H16   H     H_    0.762845 0.149259 0.710975 0.225167
H17   H     H_    0.724870 0.022528 0.735963 0.216487
H18   H     H_    0.963270 0.075463 0.738502 0.204765
H19   H     H_    0.931326 0.957391 0.594121 0.187804
H20   H     H_    0.937680 0.085541 0.568345 0.182803

loop_
_geom_bond_atom_site_label_1
_geom_bond_atom_site_label_2
_ccdc_geom_bond_type
C30   H12   S    
O13   V3    S    
C32   H16   S    
C12   H4    S    
C21   O21   S    
O4    C2    A    
V1    O19   S    
C7    C9    S    
O9    V1    S    
C19   C29   S    
C11   C13   S    
O3    C1    A    
C30   H13   S    
O12   V4    S    
C19   C24   S    
C5    C15   S    
C21   C26   S    
O7    C3    A    
C14   C17   S    
C20   C31   S    
O5    C7    A    
O7    V1    S    
O6    C8    A    
O8    V2    S    
C19   C21   S    
C20   C22   S    
O3    V1    S    
O14   V4    S    
V4    O20   S    
C22   C25   S    
C22   C24   S    
C17   H5    S    
C30   H11   S    
C8    C10   S    
C27   C28   T    
C2    O12   A    
C32   H17   S    
O2    C4    A    
C16   C18   S    
O11   V3    S    
C18   H6    S    
C23   C25   S    
O15   C5    A    
O17   V3    S    
C24   C26   S    
C20   C23   S    
O8    C4    A    
C1    O11   A    
C19   C25   S    
O15   V3    S    
C20   C26   S    
C21   C23   S    
C13   C15   S    
C14   C16   S    
C31   H19   S    
O10   V2    S    
O1    V3    S    
C9    C10   T    
C12   C18   S    
C11   C16   S    
C15   C17   S    
O5    V1    S    
O18   V4    S    
C25   H7    S    
C6    C16   S    
C32   H18   S    
O16   C6    A    
O1    C3    A    
C11   C17   S    
O6    V2    S    
V2    O20   S    
O16   V4    S    
C31   C32   S    
C22   O22   S    
C2    C23   S    
C3    C27   S    
O17   C7    A    
C4    C28   S    
O10   C6    A    
O18   C8    A    
O2    V4    S    
C12   C14   S    
V3    O19   S    
C29   H15   S    
C14   H2    S    
O9    C5    A    
O13   V1    S    
C26   H8    S    
O14   V2    S    
O21   H9    S    
C11   H3    S    
O22   H10   S    
O4    V2    S    
C13   H1    S    
C29   C30   S    
C31   H20   S    
C12   C15   S    
C1    C24   S    
C13   C18   S    
C29   H14   S    
