data_mof_unit_59968.cif
_audit_creation_date              2012-10-26T20:21:46-0400
_audit_creation_method            fapswitch 2.2
_symmetry_space_group_name_H-M    P1
_symmetry_Int_Tables_number       1
_space_group_crystal_system       triclinic
_cell_length_a                    15.504481
_cell_length_b                    15.126186
_cell_length_c                    9.542338
_cell_angle_alpha                 90.493418
_cell_angle_beta                  89.97998
_cell_angle_gamma                 89.814173
_cell_volume                      2237.80915262

loop_
_atom_site_label
_atom_site_type_symbol
_atom_type_description
_atom_site_fract_x
_atom_site_fract_y
_atom_site_fract_z
_atom_type_partial_charge
C1    C     C_R   0.118431 0.380868 0.499635 0.607286
C2    C     C_R   0.997715 0.577522 0.926908 0.447381
C3    C     C_R   0.997861 0.577576 0.075430 0.445215
C4    C     C_R   0.002139 0.422424 0.924570 0.445218
C5    C     C_R   0.502284 0.922478 0.073092 0.447381
C6    C     C_R   0.497714 0.077522 0.926908 0.447386
C7    C     C_R   0.497861 0.077575 0.075430 0.445218
C8    C     C_R   0.502139 0.922424 0.924570 0.445215
C9    C     C_R   0.817310 0.244363 0.400953 0.045408
C10   C     C_R   0.182688 0.755638 0.599044 0.045410
C11   C     C_R   0.252972 0.679584 0.402177 0.053872
C12   C     C_R   0.881570 0.619133 0.500364 0.607266
C13   C     C_R   0.747031 0.320414 0.597826 0.053869
C14   C     C_R   0.259061 0.327069 0.582950 0.054175
C15   C     C_R   0.740956 0.672948 0.417005 0.054173
C16   C     C_R   0.823925 0.762338 0.583755 0.055699
C17   C     C_R   0.176058 0.237645 0.416290 0.055732
C18   C     C_R   0.317311 0.744362 0.400956 0.045410
C19   C     C_R   0.682691 0.255636 0.599047 0.045407
C20   C     C_R   0.752970 0.179586 0.402174 0.053868
C21   C     C_R   0.247028 0.820416 0.597823 0.053872
C22   C     C_R   0.759045 0.827052 0.582995 0.054173
C23   C     C_R   0.881417 0.380949 0.499619 0.603389
C24   C     C_R   0.240938 0.172930 0.417050 0.054174
C25   C     C_R   0.323941 0.262354 0.583711 0.055732
C26   C     C_R   0.676075 0.737661 0.416245 0.055697
C27   C     C_R   0.185821 0.685766 0.500851 0.070829
C28   C     C_R   0.814179 0.314233 0.499149 0.070827
C29   C     C_R   0.814343 0.685827 0.500790 0.076898
C30   C     C_R   0.185658 0.314173 0.499209 0.076914
C31   C     C_R   0.685821 0.185766 0.500851 0.070826
C32   C     C_R   0.314179 0.814234 0.499149 0.070829
C33   C     C_R   0.314342 0.185826 0.500791 0.076913
C34   C     C_R   0.118583 0.619051 0.500381 0.603391
C35   C     C_R   0.685657 0.814173 0.499210 0.076898
C36   C     C_R   0.618430 0.880867 0.499635 0.607266
C37   C     C_R   0.381569 0.119132 0.500365 0.607285
C38   C     C_R   0.381417 0.880949 0.499619 0.603391
C39   C     C_R   0.618583 0.119051 0.500381 0.603388
C40   C     C_R   0.002286 0.422478 0.073092 0.447386
Cu1   Cu    Cu3+1 0.000000 0.500000 0.640660 1.151885
Cu2   Cu    Cu3+1 0.000000 0.500000 0.359340 1.151888
Cu3   Cu    Cu3+1 0.500000 0.000000 0.640660 1.151888
Cu4   Cu    Cu3+1 0.500000 0.000000 0.359340 1.151885
F1    F     F_    0.004995 0.344517 0.141259 -0.575956
F2    F     F_    0.995012 0.655482 0.858742 -0.575962
F3    F     F_    0.995961 0.655690 0.146018 -0.577100
F4    F     F_    0.004039 0.344310 0.853982 -0.577095
F5    F     F_    0.504988 0.844517 0.141258 -0.575962
F6    F     F_    0.495005 0.155483 0.858741 -0.575955
F7    F     F_    0.495961 0.155690 0.146018 -0.577095
F8    F     F_    0.504038 0.844310 0.853982 -0.577100
H1    H     H_    0.861750 0.240736 0.201152 0.268695
H2    H     H_    0.274894 0.391098 0.769176 0.248774
H3    H     H_    0.676887 0.559534 0.369599 0.224445
H4    H     H_    0.725157 0.608958 0.230737 0.248773
H5    H     H_    0.884081 0.782829 0.769772 0.279776
H6    H     H_    0.931074 0.832706 0.630634 0.216611
H7    H     H_    0.115858 0.217110 0.230320 0.279779
H8    H     H_    0.068895 0.167272 0.369521 0.216599
H9    H     H_    0.361758 0.740725 0.201158 0.268703
H10   H     H_    0.418719 0.678133 0.315522 0.228391
H11   H     H_    0.638251 0.259263 0.798848 0.268695
H12   H     H_    0.918712 0.178135 0.315502 0.228403
H13   H     H_    0.581289 0.321864 0.684499 0.228403
H14   H     H_    0.813663 0.070356 0.324136 0.224148
H15   H     H_    0.756632 0.129143 0.204000 0.247183
H16   H     H_    0.186332 0.929644 0.675864 0.224150
H17   H     H_    0.243368 0.870860 0.795997 0.247184
H18   H     H_    0.823113 0.940466 0.630401 0.224444
H19   H     H_    0.774842 0.891040 0.769263 0.248773
H20   H     H_    0.176859 0.059508 0.369736 0.224449
H21   H     H_    0.225105 0.108902 0.230823 0.248774
H22   H     H_    0.384139 0.282890 0.769683 0.279778
H23   H     H_    0.138241 0.759275 0.798842 0.268703
H24   H     H_    0.431104 0.332726 0.630483 0.216601
H25   H     H_    0.615920 0.717173 0.230227 0.279776
H26   H     H_    0.568926 0.667294 0.369363 0.216612
H27   H     H_    0.081281 0.821867 0.684477 0.228391
H28   H     H_    0.313668 0.570355 0.324137 0.224150
H29   H     H_    0.256633 0.629140 0.204003 0.247184
H30   H     H_    0.686337 0.429644 0.675862 0.224147
H31   H     H_    0.743367 0.370858 0.795999 0.247182
H32   H     H_    0.323141 0.440492 0.630264 0.224449
N1    N     N_R   1.000000 0.500000 0.852070 -0.300503
N2    N     N_3   0.732101 0.592819 0.336407 -0.612954
N3    N     N_3   0.901020 0.774964 0.664386 -0.542908
N4    N     N_3   0.098945 0.225003 0.335711 -0.542963
N5    N     N_3   0.387114 0.738560 0.302543 -0.527279
N6    N     N_3   0.612892 0.261435 0.697466 -0.527276
N7    N     N_3   0.756689 0.105670 0.306684 -0.603586
N8    N     N_3   0.243308 0.894332 0.693313 -0.603581
N9    N     N_3   0.767899 0.907180 0.663593 -0.612953
N10   N     N_3   0.232068 0.092785 0.336499 -0.612978
N11   N     N_3   0.401054 0.274996 0.664292 -0.542961
N12   N     N_R   0.000000 0.500000 0.147930 -0.300503
N13   N     N_3   0.598980 0.725037 0.335613 -0.542907
N14   N     N_R   0.500000 0.000000 0.852070 -0.300503
N15   N     N_R   0.500000 1.000000 0.147930 -0.300503
N16   N     N_3   0.887109 0.238564 0.302535 -0.527277
N17   N     N_3   0.112886 0.761440 0.697456 -0.527280
N18   N     N_3   0.256692 0.605667 0.306688 -0.603580
N19   N     N_3   0.743311 0.394330 0.693315 -0.603585
N20   N     N_3   0.267932 0.407215 0.663500 -0.612978
O1    O     O_R   0.090170 0.409820 0.618740 -0.452817
O2    O     O_R   0.409830 0.090180 0.381260 -0.452817
O3    O     O_R   0.409830 0.090180 0.618740 -0.451339
O4    O     O_R   0.590170 0.909820 0.381260 -0.451344
O5    O     O_R   0.409830 0.909820 0.381260 -0.452982
O6    O     O_R   0.590170 0.090180 0.618740 -0.452988
O7    O     O_R   0.590170 0.090180 0.381260 -0.452624
O8    O     O_R   0.409830 0.909820 0.618740 -0.452626
O9    O     O_R   0.909830 0.590180 0.381260 -0.452807
O10   O     O_R   0.909830 0.590180 0.618740 -0.451344
O11   O     O_R   0.090170 0.409820 0.381260 -0.451340
O12   O     O_R   0.909830 0.409820 0.381260 -0.452988
O13   O     O_R   0.090170 0.590180 0.618740 -0.452982
O14   O     O_R   0.090170 0.590180 0.381260 -0.452626
O15   O     O_R   0.909830 0.409820 0.618740 -0.452624
O16   O     O_R   0.590170 0.909820 0.618740 -0.452807

loop_
_geom_bond_atom_site_label_1
_geom_bond_atom_site_label_2
_ccdc_geom_bond_type
C10   C27   A    
C34   O14   A    
C11   C18   A    
C12   C29   S    
C36   O4    A    
C17   N4    S    
Cu1   Cu2   S    
C35   C36   S    
Cu3   N14   S    
Cu1   O10   S    
C19   C31   A    
H6    N3    S    
H8    N4    S    
C2    F2    S    
C22   C35   A    
C7    N15   A    
Cu2   N12   S    
C6    N14   A    
H2    N20   S    
C40   N12   A    
C37   O3    A    
H24   N11   S    
C23   O15   A    
Cu4   N15   S    
H10   N5    S    
C2    N1    A    
C8    N14   A    
H7    N4    S    
Cu2   O9    S    
C23   O12   A    
H4    N2    S    
C39   O6    A    
C5    N15   A    
C16   N3    S    
H30   N19   S    
C13   C28   A    
H25   N13   S    
C3    N12   A    
Cu3   O6    S    
C32   C38   S    
C13   N19   S    
H17   N8    S    
C8    F8    S    
Cu3   O16   S    
H20   N10   S    
Cu4   O5    S    
C34   O13   A    
C39   O7    A    
H1    N16   S    
C17   C30   A    
C5    F5    S    
H13   N6    S    
H21   N10   S    
C14   C30   A    
C20   N7    S    
H9    N5    S    
C15   C29   A    
C12   O10   A    
H29   N18   S    
Cu4   O4    S    
C27   C34   S    
C40   F1    S    
C21   C32   A    
C17   C24   A    
C13   C19   A    
C4    C40   A    
H18   N9    S    
Cu2   O14   S    
C15   C26   A    
C4    N1    A    
C16   C29   A    
C33   C37   S    
H5    N3    S    
H28   N18   S    
Cu3   Cu4   S    
C24   N10   S    
C26   C35   A    
C9    C20   A    
C14   N20   S    
C11   C27   A    
H26   N13   S    
H15   N7    S    
Cu3   O3    S    
C23   C28   S    
Cu1   O15   S    
C38   O5    A    
H14   N7    S    
H31   N19   S    
C15   N2    S    
Cu2   O12   S    
C25   N11   S    
C9    N16   S    
H32   N20   S    
C22   N9    S    
C18   C32   A    
Cu3   O8    S    
C38   O8    A    
C12   O9    A    
C4    F4    S    
C16   C22   A    
C6    F6    S    
C18   N5    S    
H22   N11   S    
C10   N17   S    
C10   C21   A    
C5    C8    A    
C6    C7    A    
H19   N9    S    
Cu4   O2    S    
Cu1   N1    S    
C24   C33   A    
H3    N2    S    
C2    C3    A    
C7    F7    S    
C37   O2    A    
C19   N6    S    
H11   N6    S    
C3    F3    S    
C1    C30   S    
H16   N8    S    
C31   C39   S    
C11   N18   S    
C14   C25   A    
C36   O16   A    
C26   N13   S    
Cu4   O7    S    
Cu2   O11   S    
H12   N16   S    
Cu1   O1    S    
C1    O1    A    
H23   N17   S    
H27   N17   S    
C1    O11   A    
Cu1   O13   S    
C21   N8    S    
C9    C28   A    
C25   C33   A    
C20   C31   A    
