data_mof_unit_22015.cif
_audit_creation_date              2012-12-10T17:34:57-0500
_audit_creation_method            fapswitch 2.2
_symmetry_space_group_name_H-M    P1
_symmetry_Int_Tables_number       1
_space_group_crystal_system       triclinic
_cell_length_a                    12.33809
_cell_length_b                    13.187448
_cell_length_c                    13.852836
_cell_angle_alpha                 105.046238
_cell_angle_beta                  73.950461
_cell_angle_gamma                 116.637599
_cell_volume                      1911.9110012

loop_
_atom_site_label
_atom_site_type_symbol
_atom_type_description
_atom_site_fract_x
_atom_site_fract_y
_atom_site_fract_z
_atom_type_partial_charge
C1    C     C_R   0.144309 0.713663 0.510970 0.761921
C2    C     C_1   0.971317 0.499156 0.790617 -0.167813
C3    C     C_R   0.733353 0.979239 0.360657 -0.204260
C4    C     C_R   0.775498 0.165067 0.465679 -0.043922
C5    C     C_R   0.180070 0.911734 0.595464 -0.197333
C6    C     C_R   0.258432 0.024556 0.623674 -0.147288
C7    C     C_R   0.384286 0.062782 0.584855 -0.189279
C8    C     C_R   0.434454 0.988988 0.513235 0.084251
C9    C     C_R   0.352102 0.876982 0.477367 0.094662
C10   C     C_R   0.563311 0.022798 0.475246 0.078474
C11   C     C_R   0.606681 0.947014 0.398956 0.166464
C12   C     C_R   0.983562 0.502879 0.686205 0.806642
C13   C     C_R   0.523172 0.841758 0.358674 -0.245067
C14   C     C_R   0.397792 0.808479 0.395347 -0.196954
C15   C     C_R   0.650778 0.130357 0.509621 -0.257992
C16   C     C_R   0.817421 0.088438 0.393066 -0.218285
C17   C     C_R   0.225716 0.836494 0.524109 -0.103195
C18   C     C_R   0.658221 0.695890 0.643176 0.374593
C19   C     C_R   0.249632 0.348302 0.367179 0.086123
C20   C     C_R   0.346869 0.313922 0.339935 -0.266256
C21   C     C_R   0.446729 0.371544 0.390318 -0.166292
C22   C     C_R   0.450685 0.465023 0.469256 0.019389
C23   C     C_R   0.856271 0.286451 0.485681 0.795769
C24   C     C_R   0.348247 0.496136 0.494992 0.235342
C25   C     C_R   0.552386 0.529031 0.522657 -0.152592
C26   C     C_R   0.553832 0.628011 0.595855 -0.043427
C27   C     C_R   0.450595 0.655621 0.621735 0.391300
C28   C     C_R   0.349555 0.587958 0.573749 -0.276608
C29   C     C_R   0.654380 0.499689 0.505382 0.026631
C30   C     C_R   0.751746 0.658124 0.625419 -0.030796
C31   C     C_R   0.016336 0.496838 0.313721 0.829801
C32   C     C_1   0.029549 0.500619 0.209102 -0.194972
C33   C     C_2   0.057307 0.511725 0.015085 0.535144
C34   C     C_2   0.955995 0.490829 0.981993 -0.261575
C35   C     C_1   0.962422 0.494994 0.878085 0.057660
C36   C     C_1   0.042350 0.505350 0.121068 -0.141223
Cu1   Cu    Cu3+1 0.899780 0.525060 0.522890 0.931056
Cu2   Cu    Cu3+1 0.100220 0.474940 0.477110 0.925233
H1    H     H_    0.867093 0.470935 0.033082 0.116251
H2    H     H_    0.337325 0.729133 0.356780 0.170080
H3    H     H_    0.829425 0.706809 0.664030 0.139474
H4    H     H_    0.660941 0.426812 0.451001 0.136829
H5    H     H_    0.172413 0.302994 0.327811 0.121409
H6    H     H_    0.519820 0.341808 0.364965 0.133412
H7    H     H_    0.345007 0.242532 0.279367 0.143672
H8    H     H_    0.273873 0.611983 0.600291 0.212638
H9    H     H_    0.914085 0.114617 0.358247 0.148049
H10   H     H_    0.554789 0.785382 0.297355 0.144563
H11   H     H_    0.766836 0.921633 0.302627 0.136589
H12   H     H_    0.624731 0.191089 0.568555 0.144787
H13   H     H_    0.084233 0.882029 0.632790 0.145244
H14   H     H_    0.438895 0.150948 0.611974 0.130831
H15   H     H_    0.221976 0.081890 0.678818 0.145471
N1    N     N_R   0.748810 0.563010 0.557590 -0.205556
N2    N     N_R   0.250540 0.437620 0.443020 -0.192248
O1    O     O_R   0.025040 0.682470 0.528790 -0.583274
O2    O     O_R   0.194310 0.640150 0.490130 -0.600539
O3    O     O_R   0.903380 0.524130 0.659910 -0.570329
O4    O     O_R   0.072660 0.481800 0.621240 -0.585899
O5    O     O_R   0.805690 0.359850 0.509870 -0.584991
O6    O     O_R   0.974960 0.317530 0.471210 -0.586231
O7    O     O_R   0.927340 0.518200 0.378760 -0.570824
O8    O     O_R   0.096620 0.475870 0.340090 -0.586541
O9    O     O_3   0.454355 0.757126 0.685328 -0.595218
C37   C     C_3   0.359729 0.737528 0.772658 0.081180
H16   H     H_    0.404683 0.767930 0.840136 0.184937
H17   H     H_    0.295287 0.645559 0.775229 0.159732
C38   C     C_3   0.286381 0.807894 0.780124 -0.347622
H18   H     H_    0.351096 0.897314 0.768615 0.240156
H19   H     H_    0.230076 0.769688 0.719385 0.203013
C39   C     C_3   0.201583 0.811521 0.883410 -0.900520
H20   H     H_    0.136471 0.723376 0.897401 0.279219
H21   H     H_    0.147710 0.860677 0.885013 0.250076
H22   H     H_    0.256654 0.854284 0.944971 0.254438
O10   O     O_3   0.667722 0.795890 0.711102 -0.597037
C40   C     C_3   0.724048 0.890756 0.657657 0.139186
H23   H     H_    0.685506 0.954748 0.700570 0.184680
H24   H     H_    0.702638 0.868601 0.579587 0.142066
C41   C     C_3   0.863992 0.946635 0.652813 -0.440369
H25   H     H_    0.884045 0.963285 0.730237 0.233206
H26   H     H_    0.905280 0.887558 0.602459 0.210786
C42   C     C_3   0.923942 0.059481 0.610698 -0.863479
H27   H     H_    0.910637 0.043337 0.531280 0.263423
H28   H     H_    0.024534 0.098856 0.610912 0.258628
H29   H     H_    0.883516 0.120639 0.658001 0.253632
O11   O     O_3   0.169587 0.535857 0.946378 -0.583395
C43   C     C_3   0.270641 0.570493 0.994135 -0.334715
H30   H     H_    0.262836 0.499599 0.028594 0.178709
H31   H     H_    0.279771 0.648926 0.051862 0.165186
H32   H     H_    0.356295 0.592124 0.935664 0.181906

loop_
_geom_bond_atom_site_label_1
_geom_bond_atom_site_label_2
_ccdc_geom_bond_type
C2    C35   T    
C43   H30   S    
C18   O10   S    
C29   H4    S    
C19   C20   A    
C18   C26   A    
C40   C41   S    
C9    C14   A    
C2    C12   S    
C41   C42   S    
Cu1   O7    S    
C3    H11   S    
C7    C8    A    
C24   N2    A    
C30   N1    A    
C28   H8    S    
C26   C27   A    
C32   C36   T    
C1    O1    A    
C40   H24   S    
C7    H14   S    
C10   C15   A    
C5    C6    A    
C5    C17   A    
C29   N1    A    
C21   H6    S    
C33   C36   S    
C34   C35   S    
C15   H12   S    
C12   O4    A    
Cu2   N2    S    
C8    C9    A    
C37   H17   S    
C22   C25   A    
C30   H3    S    
C18   C30   A    
Cu1   O3    S    
Cu2   O6    S    
C12   O3    A    
C21   C22   A    
Cu1   O1    S    
C31   O7    A    
C16   H9    S    
C19   H5    S    
C25   C29   A    
C23   O5    A    
C34   H1    S    
C31   O8    A    
C40   H23   S    
C10   C11   A    
C20   H7    S    
C39   H21   S    
C4    C23   S    
O11   C43   S    
C38   H18   S    
C25   C26   A    
Cu2   O4    S    
C4    C16   A    
O10   C40   S    
Cu1   Cu2   S    
C1    O2    A    
C13   H10   S    
Cu2   O2    S    
C31   C32   S    
C37   C38   S    
C33   C34   D    
Cu1   N1    S    
C9    C17   A    
C37   H16   S    
C42   H28   S    
C43   H31   S    
C22   C24   A    
C6    H15   S    
C41   H26   S    
Cu2   O8    S    
C19   N2    A    
C24   C28   A    
C39   H22   S    
C6    C7    A    
C42   H29   S    
C1    C17   S    
O9    C37   S    
C4    C15   A    
C39   H20   S    
C11   C13   A    
C38   C39   S    
Cu1   O5    S    
C3    C11   A    
C27   O9    S    
C14   H2    S    
C41   H25   S    
C23   O6    A    
C20   C21   A    
C8    C10   A    
C42   H27   S    
C43   H32   S    
C27   C28   A    
C38   H19   S    
C5    H13   S    
C13   C14   A    
C33   O11   S    
C3    C16   A    
