data_mof_unit_44034.cif
_audit_creation_date              2012-12-11T17:08:31-0500
_audit_creation_method            fapswitch 2.2
_symmetry_space_group_name_H-M    P1
_symmetry_Int_Tables_number       1
_space_group_crystal_system       triclinic
_cell_length_a                    7.004419
_cell_length_b                    14.538195
_cell_length_c                    16.133997
_cell_angle_alpha                 89.967287
_cell_angle_beta                  90.390468
_cell_angle_gamma                 90.499818
_cell_volume                      1642.85000009

loop_
_atom_site_label
_atom_site_type_symbol
_atom_type_description
_atom_site_fract_x
_atom_site_fract_y
_atom_site_fract_z
_atom_type_partial_charge
O1    O     O_R   0.505700 0.583890 0.413310 -0.554451
O2    O     O_R   0.175960 0.594920 0.586080 -0.543774
O3    O     O_R   0.005660 0.416110 0.586690 -0.523524
C1    C     C_R   0.345779 0.615770 0.615359 0.741223
O4    O     O_R   0.175980 0.594920 0.413930 -0.534632
O5    O     O_R   0.005680 0.416110 0.413310 -0.540469
C2    C     C_R   0.344319 0.615349 0.384130 0.722711
O6    O     O_R   0.505680 0.583890 0.586690 -0.538748
O7    O     O_3   0.339200 0.441330 0.500000 -0.364779
V1    V     V_3+5 0.064350 0.510880 0.500000 1.482906
O8    O     O_R   0.675960 0.405080 0.413920 -0.544324
C3    C     C_R   0.844074 0.381809 0.386335 0.731018
O9    O     O_R   0.675940 0.405080 0.586070 -0.535872
C4    C     C_R   0.844581 0.383407 0.614942 0.730735
V2    V     V_3+5 0.564340 0.489120 0.500000 1.475609
O10   O     O_3   0.839360 0.558670 0.500000 -0.403222
C5    C     C_R   0.004996 0.252270 0.689340 0.068365
C6    C     C_R   0.852613 0.313416 0.682013 -0.094307
C7    C     C_R   0.706260 0.305563 0.740979 -0.160485
H1    H     H_    0.589891 0.353287 0.739417 0.190475
C8    C     C_R   0.717074 0.241450 0.806552 -0.155417
H2    H     H_    0.604916 0.240039 0.852302 0.126237
C9    C     C_R   0.877135 0.184221 0.816154 -0.082422
C10   C     C_R   0.016948 0.189181 0.754619 0.063987
C11   C     C_3   0.227336 0.201523 0.763738 -0.334166
C12   C     C_3   0.214692 0.272094 0.693573 0.154408
H3    H     H_    0.270981 0.229286 0.825226 0.136439
H4    H     H_    0.290415 0.253565 0.635618 0.159860
C13   C     C_R   0.725346 0.239698 0.193719 -0.024833
C14   C     C_R   0.880358 0.179083 0.188792 -0.202642
C15   C     C_R   0.994621 0.169434 0.261887 0.358839
C16   C     C_R   0.978488 0.234295 0.327418 -0.115572
C17   C     C_R   0.854119 0.309878 0.320466 -0.189823
C18   C     C_R   0.711707 0.303884 0.259249 0.039609
C19   C     C_3   0.508627 0.276171 0.276905 -0.195704
C20   C     C_3   0.520128 0.209238 0.204269 0.178363
C21   C     C_R   0.485116 0.755784 0.684885 -0.062297
C22   C     C_R   0.356442 0.681170 0.686079 -0.235948
C23   C     C_R   0.233473 0.673154 0.755878 0.397010
C24   C     C_R   0.244916 0.737718 0.821439 0.412112
C25   C     C_R   0.377054 0.812585 0.818945 -0.263683
C26   C     C_R   0.494132 0.819903 0.749366 -0.086651
C27   C     C_3   0.707782 0.828084 0.744347 0.255649
C28   C     C_3   0.697657 0.758400 0.672429 0.199231
C29   C     C_R   0.502242 0.745692 0.309041 -0.031666
C30   C     C_R   0.351472 0.681724 0.313719 -0.225821
C31   C     C_R   0.223935 0.676550 0.244780 0.366979
C32   C     C_R   0.231015 0.743613 0.181415 -0.126787
C33   C     C_R   0.374189 0.812928 0.181291 -0.278916
C34   C     C_R   0.510374 0.811671 0.245089 0.154028
C35   C     C_3   0.717549 0.798223 0.231135 0.204715
C36   C     C_3   0.707610 0.721310 0.294249 0.203574
H5    H     H_    0.749081 0.777550 0.166615 0.064607
O11   O     O_R   0.229000 0.916070 0.913330 -0.525710
O12   O     O_R   0.558770 0.905070 0.086080 -0.534070
O13   O     O_R   0.729000 0.083900 0.086690 -0.555136
C37   C     C_R   0.389073 0.881854 0.113455 0.740760
O14   O     O_R   0.558720 0.905070 0.913930 -0.521609
O15   O     O_R   0.728960 0.083900 0.913310 -0.542740
C38   C     C_R   0.389323 0.882671 0.885867 0.736549
O16   O     O_R   0.229050 0.916070 0.086710 -0.549010
O17   O     O_3   0.395460 0.058650 0.000020 -0.393684
V3    V     V_3+5 0.670340 0.989120 0.000000 1.508883
O18   O     O_R   0.058670 0.094960 0.913900 -0.545112
C39   C     C_R   0.889680 0.117461 0.885732 0.716050
O19   O     O_R   0.058720 0.094960 0.086050 -0.528129
C40   C     C_R   0.890744 0.114517 0.116730 0.695580
V4    V     V_3+5 0.170330 0.010930 0.999970 1.492933
O20   O     O_3   0.895340 0.941350 0.999980 -0.351629
C41   C     C_1   0.490523 0.233649 0.360069 0.272617
N1    N     N_1   0.484464 0.200149 0.425067 -0.284241
O21   O     O_3   0.403930 0.234063 0.136526 -0.625481
H6    H     H_    0.462576 0.208130 0.086021 0.308045
C42   C     C_1   0.497872 0.110780 0.226510 0.392046
N2    N     N_1   0.483665 0.034073 0.244689 -0.295354
O22   O     O_3   0.111994 0.598779 0.767087 -0.590277
H7    H     H_    0.150163 0.547585 0.730715 0.297777
O23   O     O_3   0.136918 0.719542 0.890624 -0.574452
H8    H     H_    0.203141 0.746703 0.939130 0.285944
O24   O     O_3   0.803974 0.795778 0.815488 -0.588547
H9    H     H_    0.740266 0.738543 0.835103 0.356630
C43   C     C_1   0.772702 0.921713 0.722822 0.369537
N3    N     N_1   0.825048 0.994847 0.705446 -0.334441
O25   O     O_3   0.785219 0.674473 0.692904 -0.604555
H10   H     H_    0.818023 0.641756 0.641190 0.323682
C44   C     C_1   0.750414 0.795317 0.589921 0.226623
N4    N     N_1   0.791874 0.825155 0.525992 -0.251125
O26   O     O_3   0.106566 0.601583 0.230685 -0.621332
H11   H     H_    0.110951 0.558475 0.277496 0.323843
C45   C     C_1   0.097655 0.734220 0.113109 0.369727
N5    N     N_1   0.988419 0.725682 0.059511 -0.304063
O27   O     O_3   0.821214 0.875498 0.258549 -0.584379
H12   H     H_    0.956380 0.863587 0.244773 0.310304
O28   O     O_3   0.828403 0.736202 0.362677 -0.589295
H13   H     H_    0.783581 0.694790 0.407254 0.325110
C46   C     C_1   0.722904 0.628219 0.257808 0.289435
N6    N     N_1   0.728176 0.555172 0.229386 -0.297181
C47   C     C_1   0.326885 0.117122 0.740148 0.378656
N7    N     N_1   0.404069 0.050381 0.721431 -0.331778
O29   O     O_3   0.253942 0.363035 0.719037 -0.650760
H14   H     H_    0.185925 0.375068 0.771730 0.303496
O30   O     O_3   0.103668 0.092389 0.276480 -0.622749
H15   H     H_    0.072326 0.044223 0.235224 0.304447
C48   C     C_1   0.049829 0.210890 0.408948 0.416391
N8    N     N_1   0.101038 0.192004 0.475102 -0.320824
C49   C     C_1   0.376469 0.352577 0.264516 0.448581
N9    N     N_1   0.271738 0.412287 0.253702 -0.343733

loop_
_geom_bond_atom_site_label_1
_geom_bond_atom_site_label_2
_ccdc_geom_bond_type
O19   V4    S    
C25   C26   A    
C4    C6    S    
C7    H1    S    
C1    O6    A    
O11   C38   A    
C29   C30   A    
C13   C20   S    
C13   C14   A    
C5    C12   S    
O18   V4    S    
C7    C8    A    
C21   C22   A    
C18   C19   S    
O5    C3    A    
C14   C15   A    
O11   V4    S    
C49   N9    T    
O14   C38   A    
V2    O10   S    
C47   N7    T    
C33   C37   S    
C6    C7    A    
C21   C26   A    
O29   H14   S    
O8    V2    S    
V3    O20   S    
C19   C41   S    
V4    O20   S    
O12   V3    S    
C9    C10   A    
C16   C48   S    
C36   O28   S    
C41   N1    T    
O1    V2    S    
O7    V1    S    
C14   C40   S    
O19   C40   A    
C32   C45   S    
O9    C4    A    
O30   H15   S    
C28   C44   S    
C48   N8    T    
C17   C18   A    
O22   H7    S    
C8    C9    A    
C5    C10   A    
C42   N2    T    
C35   C36   S    
C15   O30   S    
C10   C11   S    
C23   C24   A    
O4    C2    A    
C44   N4    T    
O21   H6    S    
C29   C36   S    
C34   C35   S    
C11   C12   S    
C13   C18   A    
C35   H5    S    
C19   C20   S    
O2    C1    A    
C27   C28   S    
C2    C30   S    
O17   V3    S    
C35   O27   S    
C31   C32   A    
C46   N6    T    
C5    C6    A    
O13   V3    S    
C23   O22   S    
O25   H10   S    
O3    C4    A    
C20   C42   S    
C32   C33   A    
C1    C22   S    
C43   N3    T    
O6    V2    S    
O12   C37   A    
C24   O23   S    
C26   C27   S    
O2    V1    S    
O14   V3    S    
C30   C31   A    
C24   C25   A    
O1    C2    A    
O15   V3    S    
C15   C16   A    
C25   C38   S    
O24   H9    S    
C28   O25   S    
O5    V1    S    
O8    C3    A    
C37   O16   A    
C11   H3    S    
O13   C40   A    
C12   H4    S    
O17   V4    S    
C31   O26   S    
C9    C39   S    
C21   C28   S    
O9    V2    S    
O7    V2    S    
O4    V1    S    
C19   C49   S    
V1    O10   S    
C16   C17   A    
O23   H8    S    
O16   V4    S    
C45   N5    T    
C22   C23   A    
C29   C34   A    
O18   C39   A    
O27   H12   S    
C27   O24   S    
C36   C46   S    
O28   H13   S    
C11   C47   S    
O26   H11   S    
C33   C34   A    
O3    V1    S    
C27   C43   S    
C3    C17   S    
C8    H2    S    
O15   C39   A    
C20   O21   S    
C12   O29   S    
