data_mof_unit_32430.cif
_audit_creation_date              2012-10-26T21:06:37-0400
_audit_creation_method            fapswitch 2.2
_symmetry_space_group_name_H-M    P1
_symmetry_Int_Tables_number       1
_space_group_crystal_system       triclinic
_cell_length_a                    15.874156
_cell_length_b                    10.802742
_cell_length_c                    9.521991
_cell_angle_alpha                 90.07296
_cell_angle_beta                  89.919289
_cell_angle_gamma                 90.136019
_cell_volume                      1632.8654869

loop_
_atom_site_label
_atom_site_type_symbol
_atom_type_description
_atom_site_fract_x
_atom_site_fract_y
_atom_site_fract_z
_atom_type_partial_charge
C1    C     C_R   0.502828 0.262360 0.499882 0.571397
C2    C     C_R   0.553395 0.575382 0.074416 0.040106
C3    C     C_R   0.339804 0.499870 0.500074 0.570361
C4    C     C_R   0.660195 0.500130 0.499926 0.570344
C5    C     C_3   0.971133 0.386615 0.535139 -0.129386
C6    C     C_3   0.028867 0.613385 0.464861 -0.129385
C7    C     C_3   0.028814 0.415716 0.407095 -0.131735
C8    C     C_3   0.971185 0.584284 0.592904 -0.131734
C9    C     C_1   0.250171 0.499976 0.500382 0.038973
C10   C     C_1   0.749829 0.500024 0.499617 0.038961
C11   C     C_3   0.026436 0.471127 0.628012 0.079147
C12   C     C_R   0.497177 0.737640 0.500117 0.571405
C13   C     C_3   0.973564 0.528873 0.371988 0.079146
C14   C     C_3   0.083031 0.499849 0.501612 0.012513
C15   C     C_3   0.916969 0.500151 0.498387 0.012513
C16   C     C_1   0.174673 0.499992 0.500914 0.021444
C17   C     C_1   0.825327 0.500007 0.499086 0.021439
C18   C     C_R   0.453105 0.067271 0.402742 -0.149225
C19   C     C_R   0.546908 0.932727 0.597257 -0.149224
C20   C     C_2   0.945798 0.561562 0.226387 0.600903
C21   C     C_2   0.054202 0.438437 0.773613 0.600904
C22   C     C_2   0.384511 0.880438 0.306292 0.589439
C23   C     C_R   0.446233 0.938944 0.403316 0.038226
C24   C     C_2   0.615471 0.119565 0.693765 0.589422
C25   C     C_R   0.553776 0.061055 0.596692 0.038223
C26   C     C_R   0.494987 0.871588 0.500767 -0.026557
C27   C     C_R   0.505026 0.128411 0.499232 -0.026564
C28   C     C_R   0.446584 0.424584 0.074385 0.036782
C29   C     C_R   0.553416 0.575416 0.925615 0.036790
C30   C     C_R   0.446605 0.424618 0.925584 0.040108
Cu1   Cu    Cu3+1 0.500000 0.500020 0.640660 1.010898
Cu2   Cu    Cu3+1 0.500000 0.499980 0.359340 1.010876
H1    H     H_    0.053221 0.347146 0.330297 0.141969
H2    H     H_    0.596121 0.635878 0.130480 0.127018
H3    H     H_    0.849546 0.589332 0.092287 0.348636
H4    H     H_    0.150454 0.410667 0.907712 0.348635
H5    H     H_    0.324317 0.887877 0.119966 0.349990
H6    H     H_    0.675618 0.112126 0.880118 0.349993
H7    H     H_    0.946779 0.652853 0.669703 0.141969
H8    H     H_    0.946676 0.293856 0.564714 0.145281
H9    H     H_    0.053324 0.706143 0.435286 0.145285
H10   H     H_    0.414768 0.120708 0.330751 0.161367
H11   H     H_    0.585240 0.879290 0.669257 0.161370
H12   H     H_    0.403863 0.364034 0.130421 0.118514
H13   H     H_    0.596137 0.635965 0.869579 0.118513
H14   H     H_    0.403879 0.364122 0.869520 0.127018
N1    N     N_R   0.500020 0.500030 0.852070 -0.229508
N2    N     N_R   0.499980 0.499970 0.147930 -0.229514
O1    O     O_R   0.500000 0.319660 0.618740 -0.478399
O2    O     O_R   0.860071 0.566532 0.194004 -0.692774
O3    O     O_2   0.001343 0.416277 0.863605 -0.476174
O4    O     O_R   0.139929 0.433467 0.805996 -0.692773
O5    O     O_2   0.346048 0.787201 0.341243 -0.500459
O6    O     O_R   0.367997 0.935217 0.176230 -0.697284
O7    O     O_2   0.653924 0.212826 0.658860 -0.500438
O8    O     O_R   0.631965 0.064769 0.823820 -0.697300
O9    O     O_R   0.500000 0.680340 0.381260 -0.478419
O10   O     O_R   0.499990 0.319630 0.381170 -0.511276
O11   O     O_R   0.500010 0.680370 0.618830 -0.511266
O12   O     O_R   0.379080 0.500000 0.618760 -0.495642
O13   O     O_R   0.620920 0.500000 0.381240 -0.495648
O14   O     O_R   0.379080 0.499970 0.381190 -0.484514
O15   O     O_R   0.620920 0.500030 0.618810 -0.484504
O16   O     O_2   0.998656 0.583722 0.136395 -0.476176

loop_
_geom_bond_atom_site_label_1
_geom_bond_atom_site_label_2
_ccdc_geom_bond_type
Cu1   O12   S    
C20   O16   D    
C28   H12   S    
C29   H13   S    
C3    C9    S    
C8    H7    S    
C23   C26   A    
C25   C27   A    
C7    H1    S    
Cu1   Cu2   S    
H4    O4    S    
Cu2   O10   S    
C3    O12   A    
C2    H2    S    
H3    O2    S    
C28   C30   A    
C13   C20   S    
Cu2   O14   S    
C6    C14   S    
C22   O6    S    
Cu1   N1    S    
C1    O10   A    
C6    C13   S    
Cu2   N2    S    
C4    O15   A    
C12   O9    A    
Cu2   O9    S    
C29   N1    A    
C2    C29   A    
C6    C8    S    
H5    O6    S    
C9    C16   T    
Cu1   O1    S    
Cu2   O13   S    
C5    C11   S    
C22   O5    D    
C5    C7    S    
C13   C15   S    
C19   C25   A    
C11   C14   S    
C14   C16   S    
C5    C15   S    
C21   O3    D    
C24   O8    S    
C8    C11   S    
C10   C17   T    
C11   C21   S    
C18   C23   A    
Cu1   O15   S    
C30   N1    A    
C7    C13   S    
H6    O8    S    
C24   C25   S    
C3    O14   A    
C1    C27   S    
C5    H8    S    
Cu1   O11   S    
C15   C17   S    
C19   C26   A    
C22   C23   S    
C28   N2    A    
C20   O2    S    
C8    C15   S    
C18   H10   S    
C2    N2    A    
C12   O11   A    
C1    O1    A    
C4    O13   A    
C30   H14   S    
C21   O4    S    
C7    C14   S    
C18   C27   A    
C4    C10   S    
C12   C26   S    
C24   O7    D    
C6    H9    S    
C19   H11   S    
