data_mof_unit_63150.cif
_audit_creation_date              2012-12-11T16:01:46-0500
_audit_creation_method            fapswitch 2.2
_symmetry_space_group_name_H-M    P1
_symmetry_Int_Tables_number       1
_space_group_crystal_system       triclinic
_cell_length_a                    6.960799
_cell_length_b                    20.13448
_cell_length_c                    21.706541
_cell_angle_alpha                 92.776585
_cell_angle_beta                  89.139475
_cell_angle_gamma                 90.561101
_cell_volume                      3038.17722843

loop_
_atom_site_label
_atom_site_type_symbol
_atom_type_description
_atom_site_fract_x
_atom_site_fract_y
_atom_site_fract_z
_atom_type_partial_charge
O1    O     O_R   0.616490 0.310280 0.688420 -0.519078
O2    O     O_R   0.383510 0.689720 0.311580 -0.519078
O3    O     O_R   0.286290 0.319340 0.804930 -0.522401
O4    O     O_R   0.713710 0.680660 0.195070 -0.522401
O5    O     O_R   0.115970 0.195830 0.805340 -0.529757
O6    O     O_R   0.884030 0.804170 0.194660 -0.529757
C1    C     C_R   0.454879 0.337132 0.827609 0.719241
C2    C     C_R   0.545121 0.662868 0.172391 0.719240
O7    O     O_R   0.286780 0.317900 0.688830 -0.520665
O8    O     O_R   0.713220 0.682100 0.311170 -0.520665
O9    O     O_R   0.116460 0.194390 0.688410 -0.520066
O10   O     O_R   0.883540 0.805610 0.311590 -0.520066
C3    C     C_R   0.457453 0.335685 0.666343 0.701282
C4    C     C_R   0.542547 0.664315 0.333657 0.701281
O11   O     O_R   0.616000 0.311730 0.805350 -0.519051
O12   O     O_R   0.384000 0.688270 0.194650 -0.519052
O13   O     O_3   0.449750 0.212530 0.746880 -0.353961
O14   O     O_3   0.550250 0.787470 0.253120 -0.353960
V1    V     V_3+5 0.174900 0.260570 0.746880 1.412826
V2    V     V_3+5 0.825100 0.739430 0.253120 1.412826
O15   O     O_R   0.786740 0.186770 0.688820 -0.522804
O16   O     O_R   0.213260 0.813230 0.311180 -0.522803
C5    C     C_R   0.956096 0.168643 0.666615 0.716588
C6    C     C_R   0.043903 0.831357 0.333385 0.716587
O17   O     O_R   0.786260 0.188210 0.804930 -0.534215
O18   O     O_R   0.213740 0.811790 0.195070 -0.534215
C7    C     C_R   0.953467 0.173336 0.824522 0.746842
C8    C     C_R   0.046533 0.826663 0.175478 0.746842
V3    V     V_3+5 0.674900 0.245540 0.746880 1.412036
V4    V     V_3+5 0.325100 0.754460 0.253120 1.412036
O19   O     O_3   0.949920 0.293580 0.746880 -0.356672
O20   O     O_3   0.050080 0.706420 0.253120 -0.356672
C9    C     C_3   0.072014 0.031884 0.050526 -0.138694
C10   C     C_3   0.927986 0.968116 0.949474 -0.138694
C11   C     C_3   0.881730 0.049339 0.019394 -0.140809
C12   C     C_3   0.118270 0.950661 0.980605 -0.140809
H1    H     H_    0.683092 0.953249 0.025070 0.112588
H2    H     H_    0.316908 0.046751 0.974930 0.112588
C13   C     C_1   0.959929 0.126762 0.870139 -0.198193
C14   C     C_1   0.040071 0.873238 0.129861 -0.198193
C15   C     C_3   0.174509 0.025156 0.986843 -0.141038
C16   C     C_3   0.825491 0.974844 0.013157 -0.141038
C17   C     C_3   0.984476 0.041685 0.956654 0.176563
C18   C     C_3   0.015524 0.958315 0.043346 0.176563
C19   C     C_1   0.969170 0.087890 0.909160 -0.072395
C20   C     C_1   0.030830 0.912110 0.090840 -0.072395
C21   C     C_1   0.032388 0.884050 0.384713 -0.213474
C22   C     C_1   0.967612 0.115950 0.615287 -0.213473
C23   C     C_1   0.020915 0.927348 0.427555 0.000792
C24   C     C_1   0.979085 0.072652 0.572444 0.000792
C25   C     C_1   0.006281 0.978463 0.478498 -0.000525
C26   C     C_1   0.993719 0.021537 0.521502 -0.000525
C27   C     C_1   0.465329 0.388487 0.880485 -0.217555
C28   C     C_1   0.534671 0.611512 0.119515 -0.217555
C29   C     C_1   0.477258 0.430227 0.924812 0.001730
C30   C     C_1   0.522742 0.569773 0.075188 0.001730
C31   C     C_1   0.493133 0.479349 0.977694 -0.001920
C32   C     C_1   0.506866 0.520651 0.022306 -0.001920
C33   C     C_1   0.470980 0.387142 0.614806 -0.208507
C34   C     C_1   0.529020 0.612858 0.385194 -0.208507
C35   C     C_1   0.481807 0.429054 0.572302 0.012001
C36   C     C_1   0.518193 0.570946 0.427698 0.012001
C37   C     C_1   0.494648 0.479106 0.521308 -0.003149
C38   C     C_1   0.505352 0.520894 0.478692 -0.003149
H3    H     H_    0.784373 0.090703 0.034014 0.110371
H4    H     H_    0.215627 0.909296 0.965986 0.110371
H5    H     H_    0.131432 0.056776 0.092938 0.112070
H6    H     H_    0.868568 0.943223 0.907062 0.112070

loop_
_geom_bond_atom_site_label_1
_geom_bond_atom_site_label_2
_ccdc_geom_bond_type
V4    O20   S    
C8    C14   S    
O3    V1    S    
O5    V1    S    
O16   V4    S    
C30   C32   S    
O17   C7    A    
C4    C34   S    
O10   C6    A    
C27   C29   T    
C10   C12   S    
C24   C26   S    
C10   C16   S    
O4    C2    A    
C13   C19   T    
V1    O19   S    
C11   C17   S    
O10   V2    S    
C1    O11   A    
C12   C15   S    
C9    C15   S    
C21   C23   T    
C10   H6    S    
O17   V3    S    
C14   C20   T    
C22   C24   T    
C15   C17   S    
O5    C7    A    
O9    V1    S    
C31   C32   T    
C16   C18   S    
O6    V2    S    
H2    C15   S    
C3    C33   S    
O16   C6    A    
C34   C36   T    
O18   C8    A    
O13   V1    S    
C18   C20   S    
O11   V3    S    
O3    C1    A    
C12   H4    S    
C29   C31   S    
O15   C5    A    
V2    O20   S    
O14   V4    S    
O2    C4    A    
C28   C30   T    
C12   C18   S    
C1    C27   S    
O1    C3    A    
O2    V4    S    
C11   H3    S    
O12   V4    S    
C37   C38   T    
O4    V2    S    
C6    C21   S    
O13   V3    S    
C7    C13   S    
C9    H5    S    
O14   V2    S    
C2    O12   A    
O8    C4    A    
C33   C35   T    
O9    C5    A    
H1    C16   S    
C35   C37   S    
C11   C16   S    
O7    C3    A    
C2    C28   S    
C36   C38   S    
C5    C22   S    
O1    V3    S    
C9    C11   S    
V3    O19   S    
C9    C18   S    
O15   V3    S    
C17   C19   S    
O7    V1    S    
O6    C8    A    
C10   C17   S    
C25   C26   T    
O8    V2    S    
C23   C25   S    
O18   V4    S    
