data_mof_unit_38315.cif
_audit_creation_date              2012-10-26T19:23:44-0400
_audit_creation_method            fapswitch 2.2
_symmetry_space_group_name_H-M    P1
_symmetry_Int_Tables_number       1
_space_group_crystal_system       triclinic
_cell_length_a                    27.686149
_cell_length_b                    12.988664
_cell_length_c                    11.69435
_cell_angle_alpha                 100.551206
_cell_angle_beta                  93.892052
_cell_angle_gamma                 91.582536
_cell_volume                      4121.27951533

loop_
_atom_site_label
_atom_site_type_symbol
_atom_type_description
_atom_site_fract_x
_atom_site_fract_y
_atom_site_fract_z
_atom_type_partial_charge
C1    C     C_R   0.501462 0.299142 0.477706 0.550546
C2    C     C_R   0.875153 0.490096 0.604582 0.034314
C3    C     C_R   0.354784 0.507166 0.503008 -0.024707
C4    C     C_R   0.644918 0.496627 0.498827 -0.012451
C5    C     C_R   0.977289 0.486909 0.608141 0.050974
C6    C     C_R   0.023122 0.518066 0.409250 0.053649
C7    C     C_R   0.972500 0.493883 0.399205 -0.016536
C8    C     C_R   0.028383 0.479552 0.607573 -0.017358
C9    C     C_R   0.949354 0.488634 0.502189 -0.008844
C10   C     C_R   0.051231 0.505200 0.511388 -0.008223
C11   C     C_R   0.953462 0.499437 0.712175 -0.083558
C12   C     C_R   0.498739 0.700904 0.522264 0.565164
C13   C     C_R   0.046161 0.560760 0.323770 -0.088522
C14   C     C_R   0.903252 0.499534 0.710310 -0.096282
C15   C     C_R   0.096214 0.575647 0.330222 -0.099407
C16   C     C_R   0.407481 0.500282 0.500363 0.569683
C17   C     C_R   0.592368 0.500161 0.499859 0.582734
C18   C     C_R   0.057562 0.447861 0.698537 0.198276
C19   C     C_R   0.944055 0.474532 0.291208 0.204591
C20   C     C_R   0.495720 0.814567 0.535798 -0.047819
C21   C     C_R   0.504029 0.185372 0.463850 -0.042832
C22   C     C_R   0.522602 0.014632 0.355997 0.258773
C23   C     C_R   0.102400 0.516870 0.516169 -0.084969
C24   C     C_R   0.476666 0.985206 0.643116 0.256507
C25   C     C_R   0.521408 0.123433 0.364139 0.270330
C26   C     C_R   0.478152 0.876462 0.635321 0.262806
C27   C     C_R   0.489353 0.138934 0.555019 -0.169766
C28   C     C_R   0.510122 0.860948 0.444318 -0.170664
C29   C     C_R   0.491299 0.031283 0.549872 -0.038332
C30   C     C_R   0.507935 0.968534 0.449212 -0.039598
C31   C     C_R   0.456215 0.396835 0.018218 -0.091532
C32   C     C_R   0.544034 0.603090 0.981534 -0.093262
C33   C     C_R   0.460167 0.406339 0.140176 0.423249
C34   C     C_R   0.898085 0.485693 0.499821 -0.083053
C35   C     C_R   0.540402 0.592758 0.859387 0.417640
C36   C     C_R   0.518730 0.545830 0.158518 0.031368
C37   C     C_R   0.481006 0.454856 0.841585 0.033692
C38   C     C_R   0.515820 0.537958 0.035427 -0.040577
C39   C     C_R   0.484045 0.462693 0.964573 -0.041126
C40   C     C_R   0.182109 0.499561 0.609027 0.443688
C41   C     C_R   0.818774 0.477507 0.395380 0.438741
C42   C     C_R   0.175444 0.557919 0.426874 0.403086
C43   C     C_R   0.824468 0.487880 0.601707 0.416707
C44   C     C_R   0.285857 0.600089 0.583970 0.309027
C45   C     C_R   0.131145 0.494637 0.612441 -0.015322
C46   C     C_R   0.716244 0.396168 0.449327 0.320367
C47   C     C_R   0.336109 0.588730 0.581216 -0.184289
C48   C     C_R   0.665537 0.402526 0.451512 -0.189332
C49   C     C_R   0.323074 0.432586 0.430595 0.240658
C50   C     C_R   0.674498 0.585914 0.545401 0.234510
C51   C     C_R   0.272963 0.444163 0.433272 -0.098278
C52   C     C_R   0.724837 0.579214 0.546408 -0.105840
C53   C     C_R   0.254360 0.525704 0.511196 0.209132
C54   C     C_R   0.745674 0.485477 0.498471 0.213515
C55   C     C_3   0.330595 0.253691 0.387486 0.037362
C56   C     C_R   0.869806 0.479583 0.393490 -0.012202
C57   C     C_3   0.364565 0.236811 0.491056 -0.265531
C58   C     C_3   0.357502 0.126546 0.516586 -0.476786
C59   C     C_3   0.655360 0.749771 0.520064 0.007486
C60   C     C_3   0.635726 0.853261 0.579479 -0.226309
C61   C     C_3   0.637169 0.935555 0.501699 -0.485452
C62   C     C_3   0.130709 0.512332 0.902048 0.049186
C63   C     C_3   0.169583 0.600927 0.916117 -0.264804
C64   C     C_3   0.166182 0.678886 0.029703 -0.474501
C65   C     C_3   0.863664 0.556164 0.144926 0.040912
C66   C     C_3   0.829645 0.542811 0.034302 -0.220901
C67   C     C_R   0.108316 0.463230 0.705818 0.295757
C68   C     C_3   0.826398 0.644899 0.987612 -0.469424
C69   C     C_3   0.716531 0.242436 0.308522 0.032851
C70   C     C_3   0.693002 0.141539 0.333668 -0.286545
C71   C     C_3   0.671544 0.071008 0.221877 -0.424755
C72   C     C_3   0.281742 0.779477 0.640742 0.000822
C73   C     C_3   0.310009 0.841368 0.749864 -0.255370
C74   C     C_3   0.328603 0.947805 0.729628 -0.429461
C75   C     C_R   0.893203 0.473738 0.288808 0.290606
C76   C     C_R   0.124798 0.550411 0.423745 0.036368
Cl1   Cl    Cl    0.455329 0.819634 0.748442 -0.498713
Cl2   Cl    Cl    0.544380 0.180321 0.251250 -0.500123
Cl3   Cl    Cl    0.542592 0.937579 0.227871 -0.557938
Cl4   Cl    Cl    0.456570 0.062298 0.771082 -0.557698
Cl5   Cl    Cl    0.577988 0.677361 0.800290 -0.470589
Cl6   Cl    Cl    0.424301 0.318132 0.197938 -0.465202
Cl7   Cl    Cl    0.033843 0.366668 0.789604 -0.526349
Cl8   Cl    Cl    0.969524 0.428390 0.157136 -0.546193
Cu1   Cu    Cu3+1 0.503580 0.507730 0.615930 1.069462
Cu2   Cu    Cu3+1 0.496420 0.492270 0.384070 1.072672
H1    H     H_    0.456323 0.397193 0.787021 0.130006
H2    H     H_    0.112408 0.606330 0.260974 0.148678
H3    H     H_    0.973338 0.514088 0.796623 0.172873
H4    H     H_    0.025680 0.586743 0.253166 0.160047
H5    H     H_    0.523787 0.811864 0.369456 0.190699
H6    H     H_    0.475877 0.188118 0.630069 0.190725
H7    H     H_    0.336267 0.191104 0.311629 0.195951
H8    H     H_    0.292071 0.244208 0.406815 0.111923
H9    H     H_    0.402626 0.248941 0.470980 0.193294
H10   H     H_    0.357509 0.294589 0.570116 0.159275
H11   H     H_    0.319296 0.111826 0.534612 0.154766
H12   H     H_    0.543277 0.603724 0.213155 0.127092
H13   H     H_    0.381260 0.118315 0.594394 0.188512
H14   H     H_    0.367173 0.067222 0.441389 0.165838
H15   H     H_    0.632171 0.719168 0.438517 0.129341
H16   H     H_    0.693052 0.765302 0.497661 0.122939
H17   H     H_    0.597810 0.839851 0.600425 0.205276
H18   H     H_    0.657801 0.883152 0.662520 0.202756
H19   H     H_    0.675217 0.955117 0.486423 0.149568
H20   H     H_    0.620466 0.007971 0.544633 0.169092
H21   H     H_    0.616750 0.905990 0.416513 0.182552
H22   H     H_    0.135656 0.471631 0.977468 0.192420
H23   H     H_    0.431579 0.337598 0.965735 0.155718
H24   H     H_    0.094062 0.545867 0.906364 0.136307
H25   H     H_    0.206078 0.567412 0.916379 0.232245
H26   H     H_    0.165063 0.643106 0.841777 0.178603
H27   H     H_    0.130105 0.714272 0.031445 0.151237
H28   H     H_    0.194505 0.742418 0.036855 0.173693
H29   H     H_    0.171954 0.639109 0.105597 0.190839
H30   H     H_    0.900069 0.583783 0.125128 0.154424
H31   H     H_    0.849090 0.616726 0.212896 0.126566
H32   H     H_    0.843009 0.481018 0.966371 0.208706
H33   H     H_    0.792874 0.517556 0.053714 0.210580
H34   H     H_    0.568999 0.661731 0.033839 0.151437
H35   H     H_    0.813062 0.707791 0.054281 0.154071
H36   H     H_    0.800738 0.633236 0.908759 0.206319
H37   H     H_    0.862504 0.669610 0.963645 0.148665
H38   H     H_    0.745611 0.220589 0.248697 0.185331
H39   H     H_    0.690095 0.285482 0.260562 0.139515
H40   H     H_    0.720718 0.098119 0.376713 0.180828
H41   H     H_    0.663869 0.160583 0.393928 0.178868
H42   H     H_    0.643542 0.112412 0.177307 0.227720
H43   H     H_    0.654468 0.999262 0.243375 0.195763
H44   H     H_    0.700408 0.047477 0.161983 0.152379
H45   H     H_    0.248203 0.388715 0.375821 0.140487
H46   H     H_    0.248652 0.822080 0.622679 0.164077
H47   H     H_    0.303638 0.777312 0.563507 0.125660
H48   H     H_    0.286087 0.853306 0.823365 0.181522
H49   H     H_    0.341343 0.796422 0.774629 0.215209
H50   H     H_    0.353952 0.937349 0.659077 0.180498
H51   H     H_    0.348245 0.991294 0.810805 0.224646
H52   H     H_    0.297912 0.994734 0.705299 0.142552
H53   H     H_    0.747945 0.647158 0.584622 0.134752
H54   H     H_    0.641911 0.334144 0.419340 0.131389
H55   H     H_    0.360679 0.644417 0.638857 0.157020
H56   H     H_    0.886584 0.508089 0.792439 0.156365
N1    N     N_R   0.202855 0.530570 0.517293 -0.379798
N2    N     N_R   0.797489 0.482204 0.498374 -0.374407
N3    N     N_R   0.508960 0.519350 0.790140 -0.225769
N4    N     N_R   0.491040 0.480650 0.209860 -0.226192
O1    O     O_R   0.502540 0.354460 0.582000 -0.541741
O2    O     O_2   0.790418 0.471850 0.295799 -0.466334
O3    O     O_2   0.802192 0.490951 0.701335 -0.508102
O4    O     O_2   0.197258 0.590588 0.339326 -0.514281
O5    O     O_3   0.341450 0.351036 0.354635 -0.502084
O6    O     O_3   0.654306 0.677608 0.596752 -0.510663
O7    O     O_3   0.135871 0.437354 0.799325 -0.475093
O8    O     O_3   0.866460 0.458804 0.182277 -0.474754
O9    O     O_3   0.738759 0.302480 0.413214 -0.530800
O10   O     O_3   0.266805 0.679654 0.661569 -0.542988
O11   O     O_R   0.497460 0.645540 0.418000 -0.539207
O12   O     O_R   0.496500 0.341410 0.386200 -0.401697
O13   O     O_R   0.503500 0.658590 0.613800 -0.400462
O14   O     O_R   0.433290 0.506540 0.597890 -0.524407
O15   O     O_R   0.566710 0.493460 0.402110 -0.521352
O16   O     O_R   0.427240 0.493490 0.402090 -0.429655
O17   O     O_R   0.572760 0.506510 0.597910 -0.435223
O18   O     O_2   0.210895 0.470616 0.694361 -0.432496

loop_
_geom_bond_atom_site_label_1
_geom_bond_atom_site_label_2
_ccdc_geom_bond_type
C70   H41   S    
C66   C68   S    
C14   H56   S    
C34   C56   A    
C23   C45   A    
C13   H4    S    
C16   O14   A    
C73   C74   S    
C54   N2    S    
C23   C76   A    
C55   H7    S    
C3    C49   A    
C59   O6    S    
C1    C21   S    
C46   O9    S    
C74   H52   S    
C69   O9    S    
C72   O10   S    
C1    O12   A    
Cu1   N3    S    
C22   Cl3   S    
C40   O18   S    
C38   C39   A    
C11   C14   A    
C62   H22   S    
C52   H53   S    
C27   C29   A    
C35   N3    A    
C3    C47   A    
C63   H26   S    
C24   C29   A    
C17   O17   A    
C44   C53   A    
C24   Cl4   S    
C73   H49   S    
C49   C51   A    
C57   H10   S    
C74   H50   S    
C45   C67   A    
C50   C52   A    
C31   C33   A    
C70   C71   S    
Cu2   O16   S    
Cu1   O14   S    
C32   C38   A    
C12   O11   A    
C60   H17   S    
C61   H19   S    
C33   Cl6   S    
C43   O3    S    
C44   C47   A    
C2    C34   A    
C15   C76   A    
C21   C27   A    
C69   H39   S    
C59   C60   S    
C64   H29   S    
C12   C20   S    
C43   N2    A    
C58   H11   S    
C32   H34   S    
C55   H8    S    
C61   H21   S    
Cu2   N4    S    
C68   H37   S    
C52   C54   A    
C72   H46   S    
C35   Cl5   S    
C40   C45   A    
C74   H51   S    
C46   C48   A    
C26   Cl1   S    
C64   H28   S    
C49   O5    S    
C25   Cl2   S    
C59   H15   S    
C32   C35   A    
C58   H14   S    
C41   N2    A    
C68   H36   S    
C48   H54   S    
C20   C28   A    
C69   H38   S    
C16   O16   A    
C18   C67   A    
Cu1   Cu2   S    
C72   H47   S    
C22   C25   A    
C8    C18   A    
C4    C50   A    
C60   C61   S    
C53   N1    S    
C44   O10   S    
C41   C56   A    
C5    C9    A    
C29   C30   A    
C71   H43   S    
C11   H3    S    
C42   O4    S    
C62   H24   S    
C13   C15   A    
C2    C43   A    
C46   C54   A    
C62   C63   S    
C18   Cl7   S    
C31   H23   S    
C27   H6    S    
Cu2   O15   S    
C55   O5    S    
C61   H20   S    
Cu2   O12   S    
C17   O15   A    
C4    C17   S    
C36   N4    A    
C7    C19   A    
C66   H33   S    
C55   C57   S    
C66   H32   S    
C9    C34   A    
Cu1   O17   S    
C65   H30   S    
C71   H42   S    
C1    O1    A    
C19   Cl8   S    
C4    C48   A    
C7    C9    A    
C21   C25   A    
C51   H45   S    
C64   H27   S    
C22   C30   A    
C59   H16   S    
C37   H1    S    
C58   H13   S    
Cu1   O1    S    
C24   C26   A    
C72   C73   S    
C68   H35   S    
C6    C10   A    
C5    C8    A    
C5    C11   A    
C6    C7    A    
C10   C23   A    
C47   H55   S    
C42   C76   A    
C62   O7    S    
C67   O7    S    
C37   N3    A    
C19   C75   A    
C28   C30   A    
C37   C39   A    
C71   H44   S    
C75   O8    S    
C70   H40   S    
C57   C58   S    
C41   O2    S    
C20   C26   A    
C36   C38   A    
C31   C39   A    
C28   H5    S    
C12   O13   A    
C63   H25   S    
C69   C70   S    
C2    C14   A    
Cu2   O11   S    
C33   N4    A    
C63   C64   S    
C50   O6    S    
C73   H48   S    
C8    C10   A    
C65   C66   S    
C57   H9    S    
C40   N1    A    
C42   N1    A    
C56   C75   A    
C65   H31   S    
C36   H12   S    
Cu1   O13   S    
C65   O8    S    
C51   C53   A    
C60   H18   S    
C3    C16   S    
C15   H2    S    
C6    C13   A    
