data_mof_unit_30724.cif
_audit_creation_date              2012-12-10T20:41:47-0500
_audit_creation_method            fapswitch 2.2
_symmetry_space_group_name_H-M    P1
_symmetry_Int_Tables_number       1
_space_group_crystal_system       triclinic
_cell_length_a                    14.812185
_cell_length_b                    15.637272
_cell_length_c                    9.898539
_cell_angle_alpha                 89.999863
_cell_angle_beta                  91.408517
_cell_angle_gamma                 89.999725
_cell_volume                      2292.02828823

loop_
_atom_site_label
_atom_site_type_symbol
_atom_type_description
_atom_site_fract_x
_atom_site_fract_y
_atom_site_fract_z
_atom_type_partial_charge
C1    C     C_R   0.385280 0.876107 0.499452 0.912963
C2    C     C_R   0.383515 0.122610 0.499445 0.908468
C3    C     C_R   0.883511 0.377394 0.499444 0.908456
C4    C     C_R   0.885281 0.623892 0.499452 0.912943
C5    C     C_3   0.340079 0.266738 0.733762 0.613801
C6    C     C_3   0.343235 0.728585 0.732770 0.620356
C7    C     C_3   0.843269 0.771457 0.732737 0.620309
C8    C     C_3   0.840046 0.233297 0.733784 0.613786
C9    C     C_R   0.425506 0.027768 0.066670 -0.054520
C10   C     C_R   0.925498 0.472244 0.066671 -0.054522
C11   C     C_R   0.577761 0.989201 0.075022 0.631150
C12   C     C_R   0.077763 0.510794 0.075021 0.631176
C13   C     C_R   0.577766 0.990448 0.931212 0.477458
C14   C     C_R   0.077768 0.509544 0.931211 0.477432
C15   C     C_R   0.426786 0.029086 0.925076 -0.024246
C16   C     C_R   0.926777 0.470932 0.925074 -0.024234
C17   C     C_3   0.330516 0.005189 0.905830 1.183002
C18   C     C_3   0.830514 0.494867 0.905835 1.182970
C19   C     C_3   0.326576 0.000588 0.060734 0.051147
C20   C     C_3   0.826574 0.499453 0.060736 0.051159
C21   C     C_R   0.620059 0.119936 0.500557 0.963543
C22   C     C_R   0.620861 0.880543 0.500636 0.958114
C23   C     C_R   0.120856 0.619460 0.500636 0.958112
C24   C     C_R   0.120065 0.380068 0.500557 0.963541
C25   C     C_R   0.288981 0.221530 0.621219 0.084206
C26   C     C_R   0.293202 0.776068 0.621432 0.078333
C27   C     C_R   0.793217 0.723942 0.621434 0.078376
C28   C     C_R   0.788952 0.278494 0.621217 0.084196
C29   C     C_R   0.320796 0.191296 0.498989 -0.217492
C30   C     C_R   0.326880 0.803940 0.499404 -0.220253
C31   C     C_R   0.826885 0.696063 0.499406 -0.220232
C32   C     C_R   0.820778 0.308720 0.498988 -0.217479
C33   C     C_R   0.285501 0.222262 0.376858 -0.305649
C34   C     C_R   0.297215 0.767261 0.378224 -0.324713
C35   C     C_R   0.797230 0.732752 0.378233 -0.324766
C36   C     C_R   0.785459 0.277774 0.376852 -0.305605
C37   C     C_R   0.726923 0.790128 0.377230 0.672852
C38   C     C_R   0.716543 0.218921 0.376309 0.657701
C39   C     C_R   0.216587 0.281120 0.376313 0.657715
C40   C     C_R   0.226900 0.709891 0.377220 0.672852
C41   C     C_R   0.688940 0.815433 0.500278 -0.209777
C42   C     C_R   0.684866 0.187490 0.500070 -0.210484
C43   C     C_R   0.184887 0.312528 0.500071 -0.210479
C44   C     C_R   0.188924 0.684575 0.500275 -0.209784
C45   C     C_R   0.721392 0.780274 0.622276 -0.231534
C46   C     C_R   0.719083 0.220405 0.622312 -0.211626
C47   C     C_R   0.219106 0.279614 0.622314 -0.211637
C48   C     C_R   0.221377 0.719736 0.622275 -0.231468
C49   C     C_3   0.758960 0.826346 0.743935 0.667400
C50   C     C_3   0.758919 0.173347 0.741756 0.645279
C51   C     C_3   0.258942 0.326674 0.741752 0.645315
C52   C     C_3   0.258936 0.673673 0.743941 0.667375
H1    H     H_    0.312807 0.202897 0.281663 0.206039
H2    H     H_    0.329021 0.781737 0.284314 0.204768
H3    H     H_    0.829040 0.718281 0.284328 0.204779
H4    H     H_    0.812753 0.297148 0.281654 0.206031
N1    N     N_R   0.499140 0.000000 0.142800 -0.180677
N2    N     N_R   0.999140 0.500000 0.142800 -0.180681
N3    N     N_R   0.499160 1.000000 0.857150 -0.195029
N4    N     N_R   0.999160 0.500000 0.857150 -0.195037
O1    O     O_R   0.408400 0.908380 0.614690 -0.539513
O2    O     O_R   0.408400 0.091620 0.614690 -0.569562
O3    O     O_R   0.908400 0.408380 0.614690 -0.569590
O4    O     O_R   0.908400 0.591620 0.614690 -0.539510
O5    O     O_R   0.408370 0.908370 0.385350 -0.652473
O6    O     O_R   0.408370 0.091630 0.385350 -0.634146
O7    O     O_R   0.908370 0.408370 0.385350 -0.634148
O8    O     O_R   0.908370 0.591630 0.385350 -0.652497
O9    O     O_R   0.591610 0.091610 0.614650 -0.586336
O10   O     O_R   0.591610 0.908390 0.614650 -0.572785
O11   O     O_R   0.091610 0.591610 0.614650 -0.572779
O12   O     O_R   0.091610 0.408390 0.614650 -0.586340
O13   O     O_R   0.591590 0.091600 0.385310 -0.535604
O14   O     O_R   0.591590 0.908400 0.385310 -0.533059
O15   O     O_R   0.091590 0.591600 0.385310 -0.533047
O16   O     O_R   0.091590 0.408400 0.385310 -0.535606
Zn1   Zn    Zn3+2 0.500010 0.000000 0.653130 1.099439
Zn2   Zn    Zn3+2 0.000010 0.500000 0.653130 1.099435
Zn3   Zn    Zn3+2 0.499980 0.000000 0.346870 1.061511
Zn4   Zn    Zn3+2 0.999980 0.500000 0.346870 1.061506
C53   C     C_3   0.262025 0.067040 0.119087 -0.727226
H5    H     H_    0.264790 0.064480 0.230996 0.238161
H6    H     H_    0.279328 0.132487 0.084618 0.275189
H7    H     H_    0.191603 0.052764 0.085068 0.253152
C54   C     C_3   0.306978 0.910323 0.111648 -0.709772
H8    H     H_    0.366064 0.867591 0.098603 0.260242
H9    H     H_    0.288095 0.913500 0.218769 0.243422
H10   H     H_    0.247767 0.882842 0.055978 0.260673
C55   C     C_3   0.807006 0.589720 0.111670 -0.709779
H11   H     H_    0.866099 0.632447 0.098572 0.260271
H12   H     H_    0.747776 0.617204 0.056046 0.260633
H13   H     H_    0.788156 0.586541 0.218814 0.243453
C56   C     C_3   0.762000 0.433014 0.119075 -0.727208
H14   H     H_    0.691579 0.447326 0.085087 0.253147
H15   H     H_    0.779267 0.367566 0.084570 0.275221
H16   H     H_    0.764779 0.435555 0.230984 0.238142
F1    F     F_    0.699052 0.822215 0.255800 -0.613110
F2    F     F_    0.684708 0.190563 0.254412 -0.633431
F3    F     F_    0.184779 0.309505 0.254421 -0.633409
F4    F     F_    0.199006 0.677824 0.255783 -0.613130
F5    F     F_    0.773768 0.912478 0.720611 -0.546630
F6    F     F_    0.778247 0.088622 0.713254 -0.560022
F7    F     F_    0.278250 0.411402 0.713255 -0.560011
F8    F     F_    0.273769 0.587546 0.720623 -0.546638
C57   C     C_3   0.703010 0.808192 0.869480 -0.578925
H17   H     H_    0.699264 0.738520 0.890821 0.209759
H18   H     H_    0.733742 0.840932 0.958871 0.295549
H19   H     H_    0.632624 0.830530 0.852880 0.222386
C58   C     C_3   0.702450 0.184000 0.868603 -0.576820
H20   H     H_    0.690190 0.252601 0.891239 0.223805
H21   H     H_    0.635767 0.152925 0.853611 0.225208
H22   H     H_    0.738115 0.154128 0.956559 0.279503
C59   C     C_3   0.202484 0.316009 0.868606 -0.576822
H23   H     H_    0.190242 0.247407 0.891236 0.223803
H24   H     H_    0.238146 0.345884 0.956557 0.279521
H25   H     H_    0.135795 0.347070 0.853627 0.225193
C60   C     C_3   0.202971 0.691810 0.869477 -0.578879
H26   H     H_    0.199184 0.761485 0.890814 0.209744
H27   H     H_    0.132598 0.669433 0.852881 0.222440
H28   H     H_    0.233724 0.659088 0.958873 0.295521
C61   C     C_3   0.428275 0.309128 0.690298 -0.760114
H29   H     H_    0.480440 0.259442 0.673856 0.216230
H30   H     H_    0.418092 0.346133 0.595257 0.228767
H31   H     H_    0.453269 0.352952 0.771144 0.270779
C62   C     C_3   0.427819 0.681158 0.686086 -0.757376
H32   H     H_    0.482299 0.727962 0.665986 0.212287
H33   H     H_    0.451965 0.636812 0.766764 0.271090
H34   H     H_    0.413511 0.643865 0.592364 0.230530
C63   C     C_3   0.927822 0.818903 0.685970 -0.757296
H35   H     H_    0.982278 0.772104 0.665656 0.212149
H36   H     H_    0.913430 0.856274 0.592340 0.230650
H37   H     H_    0.952056 0.863166 0.766706 0.271074
C64   C     C_3   0.928261 0.190918 0.690355 -0.760110
H38   H     H_    0.980421 0.240613 0.673933 0.216250
H39   H     H_    0.953251 0.147098 0.771218 0.270765
H40   H     H_    0.918102 0.153909 0.595307 0.228760
F9    F     F_    0.353560 0.216240 0.847195 -0.639144
F10   F     F_    0.362178 0.777444 0.846258 -0.630965
F11   F     F_    0.862267 0.722613 0.846241 -0.630915
F12   F     F_    0.853498 0.283807 0.847219 -0.639161
F13   F     F_    0.656695 0.979268 0.145192 -0.545896
F14   F     F_    0.156696 0.520728 0.145191 -0.545887
F15   F     F_    0.656975 0.986883 0.867183 -0.551713
F16   F     F_    0.156977 0.513097 0.867182 -0.551707
F17   F     F_    0.279136 0.069499 0.846560 -0.640226
F18   F     F_    0.318179 0.928693 0.839384 -0.633497
F19   F     F_    0.818199 0.571381 0.839427 -0.633536
F20   F     F_    0.779109 0.430582 0.846540 -0.640191

loop_
_geom_bond_atom_site_label_1
_geom_bond_atom_site_label_2
_ccdc_geom_bond_type
O8    Zn4   S    
C20   C56   S    
C56   H14   S    
O5    Zn3   S    
C29   C33   A    
N1    Zn3   S    
O2    Zn1   S    
O9    Zn1   S    
C38   F2    S    
N3    Zn1   S    
C37   F1    S    
C53   H5    S    
C6    C26   S    
C54   H8    S    
C63   H36   S    
O6    Zn3   S    
C57   H18   S    
N4    Zn2   S    
C51   C59   S    
C2    C29   S    
C34   C40   A    
C32   C36   A    
C10   N2    A    
C38   C42   A    
C18   F20   S    
C60   H27   S    
C49   F5    S    
C22   C41   S    
C51   F7    S    
C5    C61   S    
C7    C27   S    
C42   C46   A    
C61   H31   S    
O12   Zn2   S    
C59   H23   S    
C9    C19   S    
C10   C20   S    
C62   H34   S    
C1    O5    A    
C55   H12   S    
O15   Zn4   S    
C25   C47   A    
C40   C44   A    
C18   C20   S    
N2    Zn4   S    
C63   H37   S    
C12   N2    A    
C52   C60   S    
C27   C45   A    
C56   H15   S    
O10   Zn1   S    
C25   C29   A    
C15   N3    A    
C53   H6    S    
C54   H9    S    
C33   H1    S    
C57   H19   S    
C14   F16   S    
C61   H30   S    
C30   C34   A    
C27   C31   A    
C23   O11   A    
C28   C32   A    
C7    C49   S    
C18   F19   S    
C60   H28   S    
O1    Zn1   S    
C4    O8    A    
C24   O16   A    
C47   C51   S    
C2    O6    A    
C35   H3    S    
C50   C58   S    
C23   C44   S    
C21   O9    A    
C6    F10   S    
C17   F17   S    
C36   H4    S    
C64   H40   S    
C39   F3    S    
C45   C49   S    
C28   C46   A    
O13   Zn3   S    
C33   C39   A    
C55   H13   S    
C5    F9    S    
C11   F13   S    
C61   H29   S    
C16   N4    A    
C12   C14   A    
C26   C30   A    
C56   H16   S    
C3    O3    A    
O14   Zn3   S    
C64   H38   S    
C8    C28   S    
C5    C25   S    
C58   H22   S    
C22   O14   A    
C8    C50   S    
C53   H7    S    
C24   O12   A    
C64   H39   S    
C63   H35   S    
C20   C55   S    
C54   H10   S    
C15   C17   S    
C46   C50   S    
C52   F8    S    
C35   C37   A    
C8    C64   S    
O4    Zn2   S    
C21   O13   A    
O7    Zn4   S    
O16   Zn4   S    
C6    C62   S    
C23   O15   A    
C19   C54   S    
C1    O1    A    
C40   F4    S    
C49   C57   S    
C50   F6    S    
C13   N3    A    
C26   C48   A    
C14   N4    A    
C57   H17   S    
C4    O4    A    
C60   H26   S    
C8    F12   S    
C59   H25   S    
C58   H21   S    
C17   F18   S    
C9    C15   A    
C19   C53   S    
C58   H20   S    
C7    F11   S    
C11   C13   A    
C34   H2    S    
C62   H32   S    
C3    O7    A    
C31   C35   A    
C36   C38   A    
C1    C30   S    
C17   C19   S    
C12   F14   S    
C9    N1    A    
C13   F15   S    
C37   C41   A    
C3    C32   S    
C7    C63   S    
C4    C31   S    
C21   C42   S    
C44   C48   A    
C48   C52   S    
C39   C43   A    
C16   C18   S    
C62   H33   S    
C24   C43   S    
C41   C45   A    
C5    C51   S    
C10   C16   A    
C6    C52   S    
C55   H11   S    
C11   N1    A    
C43   C47   A    
C22   O10   A    
O11   Zn2   S    
C2    O2    A    
C59   H24   S    
O3    Zn2   S    
