data_mof_unit_21499.cif
_audit_creation_date              2012-12-11T17:11:41-0500
_audit_creation_method            fapswitch 2.2
_symmetry_space_group_name_H-M    P1
_symmetry_Int_Tables_number       1
_space_group_crystal_system       triclinic
_cell_length_a                    14.97887
_cell_length_b                    6.941862
_cell_length_c                    13.636243
_cell_angle_alpha                 90.019615
_cell_angle_beta                  100.806682
_cell_angle_gamma                 89.974321
_cell_volume                      1392.7672407

loop_
_atom_site_label
_atom_site_type_symbol
_atom_type_description
_atom_site_fract_x
_atom_site_fract_y
_atom_site_fract_z
_atom_type_partial_charge
O1    O     O_R   0.398250 0.605080 0.401520 -0.535400
O2    O     O_R   0.898250 0.394920 0.901520 -0.536092
O3    O     O_R   0.584130 0.932110 0.405450 -0.547431
O4    O     O_R   0.084130 0.067890 0.905450 -0.543757
O5    O     O_R   0.601750 0.105090 0.598480 -0.542330
O6    O     O_R   0.101750 0.894910 0.098480 -0.539897
C1    C     C_R   0.616171 0.763609 0.388815 0.630631
C2    C     C_R   0.109696 0.237239 0.880997 0.625397
O7    O     O_R   0.397870 0.934620 0.389680 -0.540577
O8    O     O_R   0.897870 0.065380 0.889680 -0.540070
O9    O     O_R   0.414160 0.107620 0.582600 -0.546327
O10   O     O_R   0.914160 0.892380 0.082600 -0.548729
C3    C     C_R   0.363994 0.765732 0.362666 0.738349
C4    C     C_R   0.864092 0.234311 0.862533 0.720661
O11   O     O_R   0.585840 0.602550 0.417400 -0.508028
O12   O     O_R   0.085840 0.397450 0.917400 -0.511293
O13   O     O_3   0.505560 0.772440 0.563310 -0.380744
O14   O     O_3   0.005560 0.227560 0.063310 -0.372552
V1    V     V_3+5 0.498970 0.046250 0.488250 1.480991
V2    V     V_3+5 0.998970 0.953750 0.988250 1.508155
O15   O     O_R   0.415870 0.437500 0.594550 -0.539935
O16   O     O_R   0.915870 0.562500 0.094550 -0.538276
C5    C     C_R   0.388973 0.268901 0.617400 0.729341
C6    C     C_R   0.885496 0.730661 0.113187 0.728439
O17   O     O_R   0.602130 0.434980 0.610320 -0.535674
O18   O     O_R   0.102130 0.565020 0.110320 -0.538432
C7    C     C_R   0.636054 0.265929 0.637218 0.773482
C8    C     C_R   0.135975 0.734074 0.137315 0.741424
V3    V     V_3+5 0.501030 0.546580 0.511750 1.507139
V4    V     V_3+5 0.001030 0.453420 0.011750 1.526433
O19   O     O_3   0.494440 0.270520 0.436690 -0.366034
O20   O     O_3   0.994440 0.729480 0.936690 -0.350055
C9    C     C_1   0.716486 0.255260 0.716698 -0.158144
C10   C     C_1   0.216324 0.744781 0.216904 -0.162846
C11   C     C_1   0.783804 0.245068 0.782874 -0.171419
C12   C     C_1   0.283631 0.755019 0.283095 -0.163559
C13   C     C_2   0.281603 0.110495 0.710844 -0.037795
C14   C     C_2   0.784821 0.890372 0.214603 -0.043075
C15   C     C_2   0.328873 0.265838 0.691636 -0.250469
C16   C     C_2   0.812542 0.731936 0.172329 -0.239037
H1    H     H_    0.291025 0.973955 0.675249 0.169021
H2    H     H_    0.813292 0.029715 0.201403 0.163711
H3    H     H_    0.324002 0.397900 0.732726 0.179220
H4    H     H_    0.779095 0.595732 0.179561 0.179590
C17   C     C_2   0.223150 0.112423 0.787838 -0.216400
C18   C     C_2   0.708687 0.886322 0.270770 -0.223425
C19   C     C_2   0.162328 0.251643 0.799507 0.243292
C20   C     C_2   0.696089 0.752201 0.339337 0.245868
H5    H     H_    0.230235 0.988630 0.837401 0.139845
H6    H     H_    0.660444 0.004267 0.255039 0.130894
S1    S     S_3+6 0.131515 0.442851 0.712599 0.050898
O21   O     O_2   0.191420 0.613893 0.744290 -0.344091
O22   O     O_2   0.140730 0.383783 0.608882 -0.294319
O23   O     O_3   0.023097 0.508213 0.711166 -0.459620
H7    H     H_    0.986609 0.392113 0.688352 0.338554
S2    S     S_3+6 0.778858 0.574183 0.386784 0.047085
O24   O     O_2   0.759540 0.392897 0.326297 -0.336415
O25   O     O_2   0.873508 0.642085 0.383306 -0.288153
O26   O     O_3   0.772851 0.522782 0.505916 -0.479862
H8    H     H_    0.788037 0.645027 0.542764 0.331842

loop_
_geom_bond_atom_site_label_1
_geom_bond_atom_site_label_2
_ccdc_geom_bond_type
C14   C16   D    
O3    V1    S    
O5    V1    S    
O17   C7    A    
O13   V3    S    
O10   C6    A    
O5    C7    A    
O18   C8    A    
S2    O26   S    
C17   H5    S    
O4    C2    A    
S1    O23   S    
V1    O19   S    
C1    C20   S    
O10   V2    S    
C1    O11   A    
C2    C19   S    
C8    C10   S    
O26   H8    S    
C13   C15   D    
V2    O20   S    
C7    C9    S    
V4    O20   S    
C9    C11   T    
O9    V1    S    
O15   V3    S    
C3    C12   S    
C13   H1    S    
O14   V4    S    
O1    V3    S    
C6    C16   S    
S2    O25   D    
C18   H6    S    
O11   V3    S    
O3    C1    A    
C10   C12   T    
O15   C5    A    
O17   V3    S    
O2    C4    A    
O16   C6    A    
C14   C18   S    
O1    C3    A    
O2    V4    S    
O12   V4    S    
S1    O21   D    
O4    V2    S    
C14   H2    S    
C16   H4    S    
O6    V2    S    
S2    O24   D    
C15   H3    S    
O14   V2    S    
C2    O12   A    
O7    V1    S    
O8    C4    A    
C17   C19   D    
O9    C5    A    
C4    C11   S    
C20   S2    S    
O7    C3    A    
O23   H7    S    
C19   S1    S    
O16   V4    S    
O13   V1    S    
V3    O19   S    
C13   C17   S    
C18   C20   D    
C5    C15   S    
O6    C8    A    
O8    V2    S    
S1    O22   D    
O18   V4    S    
