data_mof_unit_6771.cif
_audit_creation_date              2013-03-05T15:40:47-0500
_audit_creation_method            fapswitch 2.2
_symmetry_space_group_name_H-M    P1
_symmetry_Int_Tables_number       1
_space_group_crystal_system       triclinic
_cell_length_a                    16.762103
_cell_length_b                    16.886849
_cell_length_c                    16.855751
_cell_angle_alpha                 68.506112
_cell_angle_beta                  68.181685
_cell_angle_gamma                 68.434357
_cell_volume                      3970.74922125

loop_
_atom_site_label
_atom_site_type_symbol
_atom_site_description
_atom_site_fract_x
_atom_site_fract_y
_atom_site_fract_z
_atom_type_partial_charge
O1    O     O_R   0.124540 0.978640 0.385460 -0.527593
O2    O     O_R   0.875460 0.021360 0.614540 -0.541777
O3    O     O_R   0.978640 0.385460 0.124540 -0.524047
O4    O     O_R   0.021360 0.614540 0.875460 -0.528956
O5    O     O_R   0.385460 0.124540 0.978640 -0.527244
O6    O     O_R   0.614540 0.875460 0.021360 -0.534079
O7    O     O_R   0.614540 0.021360 0.875460 -0.547603
O8    O     O_R   0.385460 0.978640 0.124540 -0.531122
O9    O     O_R   0.875460 0.614540 0.021360 -0.550313
O10   O     O_R   0.124540 0.385460 0.978640 -0.547777
O11   O     O_R   0.021360 0.875460 0.614540 -0.537841
O12   O     O_R   0.978640 0.124540 0.385460 -0.516035
Cu1   Cu    Cu3+1 0.995180 0.995180 0.424630 1.131675
Cu2   Cu    Cu3+1 0.004820 0.004820 0.575370 1.084769
Cu3   Cu    Cu3+1 0.995180 0.424630 0.995180 1.102928
Cu4   Cu    Cu3+1 0.004820 0.575370 0.004820 1.075573
Cu5   Cu    Cu3+1 0.424630 0.995180 0.995180 1.149828
Cu6   Cu    Cu3+1 0.575370 0.004820 0.004820 1.084129
C1    C     C_R   0.030088 0.828732 0.564122 0.855822
C2    C     C_R   0.980307 0.170224 0.432975 0.865731
C3    C     C_R   0.828086 0.564021 0.030292 0.883613
C4    C     C_R   0.172082 0.435605 0.970383 0.882426
C5    C     C_R   0.566005 0.023563 0.828867 0.833658
C6    C     C_R   0.433380 0.976801 0.170628 0.895965
C7    C     C_R   0.431228 0.169501 0.982262 0.866984
C8    C     C_R   0.567282 0.829647 0.021205 0.861531
C9    C     C_R   0.983666 0.431477 0.169236 0.875719
C10   C     C_R   0.015794 0.569517 0.830764 0.883748
C11   C     C_R   0.170186 0.978521 0.433052 0.895031
C12   C     C_R   0.828571 0.025474 0.565387 0.836040
O13   O     O_R   0.013780 0.867370 0.487190 -0.576674
O14   O     O_R   0.986220 0.132630 0.512810 -0.559623
O15   O     O_R   0.867370 0.487190 0.013780 -0.538823
O16   O     O_R   0.132630 0.512810 0.986220 -0.549922
O17   O     O_R   0.487190 0.013780 0.867370 -0.555589
O18   O     O_R   0.512810 0.986220 0.132630 -0.559226
O19   O     O_R   0.512810 0.132630 0.986220 -0.575680
O20   O     O_R   0.487190 0.867370 0.013780 -0.540506
O21   O     O_R   0.986220 0.512810 0.132630 -0.578528
O22   O     O_R   0.013780 0.487190 0.867370 -0.571012
O23   O     O_R   0.132630 0.986220 0.512810 -0.572376
O24   O     O_R   0.867370 0.013780 0.487190 -0.559504
C13   C     C_R   0.464129 0.011709 0.718919 0.191314
C14   C     C_R   0.543550 0.917762 0.297910 0.203878
C15   C     C_R   0.104429 0.686871 0.459541 0.191158
C16   C     C_R   0.015709 0.275374 0.524323 0.209734
C17   C     C_R   0.682130 0.461191 0.101764 0.202978
C18   C     C_R   0.309931 0.538986 0.915343 0.180182
C19   C     C_R   0.294696 0.930400 0.542553 0.139043
C20   C     C_R   0.724386 0.003466 0.468718 0.194839
C21   C     C_R   0.494554 0.266535 0.054371 0.204704
C22   C     C_R   0.486899 0.725107 0.976047 0.246599
C23   C     C_R   0.052734 0.504772 0.261894 0.182325
C24   C     C_R   0.929820 0.523135 0.725780 0.164028
C25   C     C_R   0.553619 0.988100 0.550786 -0.124312
C26   C     C_R   0.461201 0.960136 0.458836 -0.083061
C27   C     C_R   0.013756 0.554134 0.543183 -0.088976
C28   C     C_R   0.009259 0.451600 0.446002 -0.088434
C29   C     C_R   0.552094 0.544224 0.009189 -0.067400
C30   C     C_R   0.453574 0.450325 0.990969 -0.065463
C31   C     C_R   0.601088 0.962729 0.471046 -0.059462
C32   C     C_R   0.416487 0.974523 0.543865 -0.002765
C33   C     C_R   0.975354 0.482283 0.587207 -0.080402
C34   C     C_R   0.033658 0.531951 0.400762 -0.051528
C35   C     C_R   0.484651 0.589462 0.964747 -0.080867
C36   C     C_R   0.527818 0.403952 0.027165 -0.088627
C37   C     C_R   0.554255 0.951554 0.422054 -0.050950
C38   C     C_R   0.461660 0.996853 0.584800 -0.037385
C39   C     C_R   0.430371 0.543782 0.960820 -0.060632
C40   C     C_R   0.571925 0.451931 0.043923 -0.085106
C41   C     C_R   0.989066 0.421976 0.539491 -0.063543
C42   C     C_R   0.049177 0.575616 0.449881 -0.080748
C43   C     C_R   0.417779 0.031491 0.657975 0.500179
C44   C     C_R   0.594755 0.931687 0.338347 0.402684
C45   C     C_R   0.105431 0.633643 0.411413 0.429739
C46   C     C_R   0.995310 0.330297 0.579032 0.423689
C47   C     C_R   0.627735 0.413857 0.102406 0.424473
C48   C     C_R   0.352943 0.587502 0.929339 0.397099
C49   C     C_R   0.332643 0.954922 0.589046 0.430528
C50   C     C_R   0.693645 0.952776 0.443736 0.430783
C51   C     C_R   0.553480 0.310613 0.047370 0.415048
C52   C     C_R   0.473947 0.680983 0.928415 0.466749
C53   C     C_R   0.046295 0.561851 0.308007 0.416017
C54   C     C_R   0.922694 0.475962 0.676109 0.422835
C55   C     C_R   0.555724 0.011486 0.685964 -0.100800
C56   C     C_R   0.450715 0.947490 0.323409 -0.054951
C57   C     C_R   0.055328 0.675972 0.549710 -0.096565
C58   C     C_R   0.998572 0.312522 0.440334 -0.049230
C59   C     C_R   0.674281 0.549765 0.052000 -0.043758
C60   C     C_R   0.326312 0.447798 0.952486 -0.050538
C61   C     C_R   0.322192 0.953497 0.449709 -0.034684
C62   C     C_R   0.685857 0.014136 0.555567 -0.076989
C63   C     C_R   0.427360 0.309456 0.009948 -0.075812
C64   C     C_R   0.564374 0.685967 0.006257 -0.100683
C65   C     C_R   0.015794 0.432109 0.305924 -0.066308
C66   C     C_R   0.988666 0.577935 0.686985 -0.072701
C67   C     C_R   0.601976 0.028458 0.732219 -0.144878
C68   C     C_R   0.395966 0.967713 0.267283 -0.106918
C69   C     C_R   0.047028 0.730843 0.600443 -0.109018
C70   C     C_R   0.981975 0.265111 0.394857 -0.139201
C71   C     C_R   0.728747 0.599879 0.047202 -0.111458
C72   C     C_R   0.271657 0.399433 0.954644 -0.104164
C73   C     C_R   0.266632 0.970546 0.395689 -0.107251
C74   C     C_R   0.730783 0.033486 0.600611 -0.124362
C75   C     C_R   0.389328 0.263775 0.982828 -0.128166
C76   C     C_R   0.605521 0.733547 0.027647 -0.136081
C77   C     C_R   0.989488 0.390612 0.262660 -0.134547
C78   C     C_R   0.014979 0.613250 0.735891 -0.148135
C79   C     C_R   0.684345 0.049524 0.684676 0.194219
C80   C     C_R   0.302735 0.991378 0.302976 0.198064
C81   C     C_R   0.042218 0.692641 0.691321 0.239905
C82   C     C_R   0.965808 0.310337 0.311103 0.213974
C83   C     C_R   0.688818 0.689189 0.047858 0.221239
C84   C     C_R   0.312149 0.311191 0.952051 0.207844
C85   C     C_R   0.598743 0.004769 0.597773 -0.031661
C86   C     C_R   0.410937 0.956190 0.409812 0.004482
C87   C     C_R   0.019444 0.602568 0.593259 -0.026603
C88   C     C_R   0.004437 0.400076 0.397986 -0.008877
C89   C     C_R   0.598871 0.593461 0.020032 -0.012023
C90   C     C_R   0.402577 0.402608 0.984297 -0.007162
Br1   Br    Br    0.423577 0.919347 0.816958 -0.412510
Br2   Br    Br    0.596101 0.820409 0.247237 -0.399169
Br3   Br    Br    0.190658 0.755361 0.406163 -0.401023
Br4   Br    Br    0.120666 0.177779 0.533091 -0.573993
Br5   Br    Br    0.737058 0.417268 0.196074 -0.401718
Br6   Br    Br    0.252815 0.595878 0.821392 -0.384109
Br7   Br    Br    0.252364 0.826502 0.599885 -0.395387
Br8   Br    Br    0.755904 0.102246 0.372908 -0.448200
Br9   Br    Br    0.486226 0.164811 0.153948 -0.533403
Br10  Br    Br    0.377093 0.757842 0.064262 -0.474777
Br11  Br    Br    0.151925 0.502352 0.157832 -0.538943
Br12  Br    Br    0.836540 0.533899 0.833345 -0.559683
O25   O     O_3   0.340524 0.099779 0.658375 -0.567821
C91   C     C_3   0.365721 0.179629 0.611761 0.070552
H1    H     H_    0.404367 0.179776 0.541727 0.146731
H2    H     H_    0.406537 0.189969 0.644542 0.160120
C92   C     C_3   0.283475 0.257451 0.610208 -0.778211
H3    H     H_    0.243069 0.258920 0.679098 0.258751
H4    H     H_    0.303647 0.319988 0.576072 0.210034
H5    H     H_    0.243617 0.252132 0.573472 0.256144
O26   O     O_3   0.684806 0.919634 0.297250 -0.522490
C93   C     C_3   0.698037 0.998446 0.231925 0.132320
H6    H     H_    0.667823 0.056081 0.260874 0.166118
H7    H     H_    0.668855 0.011213 0.177431 0.178113
C94   C     C_3   0.797605 0.989372 0.192783 -0.672574
H8    H     H_    0.828240 0.938052 0.155951 0.228545
H9    H     H_    0.809114 0.053173 0.146734 0.209618
H10   H     H_    0.829934 0.970492 0.246241 0.283229
O27   O     O_3   0.168792 0.633233 0.330299 -0.491096
C95   C     C_3   0.239586 0.555540 0.340202 0.105816
H11   H     H_    0.217194 0.495943 0.355274 0.141000
H12   H     H_    0.267429 0.548424 0.393868 0.142247
C96   C     C_3   0.313870 0.560207 0.253944 -0.646233
H13   H     H_    0.368371 0.498122 0.259828 0.158219
H14   H     H_    0.288088 0.569287 0.198400 0.270728
H15   H     H_    0.341070 0.616327 0.239532 0.280570
O28   O     O_3   0.983101 0.292296 0.669539 -0.521018
C97   C     C_3   0.058774 0.281348 0.694821 0.072174
H16   H     H_    0.086922 0.339406 0.662402 0.130964
H17   H     H_    0.110928 0.221897 0.678879 0.188604
C98   C     C_3   0.033598 0.266075 0.794785 -0.710223
H18   H     H_    0.008654 0.206223 0.829100 0.239722
H19   H     H_    0.093053 0.256302 0.815298 0.217714
H20   H     H_    0.980978 0.323783 0.814962 0.275272
O29   O     O_3   0.622972 0.335346 0.167821 -0.491019
C99   C     C_3   0.541733 0.349739 0.234727 0.111527
H21   H     H_    0.483904 0.363914 0.209594 0.140591
H22   H     H_    0.533290 0.405519 0.260141 0.141900
C100  C     C_3   0.541442 0.266982 0.311879 -0.659337
H23   H     H_    0.594940 0.254171 0.342258 0.280968
H24   H     H_    0.476214 0.276116 0.362922 0.174880
H25   H     H_    0.552528 0.209254 0.288521 0.267144
O30   O     O_3   0.320065 0.678259 0.908114 -0.506062
C101  C     C_3   0.242114 0.701820 0.975210 0.137324
H26   H     H_    0.256935 0.679218 0.040382 0.176490
H27   H     H_    0.189230 0.673240 0.981260 0.169639
C102  C     C_3   0.206233 0.801677 0.951271 -0.660255
H28   H     H_    0.183316 0.824252 0.890811 0.248855
H29   H     H_    0.149298 0.822677 0.006109 0.188004
H30   H     H_    0.259207 0.832770 0.938740 0.296506
O31   O     O_3   0.301001 0.941617 0.680821 -0.540375
C103  C     C_3   0.206530 0.969187 0.710507 0.172463
H31   H     H_    0.180211 0.910272 0.738746 0.194310
H32   H     H_    0.174454 0.015869 0.657626 0.170614
C104  C     C_3   0.178050 0.014576 0.783623 -0.729649
H33   H     H_    0.190469 0.080730 0.755656 0.279831
H34   H     H_    0.105586 0.023028 0.816539 0.188824
H35   H     H_    0.215502 0.974801 0.833758 0.275183
O32   O     O_3   0.754784 0.878909 0.418075 -0.530586
C105  C     C_3   0.750200 0.803917 0.491963 0.097211
H36   H     H_    0.685505 0.788086 0.511347 0.151167
H37   H     H_    0.758265 0.814576 0.549794 0.121729
C106  C     C_3   0.824792 0.724532 0.468177 -0.760281
H38   H     H_    0.890404 0.738935 0.446259 0.247498
H39   H     H_    0.823515 0.666448 0.527037 0.186818
H40   H     H_    0.815742 0.708431 0.414373 0.250500
O33   O     O_3   0.636827 0.260064 0.058303 -0.519516
C107  C     C_3   0.700160 0.270456 0.974305 0.095360
H41   H     H_    0.709561 0.338123 0.948936 0.160162
H42   H     H_    0.679734 0.257689 0.925171 0.144232
C108  C     C_3   0.789441 0.204959 0.982542 -0.700421
H43   H     H_    0.783550 0.136499 0.002797 0.231487
H44   H     H_    0.840365 0.215416 0.917580 0.218318
H45   H     H_    0.811109 0.214296 0.032539 0.266382
O34   O     O_3   0.459949 0.726489 0.845535 -0.490356
C109  C     C_3   0.524997 0.684702 0.780479 0.107562
H46   H     H_    0.511076 0.623248 0.785600 0.153510
H47   H     H_    0.593576 0.668509 0.786737 0.122839
C110  C     C_3   0.522065 0.746554 0.688842 -0.680454
H48   H     H_    0.540965 0.806542 0.679418 0.240053
H49   H     H_    0.569728 0.712675 0.637299 0.171785
H50   H     H_    0.453879 0.766324 0.681038 0.297779
O35   O     O_3   0.056146 0.645517 0.260285 -0.519718
C111  C     C_3   0.976712 0.699820 0.236493 0.100792
H51   H     H_    0.936223 0.739626 0.284791 0.171476
H52   H     H_    0.934542 0.663011 0.234156 0.143981
C112  C     C_3   0.000405 0.762535 0.145306 -0.709558
H53   H     H_    0.043604 0.724181 0.096166 0.242597
H54   H     H_    0.938797 0.804209 0.124990 0.209680
H55   H     H_    0.035907 0.805791 0.146822 0.249611
O36   O     O_3   0.859319 0.428676 0.714107 -0.516046
C113  C     C_3   0.785593 0.476043 0.678502 0.121733
H56   H     H_    0.801203 0.467239 0.611606 0.147211
H57   H     H_    0.766105 0.548064 0.673575 0.126140
C114  C     C_3   0.705752 0.440577 0.738834 -0.754100
H58   H     H_    0.686780 0.451685 0.805225 0.239758
H59   H     H_    0.648138 0.475427 0.710162 0.199897
H60   H     H_    0.722277 0.368712 0.746076 0.266983
Br13  Br    Br    0.725188 0.117121 0.726128 -0.467234
Br14  Br    Br    0.226457 0.072080 0.226765 -0.403461
Br15  Br    Br    0.078125 0.749154 0.750464 -0.364067
Br16  Br    Br    0.902808 0.265367 0.267944 -0.319937
Br17  Br    Br    0.747018 0.745536 0.084953 -0.397409
Br18  Br    Br    0.271291 0.266091 0.887478 -0.470661

loop_
_geom_bond_atom_site_label_1
_geom_bond_atom_site_label_2
_geom_bond_distance
_ccdc_geom_bond_type
C13   C43   1.386174 A    
C99   H22   1.115089 S    
O28   C97   1.412936 S    
C68   C80   1.407851 A    
C23   C65   1.410478 A    
C81   Br15  1.957610 S    
C50   O32   1.385430 S    
C1    O13   1.301682 A    
C110  H50   1.110922 S    
C91   C92   1.515927 S    
C16   C46   1.409530 A    
C25   C38   1.401509 A    
C21   Br9   1.917485 S    
C7    C75   1.487276 S    
C35   C52   1.407145 A    
C84   Br18  1.943896 S    
O6    C8    1.295964 A    
O34   C109  1.414903 S    
O10   C4    1.303359 A    
C112  H55   1.110342 S    
C83   Br17  1.954448 S    
C92   H4    1.110518 S    
O11   C1    1.296304 A    
O29   C99   1.414661 S    
C73   C80   1.408125 A    
C6    C68   1.482961 S    
C15   C57   1.413435 A    
O9    Cu4   1.961726 S    
C45   O27   1.385473 S    
C57   C87   1.410756 A    
C54   O36   1.385421 S    
C51   O33   1.383430 S    
C74   C79   1.411902 A    
O11   Cu2   1.979565 S    
C109  H47   1.115904 S    
C28   C41   1.413644 A    
C104  H34   1.110511 S    
C3    O15   1.301827 A    
C10   O22   1.305779 A    
C31   C50   1.407583 A    
C47   O29   1.386013 S    
Cu3   Cu4   2.675295 S    
O31   C103  1.419318 S    
C28   C88   1.426524 A    
C114  H60   1.110787 S    
C71   C83   1.409713 A    
C61   C86   1.396724 A    
C11   C73   1.474292 S    
C56   C86   1.396479 A    
C108  H43   1.110142 S    
C18   C48   1.396058 A    
C33   C41   1.423924 A    
C31   C37   1.427854 A    
C101  H26   1.113569 S    
C60   C72   1.418145 A    
C80   Br14  1.949165 S    
C97   C98   1.522081 S    
C53   O35   1.382174 S    
C103  H31   1.109303 S    
C79   Br13  1.942785 S    
C14   C56   1.394588 A    
C64   C76   1.433803 A    
C59   C89   1.400666 A    
C9    O21   1.292862 A    
C102  H29   1.107540 S    
C95   C96   1.520869 S    
Cu5   Cu6   2.657850 S    
C48   O30   1.380005 S    
C29   C89   1.427097 A    
C82   Br16  1.945886 S    
C22   C64   1.412979 A    
C107  H41   1.112493 S    
C23   Br11  1.917680 S    
C63   C90   1.410210 A    
C9    C77   1.494622 S    
C96   H14   1.110705 S    
C21   C51   1.390329 A    
C59   C71   1.420970 A    
C105  C106  1.519929 S    
C3    C71   1.501007 S    
O7    Cu6   1.971766 S    
C66   C78   1.433041 A    
O2    Cu2   1.959946 S    
C30   C36   1.425511 A    
C18   C60   1.396089 A    
Cu1   Cu2   2.671343 S    
C40   C47   1.427981 A    
C97   H17   1.105546 S    
C17   C59   1.405734 A    
C93   C94   1.520464 S    
C16   Br4   1.927797 S    
C39   C48   1.425309 A    
O33   C107  1.414221 S    
C108  H44   1.110461 S    
C19   C61   1.400837 A    
C42   C45   1.424412 A    
C19   Br7   1.917991 S    
C24   C54   1.408123 A    
Cu1   O24   1.967007 S    
C98   H19   1.110582 S    
C27   C33   1.412973 A    
C16   C58   1.413937 A    
C17   Br5   1.909655 S    
C65   C88   1.406355 A    
C28   C34   1.416952 A    
C114  H59   1.110515 S    
O6    Cu6   1.978930 S    
C46   O28   1.388559 S    
C94   H9    1.108671 S    
C76   C83   1.422793 A    
C13   C55   1.424476 A    
C100  H23   1.109358 S    
C66   C87   1.416124 A    
C55   C85   1.417474 A    
Cu2   O14   1.987297 S    
C37   C44   1.425358 A    
C1    C69   1.493488 S    
C109  H46   1.111864 S    
C8    O20   1.289022 A    
C104  H35   1.108061 S    
C91   H2    1.115084 S    
C29   C40   1.406223 A    
C113  C114  1.521567 S    
C106  H39   1.110582 S    
C38   C43   1.393735 A    
O30   C101  1.412006 S    
C15   Br3   1.932869 S    
C19   C49   1.411445 A    
C103  C104  1.523214 S    
C60   C90   1.413001 A    
C97   H16   1.112756 S    
O4    Cu4   1.974170 S    
C14   C44   1.399024 A    
C34   C53   1.413568 A    
O36   C113  1.414226 S    
C72   C84   1.401881 A    
C8    C76   1.488002 S    
O25   C91   1.417582 S    
C67   C79   1.415882 A    
C64   C89   1.413696 A    
C32   C49   1.423513 A    
C2    C70   1.498740 S    
O35   C111  1.415772 S    
C102  H30   1.109417 S    
C69   C81   1.411174 A    
O12   C2    1.312487 A    
C107  C108  1.518983 S    
O1    C11   1.297260 A    
C110  H48   1.110137 S    
C26   C86   1.412897 A    
C77   C82   1.416127 A    
C4    O16   1.303204 A    
C96   H15   1.109768 S    
C22   C52   1.390624 A    
C101  C102  1.517978 S    
C15   C45   1.406916 A    
C58   C70   1.441533 A    
C65   C77   1.434564 A    
C21   C63   1.408428 A    
Cu2   O23   1.967008 S    
O5    C7    1.290632 A    
C20   C62   1.413341 A    
C5    C67   1.494021 S    
C44   O26   1.378375 S    
C43   O25   1.381369 S    
C70   C82   1.411337 A    
O5    Cu5   1.978930 S    
C5    O17   1.279987 A    
Cu4   O16   1.970714 S    
C99   H21   1.112085 S    
C108  H45   1.110860 S    
C95   H12   1.115094 S    
C20   Br8   1.925949 S    
C17   C47   1.411544 A    
C58   C88   1.409428 A    
C41   C46   1.424292 A    
C94   H10   1.110262 S    
O3    Cu3   1.974168 S    
C98   H20   1.109633 S    
C27   C87   1.418993 A    
C2    O14   1.284744 A    
C35   C39   1.423156 A    
C13   Br1   1.918637 S    
C113  H57   1.116634 S    
C105  H37   1.115932 S    
C103  H32   1.111189 S    
C11   O23   1.288171 A    
O10   Cu3   1.961726 S    
C111  H51   1.109130 S    
C24   C66   1.416002 A    
C102  H28   1.109096 S    
Cu1   O13   1.987298 S    
C12   O24   1.287786 A    
C94   H8    1.109192 S    
C61   C73   1.421426 A    
C111  C112  1.518007 S    
C20   C50   1.387525 A    
C91   H1    1.115238 S    
C32   C38   1.407321 A    
C112  H54   1.109492 S    
C26   C37   1.420974 A    
C24   Br12  1.921039 S    
C92   H3    1.109901 S    
C33   C54   1.415944 A    
O8    Cu5   1.971764 S    
C4    C72   1.506486 S    
C78   C81   1.423782 A    
O2    C12   1.307945 A    
C6    O18   1.286605 A    
C23   C53   1.398229 A    
C22   Br10  1.929838 S    
O3    C9    1.304950 A    
C112  H53   1.110157 S    
C111  H52   1.117685 S    
C63   C75   1.430721 A    
C98   H18   1.110589 S    
O26   C93   1.412247 S    
C29   C35   1.413518 A    
C106  H40   1.110266 S    
C109  C110  1.521723 S    
O9    C3    1.302314 A    
C104  H33   1.107087 S    
C36   C40   1.430436 A    
C25   C85   1.429606 A    
C30   C39   1.417099 A    
C10   C78   1.498753 S    
O7    C5    1.308167 A    
C92   H5    1.109166 S    
C25   C31   1.414089 A    
C14   Br2   1.900869 S    
O8    C6    1.295160 A    
C114  H58   1.110886 S    
C30   C90   1.427203 A    
C26   C32   1.413416 A    
Cu5   O20   1.985179 S    
C34   C42   1.430132 A    
C27   C42   1.415494 A    
O32   C105  1.416109 S    
C56   C68   1.425503 A    
C62   C85   1.406591 A    
C101  H27   1.113705 S    
Cu3   O22   1.982291 S    
C105  H36   1.113513 S    
C55   C67   1.437876 A    
C62   C74   1.427609 A    
Cu4   O21   1.982290 S    
C18   Br6   1.919205 S    
C57   C69   1.416569 A    
C49   O31   1.395636 S    
O1    Cu1   1.959946 S    
O12   Cu1   1.979565 S    
C99   C100  1.520764 S    
C106  H38   1.110853 S    
O4    C10   1.295557 A    
C12   C74   1.493309 S    
C110  H49   1.110259 S    
C93   H6    1.115264 S    
Cu6   O19   1.985179 S    
C107  H42   1.116020 S    
C100  H25   1.110653 S    
Cu5   O17   1.976475 S    
C96   H13   1.109342 S    
O27   C95   1.414067 S    
Cu6   O18   1.976473 S    
C113  H56   1.112193 S    
Cu3   O15   1.970715 S    
C52   O34   1.386223 S    
C93   H7    1.113916 S    
C75   C84   1.420162 A    
C7    O19   1.293669 A    
C95   H11   1.112528 S    
C36   C51   1.415105 A    
C100  H24   1.110636 S    
