data_mof_unit_22738.cif
_audit_creation_date              2012-12-10T18:00:46-0500
_audit_creation_method            fapswitch 2.2
_symmetry_space_group_name_H-M    P1
_symmetry_Int_Tables_number       1
_space_group_crystal_system       triclinic
_cell_length_a                    15.855662
_cell_length_b                    10.795281
_cell_length_c                    9.527177
_cell_angle_alpha                 90.128123
_cell_angle_beta                  89.873621
_cell_angle_gamma                 90.433548
_cell_volume                      1630.67722244

loop_
_atom_site_label
_atom_site_type_symbol
_atom_type_description
_atom_site_fract_x
_atom_site_fract_y
_atom_site_fract_z
_atom_type_partial_charge
C1    C     C_R   0.501959 0.262306 0.499614 0.840530
C2    C     C_R   0.498023 0.737704 0.500386 0.842455
C3    C     C_R   0.545828 0.933692 0.400020 -0.234036
C4    C     C_R   0.454143 0.066352 0.599959 -0.231777
C5    C     C_R   0.497447 0.871506 0.501000 -0.136469
C6    C     C_R   0.502524 0.128524 0.498990 -0.137048
C7    C     C_R   0.447671 0.422764 0.074768 -0.187797
C8    C     C_R   0.552289 0.577492 0.924990 -0.200769
C9    C     C_R   0.446183 0.423674 0.925089 0.589963
C10   C     C_R   0.554396 0.576210 0.075423 0.627872
C11   C     C_R   0.339796 0.499678 0.500110 0.825489
C12   C     C_R   0.660198 0.500319 0.499895 0.829134
C13   C     C_3   0.971195 0.391413 0.541616 0.546943
C14   C     C_3   0.028759 0.608355 0.457904 0.547592
C15   C     C_3   0.027274 0.410265 0.410794 -0.303466
C16   C     C_3   0.972681 0.589503 0.588723 -0.302510
C17   C     C_1   0.250100 0.499014 0.500364 -0.163231
C18   C     C_1   0.749879 0.500910 0.499633 -0.160000
C19   C     C_3   0.027456 0.477029 0.631946 -0.302349
C20   C     C_3   0.972483 0.522742 0.367568 -0.301236
C21   C     C_3   0.082879 0.498010 0.500343 0.068396
C22   C     C_3   0.917075 0.501755 0.499196 0.068960
C23   C     C_1   0.174542 0.498436 0.500400 0.006827
C24   C     C_1   0.825427 0.501398 0.499393 0.008699
C25   C     C_R   0.549127 0.061943 0.398523 0.269638
C26   C     C_R   0.450842 0.938111 0.601466 0.268373
Cu1   Cu    Cu3+1 0.500000 0.500020 0.640660 1.020277
Cu2   Cu    Cu3+1 0.500000 0.499980 0.359340 1.024643
H1    H     H_    0.050837 0.336566 0.339699 0.151043
H2    H     H_    0.949116 0.663198 0.659821 0.150787
H3    H     H_    0.948651 0.542807 0.260581 0.151547
H4    H     H_    0.051209 0.456933 0.738965 0.149753
H5    H     H_    0.582693 0.882309 0.323999 0.202427
H6    H     H_    0.417296 0.117745 0.675972 0.208005
H7    H     H_    0.407323 0.359685 0.132413 0.165478
H8    H     H_    0.591422 0.640144 0.865127 0.160116
N1    N     N_R   0.500020 0.500030 0.852070 -0.212392
N2    N     N_R   0.499980 0.499970 0.147930 -0.212492
O1    O     O_R   0.500000 0.319660 0.618740 -0.542093
O2    O     O_R   0.500000 0.680340 0.381260 -0.545439
O3    O     O_R   0.499990 0.319630 0.381170 -0.555708
O4    O     O_R   0.500010 0.680370 0.618830 -0.555625
O5    O     O_R   0.379080 0.500000 0.618760 -0.545564
O6    O     O_R   0.620920 0.500000 0.381240 -0.529755
O7    O     O_R   0.379080 0.499970 0.381190 -0.587475
O8    O     O_R   0.620920 0.500030 0.618810 -0.588519
O9    O     O_3   0.934175 0.278697 0.585447 -0.564092
C27   C     C_3   0.998089 0.192967 0.616559 0.068262
H9    H     H_    0.038994 0.227495 0.703275 0.137688
H10   H     H_    0.037516 0.173918 0.522301 0.136125
C28   C     C_3   0.957580 0.071691 0.663200 -0.764716
H11   H     H_    0.915616 0.035286 0.579281 0.249680
H12   H     H_    0.007222 0.002366 0.685107 0.203675
H13   H     H_    0.919852 0.086689 0.760032 0.254341
O10   O     O_3   0.065841 0.721038 0.414109 -0.563895
C29   C     C_3   0.001987 0.806847 0.382974 0.067675
H14   H     H_    0.962519 0.825879 0.477189 0.136080
H15   H     H_    0.961118 0.772394 0.296175 0.137570
C30   C     C_3   0.042586 0.928113 0.336489 -0.764523
H16   H     H_    0.080358 0.913143 0.239697 0.254589
H17   H     H_    0.992996 0.997515 0.314574 0.203369
H18   H     H_    0.084528 0.964414 0.420497 0.249939
Br1   Br    Br    0.622424 0.139450 0.263048 -0.507489
Br2   Br    Br    0.377550 0.860731 0.737008 -0.513644
O11   O     O_3   0.396354 0.340458 0.850715 -0.557650
C31   C     C_3   0.310265 0.347398 0.890232 0.031356
H19   H     H_    0.272879 0.368594 0.794949 0.176445
H20   H     H_    0.295227 0.421345 0.968217 0.124396
C32   C     C_3   0.280581 0.222294 0.945870 -0.793925
H21   H     H_    0.316509 0.197224 0.041384 0.250839
H22   H     H_    0.212465 0.226465 0.972685 0.203499
H23   H     H_    0.290032 0.149607 0.864757 0.272515
O12   O     O_3   0.605983 0.655222 0.153656 -0.565280
C33   C     C_3   0.687176 0.676006 0.095109 0.019083
H24   H     H_    0.721570 0.738743 0.168086 0.180052
H25   H     H_    0.684738 0.727208 0.994489 0.137958
C34   C     C_3   0.739253 0.557466 0.082378 -0.816340
H26   H     H_    0.712187 0.494072 0.002187 0.245167
H27   H     H_    0.804681 0.581628 0.050198 0.207447
H28   H     H_    0.741633 0.508995 0.184776 0.274603

loop_
_geom_bond_atom_site_label_1
_geom_bond_atom_site_label_2
_ccdc_geom_bond_type
C31   H20   S    
O10   C29   S    
O12   C33   S    
C34   H26   S    
C17   C23   T    
C33   H25   S    
C18   C24   T    
C14   C21   S    
C19   C21   S    
Cu1   N1    S    
C8    H8    S    
C10   O12   S    
C6    C25   A    
Cu2   O2    S    
C16   H2    S    
Cu2   O3    S    
C29   H14   S    
C25   Br1   S    
C32   H22   S    
C26   Br2   S    
C27   C28   S    
Cu1   O1    S    
C33   C34   S    
C11   O5    A    
C27   H10   S    
C14   O10   S    
C30   H16   S    
C19   H4    S    
C15   H1    S    
C34   H27   S    
C15   C20   S    
C4    H6    S    
Cu2   O7    S    
C30   H17   S    
C33   H24   S    
C13   C19   S    
C28   H11   S    
C14   C20   S    
C3    C25   A    
C12   O8    A    
C13   O9    S    
Cu2   O6    S    
C1    C6    S    
C28   H12   S    
C32   H23   S    
Cu1   O5    S    
O9    C27   S    
Cu2   N2    S    
C9    N1    A    
Cu1   O8    S    
C4    C6    A    
C27   H9    S    
C20   C22   S    
C13   C15   S    
C22   C24   S    
C11   O7    A    
C2    C5    S    
C8    N1    A    
C34   H28   S    
C1    O3    A    
C7    C9    A    
C11   C17   S    
C30   H18   S    
C16   C22   S    
C7    H7    S    
C3    C5    A    
C4    C26   A    
C29   C30   S    
C10   N2    A    
C28   H13   S    
C21   C23   S    
C12   O6    A    
Cu1   O4    S    
C2    O4    A    
C16   C19   S    
C7    N2    A    
C29   H15   S    
C13   C22   S    
C31   H19   S    
C14   C16   S    
C32   H21   S    
C9    O11   S    
C1    O1    A    
C5    C26   A    
C31   C32   S    
C2    O2    A    
C15   C21   S    
C8    C10   A    
O11   C31   S    
C12   C18   S    
Cu1   Cu2   S    
C3    H5    S    
C20   H3    S    
