data_mof_unit_29133.cif
_audit_creation_date              2012-12-10T17:19:58-0500
_audit_creation_method            fapswitch 2.2
_symmetry_space_group_name_H-M    P1
_symmetry_Int_Tables_number       1
_space_group_crystal_system       triclinic
_cell_length_a                    9.617106
_cell_length_b                    10.778092
_cell_length_c                    15.370364
_cell_angle_alpha                 87.432918
_cell_angle_beta                  73.625239
_cell_angle_gamma                 90.154381
_cell_volume                      1526.84844514

loop_
_atom_site_label
_atom_site_type_symbol
_atom_type_description
_atom_site_fract_x
_atom_site_fract_y
_atom_site_fract_z
_atom_type_partial_charge
C1    C     C_R   0.999647 0.263024 0.500126 0.780859
C2    C     C_R   0.686773 0.582105 0.912435 0.020379
C3    C     C_R   0.784265 0.540341 0.961511 0.157105
C4    C     C_R   0.544768 0.617530 0.963558 0.038398
C5    C     C_R   0.491546 0.574542 0.055160 0.069268
C6    C     C_R   0.593011 0.541900 0.102476 -0.225904
C7    C     C_R   0.738438 0.528611 0.056325 -0.206818
C8    C     C_R   0.457522 0.699875 0.929277 -0.287755
C9    C     C_R   0.312077 0.718059 0.975724 -0.018284
C10   C     C_R   0.249884 0.649621 0.058380 0.092923
C11   C     C_R   0.339710 0.574412 0.098113 -0.015438
C12   C     C_R   0.917164 0.507907 0.672317 0.800046
C13   C     C_R   0.100177 0.652842 0.101710 -0.140787
C14   C     C_R   0.042949 0.595910 0.187189 -0.250652
C15   C     C_R   0.273727 0.498873 0.177608 -0.067773
C16   C     C_R   0.984785 0.119000 0.663910 -0.156338
C17   C     C_R   0.974795 0.049141 0.744061 -0.125532
C18   C     C_R   0.972361 0.920152 0.744417 -0.090751
C19   C     C_R   0.980525 0.860621 0.664538 -0.084128
C20   C     C_R   0.991034 0.929596 0.582285 0.101734
C21   C     C_R   0.993053 0.060216 0.581982 0.080957
C22   C     C_R   0.998573 0.128931 0.500707 -0.169726
C23   C     C_R   0.000295 0.736984 0.500037 0.750038
C24   C     C_R   0.000835 0.069992 0.420109 -0.029366
C25   C     C_R   0.014614 0.940088 0.418153 -0.053350
C26   C     C_R   0.001119 0.871018 0.500391 -0.165252
C27   C     C_R   0.698337 0.665745 0.380159 -0.138431
C28   C     C_R   0.653744 0.746973 0.321074 -0.194982
C29   C     C_R   0.510436 0.747700 0.321113 -0.183374
C30   C     C_R   0.411076 0.667194 0.380206 -0.127454
C31   C     C_R   0.451961 0.582458 0.441522 0.215464
C32   C     C_R   0.601288 0.582235 0.441579 0.201796
C33   C     C_R   0.547466 0.419193 0.554508 0.074096
C34   C     C_R   0.082760 0.501470 0.327393 0.801730
C35   C     C_R   0.399997 0.420484 0.554515 -0.076476
C36   C     C_R   0.871009 0.529714 0.771220 -0.088826
C37   C     C_R   0.130780 0.525231 0.228258 -0.041842
C38   C     C_R   0.925522 0.507262 0.915815 -0.191243
C39   C     C_R   0.968081 0.501576 0.821985 -0.206154
C40   C     C_R   0.731419 0.576527 0.815677 -0.066198
Cu1   Cu    Cu3+1 0.140660 0.499990 0.500010 0.968962
Cu2   Cu    Cu3+1 0.859340 0.500010 0.499990 0.993575
H1    H     H_    0.813258 0.501017 0.094535 0.154306
H2    H     H_    0.026394 0.702820 0.071882 0.176679
H3    H     H_    0.984597 0.219086 0.667142 0.129799
H4    H     H_    0.968316 0.095305 0.806172 0.145036
H5    H     H_    0.964209 0.865926 0.806741 0.159308
H6    H     H_    0.978967 0.760427 0.667923 0.137230
H7    H     H_    0.810364 0.671043 0.374152 0.182549
H8    H     H_    0.731414 0.809388 0.274657 0.184690
H9    H     H_    0.475746 0.810817 0.274771 0.185157
H10   H     H_    0.304242 0.675364 0.374172 0.190462
H11   H     H_    0.323111 0.355212 0.598640 0.141315
H12   H     H_    0.930480 0.611086 0.222371 0.154395
H13   H     H_    0.001459 0.479533 0.953219 0.147529
H14   H     H_    0.076059 0.469436 0.789383 0.169728
H15   H     H_    0.560782 0.527913 0.175649 0.159538
H16   H     H_    0.504518 0.758313 0.869143 0.196596
N1    N     N_R   0.648320 0.501210 0.499140 -0.232056
N2    N     N_R   0.352470 0.501290 0.499110 -0.199191
O1    O     O_R   0.118810 0.319640 0.500010 -0.550608
O2    O     O_R   0.881240 0.319660 0.500000 -0.565816
O3    O     O_R   0.055570 0.499980 0.629840 -0.596352
O4    O     O_R   0.818000 0.500010 0.629830 -0.524115
O5    O     O_R   0.118760 0.680340 0.500000 -0.601215
O6    O     O_R   0.881190 0.680360 0.499990 -0.564203
O7    O     O_R   0.182000 0.499990 0.370170 -0.558854
O8    O     O_R   0.944430 0.500020 0.370160 -0.621917
C41   C     C_2   0.981874 0.144861 0.340285 0.535678
H17   H     H_    0.019064 0.240609 0.327947 0.071052
O9    O     O_2   0.917249 0.102177 0.290174 -0.509288
C42   C     C_2   0.054967 0.875933 0.330423 0.431510
H18   H     H_    0.027983 0.778889 0.328292 0.005384
O10   O     O_2   0.127025 0.928834 0.260212 -0.484355
C43   C     C_2   0.588907 0.322439 0.612467 0.880200
O11   O     O_2   0.586817 0.343694 0.690205 -0.627992
O12   O     O_R   0.618636 0.203193 0.580579 -0.736420
H19   H     H_    0.643553 0.143740 0.626777 0.340148
C44   C     C_2   0.341069 0.379055 0.196266 0.358440
H20   H     H_    0.434041 0.344236 0.146059 0.102172
O13   O     O_2   0.290129 0.313868 0.264950 -0.537774
C45   C     C_2   0.229943 0.809870 0.935491 0.823880
O14   O     O_2   0.248034 0.816299 0.853367 -0.592628
O15   O     O_R   0.136646 0.892320 0.990611 -0.736990
H21   H     H_    0.088179 0.950608 0.954897 0.332166
C46   C     C_2   0.629102 0.608299 0.762048 0.416452
H22   H     H_    0.523973 0.561945 0.778336 0.110064
O16   O     O_2   0.659210 0.690587 0.702182 -0.526181

loop_
_geom_bond_atom_site_label_1
_geom_bond_atom_site_label_2
_ccdc_geom_bond_type
C16   C21   A    
C35   H11   S    
C34   C37   S    
Cu1   Cu2   S    
C19   C20   A    
Cu1   O1    S    
C4    C8    A    
C18   H5    S    
Cu1   O7    S    
O12   H19   S    
C5    C6    A    
C23   O6    A    
C28   C29   A    
C5    C11   A    
C3    C7    A    
C38   C39   A    
C12   O4    A    
C46   O16   D    
C18   C19   A    
C23   C26   S    
C40   C46   S    
C41   O9    D    
C15   C37   A    
C8    H16   S    
C11   C15   A    
O15   H21   S    
C33   C43   S    
C15   C44   S    
C38   H13   S    
C31   C32   A    
C3    C38   A    
C8    C9    A    
C7    H1    S    
C12   C36   S    
C9    C10   A    
Cu2   O2    S    
C9    C45   S    
C1    C22   S    
C33   N1    A    
C13   C14   A    
C1    O2    A    
Cu2   O8    S    
C6    H15   S    
C28   H8    S    
C24   C41   S    
C36   C40   A    
C17   H4    S    
C42   O10   D    
C34   O8    A    
C44   O13   D    
C12   O3    A    
C46   H22   S    
C16   C17   A    
Cu1   O5    S    
C25   C26   A    
C35   N2    A    
C31   N2    A    
Cu2   N1    S    
C2    C4    A    
C43   O11   D    
C29   C30   A    
C39   H14   S    
C17   C18   A    
C25   C42   S    
C24   C25   A    
C43   O12   S    
C14   H12   S    
C45   O15   S    
C22   C24   A    
Cu1   O3    S    
Cu2   O4    S    
C29   H9    S    
C30   H10   S    
C27   C32   A    
C19   H6    S    
C36   C39   A    
Cu1   N2    S    
C42   H18   S    
C10   C13   A    
C1    O1    A    
C34   O7    A    
C6    C7    A    
C23   O5    A    
C2    C3    A    
C14   C37   A    
C30   C31   A    
C20   C26   A    
C33   C35   A    
C41   H17   S    
C10   C11   A    
C16   H3    S    
C44   H20   S    
C2    C40   A    
C4    C5    A    
C20   C21   A    
C45   O14   D    
C27   C28   A    
Cu2   O6    S    
C32   N1    A    
C21   C22   A    
C13   H2    S    
C27   H7    S    
