data_mof_unit_5075.cif
_audit_creation_date              2012-12-10T20:11:28-0500
_audit_creation_method            fapswitch 2.2
_symmetry_space_group_name_H-M    P1
_symmetry_Int_Tables_number       1
_space_group_crystal_system       triclinic
_cell_length_a                    15.907463
_cell_length_b                    15.907366
_cell_length_c                    51.688636
_cell_angle_alpha                 90.000191
_cell_angle_beta                  90.000171
_cell_angle_gamma                 89.999851
_cell_volume                      13079.5941119

loop_
_atom_site_label
_atom_site_type_symbol
_atom_type_description
_atom_site_fract_x
_atom_site_fract_y
_atom_site_fract_z
_atom_type_partial_charge
C1    C     C_R   0.070682 0.530245 0.636886 -0.013836
C2    C     C_R   0.575254 0.983942 0.863358 -0.011390
C3    C     C_1   0.276599 0.223401 0.250000 -0.155069
C4    C     C_1   0.223398 0.723402 0.749999 -0.155470
C5    C     C_1   0.776599 0.276599 0.250000 -0.155068
C6    C     C_1   0.276598 0.223398 0.749999 -0.155470
C7    C     C_1   0.723401 0.776598 0.250000 -0.155067
C8    C     C_1   0.776600 0.723400 0.250000 -0.155393
C9    C     C_1   0.223400 0.276597 0.749999 -0.155151
C10   C     C_1   0.723400 0.223401 0.250000 -0.155393
C11   C     C_1   0.276597 0.776600 0.749999 -0.155152
C12   C     C_1   0.223400 0.276600 0.250000 -0.155394
C13   C     C_R   0.983942 0.575253 0.136642 -0.011407
C14   C     C_1   0.776600 0.723403 0.749999 -0.155153
C15   C     C_1   0.276600 0.776599 0.250000 -0.155393
C16   C     C_1   0.723403 0.223400 0.749999 -0.155151
C17   C     C_R   0.500980 0.074878 0.945119 0.540096
C18   C     C_R   0.500982 0.925122 0.054881 0.540096
C19   C     C_R   0.925122 0.500988 0.945118 0.540099
C20   C     C_R   0.074878 0.500976 0.054881 0.540095
C21   C     C_R   0.499019 0.925122 0.945118 0.540098
C22   C     C_R   0.499014 0.074878 0.054881 0.540095
C23   C     C_R   0.074878 0.499012 0.945119 0.540101
C24   C     C_R   0.016063 0.575253 0.863358 -0.011391
C25   C     C_R   0.925122 0.499020 0.054881 0.540096
C26   C     C_R   0.993378 0.574576 0.445331 0.539731
C27   C     C_R   0.014088 0.426457 0.555081 0.540245
C28   C     C_R   0.425421 0.993404 0.445330 0.539730
C29   C     C_R   0.573545 0.014057 0.555081 0.540242
C30   C     C_R   0.006625 0.425425 0.445331 0.539731
C31   C     C_R   0.985913 0.573544 0.555082 0.540248
C32   C     C_R   0.574576 0.006598 0.445331 0.539731
C33   C     C_R   0.426448 0.985942 0.555081 0.540242
C34   C     C_R   0.499675 0.922863 0.972503 -0.029472
C35   C     C_R   0.424746 0.983940 0.136642 -0.011403
C36   C     C_R   0.499670 0.077138 0.027497 -0.029472
C37   C     C_R   0.077137 0.499667 0.972503 -0.029472
C38   C     C_R   0.922863 0.499677 0.027496 -0.029472
C39   C     C_R   0.500324 0.077138 0.972503 -0.029471
C40   C     C_R   0.500327 0.922863 0.027497 -0.029471
C41   C     C_R   0.922863 0.500332 0.972503 -0.029472
C42   C     C_R   0.077137 0.500320 0.027497 -0.029473
C43   C     C_R   0.009612 0.423503 0.472707 -0.029796
C44   C     C_R   0.987394 0.576091 0.527698 -0.029516
C45   C     C_R   0.576498 0.009574 0.472707 -0.029795
C46   C     C_R   0.424747 0.016058 0.863358 -0.011390
C47   C     C_R   0.423902 0.987429 0.527697 -0.029515
C48   C     C_R   0.990392 0.576498 0.472707 -0.029796
C49   C     C_R   0.012609 0.423910 0.527698 -0.029515
C50   C     C_R   0.423497 0.990426 0.472706 -0.029795
C51   C     C_R   0.576091 0.012570 0.527698 -0.029516
C52   C     C_R   0.144690 0.560255 0.594933 0.110462
C53   C     C_R   0.198582 0.502649 0.582752 -0.161375
C54   C     C_R   0.267070 0.531402 0.568285 -0.140201
C55   C     C_R   0.282094 0.617640 0.565899 -0.114064
C56   C     C_R   0.228696 0.675295 0.577994 -0.139441
C57   C     C_R   0.016059 0.424746 0.136642 -0.011406
C58   C     C_R   0.160079 0.646798 0.592453 -0.109772
C59   C     C_R   0.154223 0.472246 0.405474 0.115408
C60   C     C_R   0.190722 0.538048 0.419679 -0.172324
C61   C     C_R   0.262373 0.523373 0.434674 -0.145145
C62   C     C_R   0.298430 0.443307 0.435400 -0.109745
C63   C     C_R   0.262517 0.377571 0.421261 -0.134435
C64   C     C_R   0.190459 0.391804 0.406421 -0.098206
C65   C     C_R   0.439757 0.144696 0.594933 0.110480
C66   C     C_R   0.497366 0.198569 0.582746 -0.161396
C67   C     C_R   0.468618 0.267059 0.568278 -0.140199
C68   C     C_R   0.983936 0.424748 0.863358 -0.011392
C69   C     C_R   0.382383 0.282104 0.565897 -0.114076
C70   C     C_R   0.324725 0.228724 0.577999 -0.139442
C71   C     C_R   0.353216 0.160105 0.592459 -0.109730
C72   C     C_R   0.527765 0.154220 0.405474 0.115393
C73   C     C_R   0.461962 0.190731 0.419676 -0.172312
C74   C     C_R   0.476642 0.262381 0.434670 -0.145150
C75   C     C_R   0.556713 0.298425 0.435400 -0.109737
C76   C     C_R   0.622449 0.262500 0.421265 -0.134434
C77   C     C_R   0.608212 0.190443 0.406424 -0.098241
C78   C     C_R   0.855310 0.439747 0.594932 0.110459
C79   C     C_R   0.499999 0.000000 0.986261 -0.101280
C80   C     C_R   0.801418 0.497353 0.582752 -0.161372
C81   C     C_R   0.732930 0.468600 0.568284 -0.140200
C82   C     C_R   0.717906 0.382362 0.565898 -0.114066
C83   C     C_R   0.771305 0.324707 0.577992 -0.139441
C84   C     C_R   0.839922 0.353204 0.592452 -0.109771
C85   C     C_R   0.845779 0.527755 0.405474 0.115407
C86   C     C_R   0.809280 0.461952 0.419679 -0.172322
C87   C     C_R   0.737629 0.476627 0.434673 -0.145144
C88   C     C_R   0.701572 0.556693 0.435399 -0.109745
C89   C     C_R   0.737485 0.622429 0.421262 -0.134436
C90   C     C_R   0.499999 0.000000 0.013739 -0.101281
C91   C     C_R   0.809543 0.608197 0.406421 -0.098207
C92   C     C_R   0.560233 0.855301 0.594932 0.110478
C93   C     C_R   0.502622 0.801429 0.582745 -0.161395
C94   C     C_R   0.531367 0.732939 0.568277 -0.140198
C95   C     C_R   0.617603 0.717892 0.565896 -0.114074
C96   C     C_R   0.675262 0.771270 0.577998 -0.139445
C97   C     C_R   0.646774 0.839889 0.592458 -0.109731
C98   C     C_R   0.472235 0.845781 0.405473 0.115393
C99   C     C_R   0.538038 0.809270 0.419675 -0.172310
C100  C     C_R   0.523359 0.737619 0.434669 -0.145149
C101  C     C_R   0.000000 0.499999 0.986261 -0.101281
C102  C     C_R   0.443288 0.701575 0.435399 -0.109736
C103  C     C_R   0.377551 0.737500 0.421264 -0.134435
C104  C     C_R   0.391788 0.809558 0.406424 -0.098243
C105  C     C_R   0.653197 0.031595 0.094569 0.109560
C106  C     C_R   0.692997 0.965337 0.081464 -0.166257
C107  C     C_R   0.763858 0.980937 0.066230 -0.141373
C108  C     C_R   0.795887 0.062440 0.064183 -0.109925
C109  C     C_R   0.756855 0.128648 0.077306 -0.136061
C110  C     C_R   0.685505 0.113426 0.092394 -0.105977
C111  C     C_R   0.653200 0.968408 0.905431 0.109563
C112  C     C_R   0.075801 0.486884 0.363438 -0.012213
C113  C     C_R   1.000000 0.499999 0.013739 -0.101282
C114  C     C_R   0.692996 0.034665 0.918537 -0.166262
C115  C     C_R   0.763858 0.019066 0.933771 -0.141376
C116  C     C_R   0.795890 0.937563 0.935817 -0.109934
C117  C     C_R   0.756860 0.871356 0.922694 -0.136069
C118  C     C_R   0.685510 0.886578 0.907605 -0.105976
C119  C     C_R   0.968407 0.653199 0.094569 0.109566
C120  C     C_R   0.034664 0.692995 0.081463 -0.166262
C121  C     C_R   0.019065 0.763857 0.066229 -0.141372
C122  C     C_R   0.937563 0.795890 0.064184 -0.109926
C123  C     C_R   0.871356 0.756860 0.077307 -0.136060
C124  C     C_R   0.000002 0.500000 0.486465 -0.102780
C125  C     C_R   0.886578 0.685510 0.092395 -0.105970
C126  C     C_R   0.031598 0.653198 0.905431 0.109557
C127  C     C_R   0.965340 0.693001 0.918535 -0.166257
C128  C     C_R   0.980941 0.763861 0.933770 -0.141377
C129  C     C_R   0.062445 0.795886 0.935818 -0.109933
C130  C     C_R   0.128653 0.756851 0.922697 -0.136071
C131  C     C_R   0.113430 0.685502 0.907608 -0.105984
C132  C     C_R   0.346799 0.968405 0.094569 0.109562
C133  C     C_R   0.307000 0.034662 0.081464 -0.166257
C134  C     C_R   0.236138 0.019062 0.066230 -0.141374
C135  C     C_R   0.000002 0.500000 0.513942 -0.102250
C136  C     C_R   0.204108 0.937559 0.064184 -0.109924
C137  C     C_R   0.243141 0.871352 0.077306 -0.136060
C138  C     C_R   0.314491 0.886574 0.092394 -0.105977
C139  C     C_R   0.346800 0.031592 0.905431 0.109563
C140  C     C_R   0.307003 0.965334 0.918536 -0.166262
C141  C     C_R   0.236141 0.980932 0.933770 -0.141375
C142  C     C_R   0.204109 0.062435 0.935816 -0.109934
C143  C     C_R   0.243140 0.128643 0.922694 -0.136070
C144  C     C_R   0.314490 0.113422 0.907605 -0.105978
C145  C     C_R   0.031591 0.346799 0.094569 0.109566
C146  C     C_R   0.499997 0.000000 0.486465 -0.102772
C147  C     C_R   0.965334 0.307003 0.081463 -0.166261
C148  C     C_R   0.980932 0.236140 0.066229 -0.141371
C149  C     C_R   0.062433 0.204106 0.064184 -0.109927
C150  C     C_R   0.128641 0.243135 0.077307 -0.136060
C151  C     C_R   0.113421 0.314486 0.092395 -0.105970
C152  C     C_R   0.968401 0.346802 0.905430 0.109557
C153  C     C_R   0.034659 0.306999 0.918534 -0.166257
C154  C     C_R   0.019058 0.236138 0.933769 -0.141377
C155  C     C_R   0.937553 0.204114 0.935817 -0.109931
C156  C     C_R   0.871346 0.243151 0.922696 -0.136071
C157  C     C_R   0.499997 1.000000 0.513941 -0.102253
C158  C     C_R   0.886569 0.314499 0.907607 -0.105984
C159  C     C_R   0.499850 0.845989 0.986347 0.069146
C160  C     C_R   0.499841 0.154011 0.013653 0.069146
C161  C     C_R   0.154011 0.499833 0.986347 0.069147
C162  C     C_R   0.845989 0.499857 0.013652 0.069148
C163  C     C_R   0.500148 0.154011 0.986347 0.069145
C164  C     C_R   0.469762 0.070685 0.636886 -0.013841
C165  C     C_R   0.500157 0.845989 0.013652 0.069146
C166  C     C_R   0.845989 0.500165 0.986347 0.069147
C167  C     C_R   0.154011 0.500140 0.013653 0.069147
C168  C     C_R   0.021727 0.347572 0.486541 0.070366
C169  C     C_R   0.976433 0.652178 0.513849 0.069418
C170  C     C_R   0.652433 0.021644 0.486541 0.070353
C171  C     C_R   0.347812 0.976511 0.513848 0.069415
C172  C     C_R   0.978279 0.652429 0.486541 0.070366
C173  C     C_R   0.023572 0.347823 0.513849 0.069417
C174  C     C_R   0.347562 0.978356 0.486540 0.070352
C175  C     C_R   0.513121 0.075800 0.363437 -0.012213
C176  C     C_R   0.652182 0.023489 0.513849 0.069416
C177  C     C_R   0.070561 0.529942 0.609545 -0.020485
C178  C     C_R   0.075423 0.486415 0.390796 -0.020257
C179  C     C_R   0.470063 0.070564 0.609545 -0.020480
C180  C     C_R   0.513590 0.075421 0.390796 -0.020262
C181  C     C_R   0.929439 0.470059 0.609545 -0.020484
C182  C     C_R   0.924579 0.513586 0.390796 -0.020257
C183  C     C_R   0.529929 0.929433 0.609545 -0.020479
C184  C     C_R   0.486409 0.924580 0.390795 -0.020262
C185  C     C_R   0.574908 0.015934 0.109305 -0.020917
C186  C     C_R   0.929318 0.469756 0.636886 -0.013838
C187  C     C_R   0.574910 0.984068 0.890695 -0.020913
C188  C     C_R   0.984068 0.574909 0.109305 -0.020916
C189  C     C_R   0.015936 0.574909 0.890694 -0.020914
C190  C     C_R   0.425090 0.984066 0.109305 -0.020916
C191  C     C_R   0.425091 0.015932 0.890694 -0.020913
C192  C     C_R   0.015932 0.425089 0.109305 -0.020915
C193  C     C_R   0.984064 0.425092 0.890694 -0.020914
C194  C     C_R   0.000000 0.500000 0.595938 0.203661
C195  C     C_R   0.000001 0.500000 0.404412 0.201599
C196  C     C_R   0.499996 0.999999 0.595938 0.203645
C197  C     C_R   0.924200 0.513116 0.363438 -0.012213
C198  C     C_R   0.499999 0.000001 0.404411 0.201616
C199  C     C_R   0.499999 0.000000 0.095727 0.204986
C200  C     C_R   0.500000 0.000000 0.904273 0.204983
C201  C     C_R   0.000000 0.499999 0.095727 0.204983
C202  C     C_R   0.000000 0.500000 0.904273 0.204985
C203  C     C_R   1.000000 0.500000 0.820345 0.840750
C204  C     C_R   0.000000 0.500000 0.179655 0.840671
C205  C     C_R   0.500000 1.000000 0.820345 0.840745
C206  C     C_R   0.500000 0.000000 0.179655 0.840668
C207  C     C_R   0.500000 0.000000 0.320367 0.839562
C208  C     C_R   0.530233 0.929313 0.636886 -0.013841
C209  C     C_R   0.500000 1.000000 0.679712 0.845511
C210  C     C_R   0.000000 0.500000 0.320368 0.839554
C211  C     C_R   1.000000 0.500000 0.679712 0.845511
C212  C     C_R   0.839710 0.660290 0.750000 0.850353
C213  C     C_R   0.160290 0.339711 0.250000 0.850914
C214  C     C_R   0.339709 0.839710 0.750000 0.850351
C215  C     C_R   0.660289 0.160290 0.250000 0.850914
C216  C     C_R   0.160290 0.339709 0.750000 0.850350
C217  C     C_R   0.839710 0.660289 0.250000 0.850911
C218  C     C_R   0.660291 0.160290 0.750000 0.850352
C219  C     C_R   0.486878 0.924201 0.363437 -0.012213
C220  C     C_R   0.339711 0.839710 0.250000 0.850912
C221  C     C_R   0.839710 0.339710 0.250000 0.850695
C222  C     C_R   0.160288 0.660291 0.749999 0.851174
C223  C     C_R   0.339710 0.160290 0.250000 0.850696
C224  C     C_R   0.660291 0.839712 0.749999 0.851174
C225  C     C_R   0.160290 0.660290 0.250000 0.850696
C226  C     C_R   0.839712 0.339709 0.749999 0.851173
C227  C     C_R   0.660290 0.839710 0.250000 0.850693
C228  C     C_R   0.339709 0.160288 0.749999 0.851171
C229  C     C_R   1.000000 0.500000 0.650772 -0.047734
C230  C     C_R   0.575252 0.016061 0.136642 -0.011403
C231  C     C_R   0.000001 0.500000 0.349450 -0.052117
C232  C     C_R   0.499998 0.999999 0.650772 -0.047734
C233  C     C_R   0.500000 0.000000 0.349450 -0.052116
C234  C     C_R   0.499999 0.000000 0.150615 -0.052295
C235  C     C_R   0.500000 0.000000 0.849385 -0.052317
C236  C     C_R   0.000000 0.499999 0.150615 -0.052295
C237  C     C_R   1.000000 0.500000 0.849385 -0.052316
C238  C     C_1   0.776602 0.276598 0.749999 -0.155470
C239  C     C_1   0.223401 0.723401 0.250000 -0.155068
C240  C     C_1   0.723402 0.776602 0.749999 -0.155471
H1    H     H_    0.553878 0.733357 0.977699 0.176891
H2    H     H_    0.553388 0.267096 0.977782 0.175219
H3    H     H_    0.149339 0.074189 0.947682 0.113812
H4    H     H_    0.218630 0.191866 0.924391 0.131058
H5    H     H_    0.345212 0.165393 0.897919 0.150044
H6    H     H_    0.901936 0.331382 0.082830 0.162159
H7    H     H_    0.929967 0.206467 0.055842 0.122063
H8    H     H_    0.074187 0.149335 0.052317 0.113812
H9    H     H_    0.191863 0.218624 0.075610 0.131056
H10   H     H_    0.165391 0.345207 0.102082 0.150039
H11   H     H_    0.098059 0.331370 0.917165 0.162161
H12   H     H_    0.070023 0.206459 0.944154 0.122064
H13   H     H_    0.446136 0.733354 0.022300 0.176892
H14   H     H_    0.925798 0.149345 0.947684 0.113812
H15   H     H_    0.808121 0.218647 0.924395 0.131060
H16   H     H_    0.834599 0.345226 0.897922 0.150049
H17   H     H_    0.195576 0.527778 0.644908 0.202774
H18   H     H_    0.151158 0.624891 0.645920 0.182816
H19   H     H_    0.196790 0.520041 0.356054 0.197737
H20   H     H_    0.176977 0.415169 0.353948 0.184763
H21   H     H_    0.472246 0.195580 0.644907 0.202772
H22   H     H_    0.375129 0.151174 0.645922 0.182810
H23   H     H_    0.479972 0.196791 0.356053 0.197739
H24   H     H_    0.553403 0.732907 0.022218 0.175218
H25   H     H_    0.584843 0.176972 0.353949 0.184766
H26   H     H_    0.804424 0.472223 0.644908 0.202774
H27   H     H_    0.848842 0.375110 0.645919 0.182817
H28   H     H_    0.803211 0.479959 0.356054 0.197738
H29   H     H_    0.823025 0.584831 0.353948 0.184763
H30   H     H_    0.527748 0.804418 0.644907 0.202772
H31   H     H_    0.624866 0.848824 0.645921 0.182810
H32   H     H_    0.520027 0.803210 0.356052 0.197740
H33   H     H_    0.415156 0.823029 0.353949 0.184767
H34   H     H_    0.697344 0.988320 0.144309 0.198999
H35   H     H_    0.733351 0.446151 0.977699 0.176891
H36   H     H_    0.673356 0.092383 0.145653 0.185084
H37   H     H_    0.697345 0.011687 0.855692 0.198980
H38   H     H_    0.673361 0.907624 0.854347 0.185076
H39   H     H_    0.011685 0.697344 0.144308 0.198999
H40   H     H_    0.907622 0.673359 0.145654 0.185083
H41   H     H_    0.988329 0.697346 0.855691 0.198981
H42   H     H_    0.092390 0.673353 0.854348 0.185077
H43   H     H_    0.302654 0.011680 0.144309 0.198999
H44   H     H_    0.326643 0.907617 0.145653 0.185083
H45   H     H_    0.302656 0.988315 0.855691 0.198981
H46   H     H_    0.732910 0.553418 0.977782 0.175218
H47   H     H_    0.326641 0.092379 0.854347 0.185077
H48   H     H_    0.988315 0.302654 0.144309 0.198999
H49   H     H_    0.092378 0.326640 0.145654 0.185083
H50   H     H_    0.011670 0.302654 0.855691 0.198982
H51   H     H_    0.907609 0.326648 0.854347 0.185077
H52   H     H_    0.266640 0.446106 0.022301 0.176889
H53   H     H_    0.267099 0.553373 0.022218 0.175220
H54   H     H_    0.092260 0.244724 0.477625 0.176598
H55   H     H_    0.986407 0.227535 0.478189 0.177003
H56   H     H_    0.012497 0.771587 0.522735 0.175987
H57   H     H_    0.446611 0.732904 0.977782 0.175220
H58   H     H_    0.906402 0.755908 0.522173 0.174030
H59   H     H_    0.755327 0.092110 0.477627 0.176614
H60   H     H_    0.772445 0.986242 0.478191 0.176993
H61   H     H_    0.228428 0.012650 0.522733 0.175981
H62   H     H_    0.244041 0.906543 0.522172 0.174043
H63   H     H_    0.907750 0.755280 0.477626 0.176598
H64   H     H_    0.013604 0.772465 0.478190 0.177002
H65   H     H_    0.987512 0.228413 0.522734 0.175987
H66   H     H_    0.093606 0.244095 0.522173 0.174029
H67   H     H_    0.244668 0.907891 0.477625 0.176614
H68   H     H_    0.553861 0.266647 0.022301 0.176892
H69   H     H_    0.227551 0.013759 0.478189 0.176993
H70   H     H_    0.771566 0.987350 0.522735 0.175983
H71   H     H_    0.755953 0.093457 0.522174 0.174043
H72   H     H_    0.187401 0.435705 0.584414 0.158951
H73   H     H_    0.308399 0.486881 0.558871 0.122707
H74   H     H_    0.334960 0.639786 0.554628 0.117489
H75   H     H_    0.240295 0.742057 0.576075 0.148555
H76   H     H_    0.118566 0.692005 0.601523 0.152606
H77   H     H_    0.163261 0.600325 0.419314 0.159483
H78   H     H_    0.289636 0.573910 0.445872 0.122986
H79   H     H_    0.446594 0.267093 0.022218 0.175218
H80   H     H_    0.353909 0.432206 0.447022 0.114540
H81   H     H_    0.289992 0.315394 0.421952 0.130284
H82   H     H_    0.162225 0.339998 0.395965 0.146807
H83   H     H_    0.564308 0.187372 0.584403 0.158946
H84   H     H_    0.513141 0.308372 0.558859 0.122705
H85   H     H_    0.360240 0.334972 0.554627 0.117492
H86   H     H_    0.257964 0.240340 0.576084 0.148563
H87   H     H_    0.308007 0.118606 0.601533 0.152589
H88   H     H_    0.399682 0.163280 0.419308 0.159495
H89   H     H_    0.426105 0.289654 0.445867 0.122985
H90   H     H_    0.266649 0.553848 0.977699 0.176891
H91   H     H_    0.567818 0.353904 0.447022 0.114540
H92   H     H_    0.684630 0.289966 0.421958 0.130288
H93   H     H_    0.660017 0.162199 0.395971 0.146817
H94   H     H_    0.812598 0.564297 0.584414 0.158950
H95   H     H_    0.691601 0.513121 0.558871 0.122707
H96   H     H_    0.665040 0.360217 0.554627 0.117491
H97   H     H_    0.759706 0.257945 0.576073 0.148555
H98   H     H_    0.881435 0.307997 0.601521 0.152608
H99   H     H_    0.836741 0.399676 0.419314 0.159483
H100  H     H_    0.710366 0.426090 0.445872 0.122986
H101  H     H_    0.267090 0.446580 0.977782 0.175217
H102  H     H_    0.646093 0.567794 0.447021 0.114540
H103  H     H_    0.710010 0.684606 0.421952 0.130284
H104  H     H_    0.837778 0.660003 0.395966 0.146808
H105  H     H_    0.435680 0.812628 0.584402 0.158946
H106  H     H_    0.486844 0.691627 0.558858 0.122703
H107  H     H_    0.639743 0.665024 0.554625 0.117491
H108  H     H_    0.742023 0.759652 0.576083 0.148560
H109  H     H_    0.691984 0.881387 0.601532 0.152589
H110  H     H_    0.600318 0.836721 0.419308 0.159495
H111  H     H_    0.573896 0.710347 0.445866 0.122985
H112  H     H_    0.733360 0.553890 0.022301 0.176890
H113  H     H_    0.432184 0.646096 0.447021 0.114541
H114  H     H_    0.315371 0.710034 0.421957 0.130288
H115  H     H_    0.339982 0.837801 0.395970 0.146818
H116  H     H_    0.668621 0.901938 0.082832 0.162160
H117  H     H_    0.793534 0.929971 0.055843 0.122064
H118  H     H_    0.850657 0.074194 0.052317 0.113812
H119  H     H_    0.781362 0.191872 0.075608 0.131058
H120  H     H_    0.654782 0.165397 0.102080 0.150042
H121  H     H_    0.668619 0.098064 0.917170 0.162160
H122  H     H_    0.793531 0.070031 0.944159 0.122064
H123  H     H_    0.732901 0.446623 0.022217 0.175219
H124  H     H_    0.850660 0.925809 0.947684 0.113812
H125  H     H_    0.781369 0.808133 0.924391 0.131059
H126  H     H_    0.654789 0.834608 0.897919 0.150042
H127  H     H_    0.098062 0.668616 0.082830 0.162158
H128  H     H_    0.070029 0.793530 0.055841 0.122063
H129  H     H_    0.925808 0.850660 0.052317 0.113812
H130  H     H_    0.808133 0.781371 0.075610 0.131056
H131  H     H_    0.834608 0.654789 0.102082 0.150039
H132  H     H_    0.901940 0.668628 0.917166 0.162162
H133  H     H_    0.929976 0.793539 0.944156 0.122065
H134  H     H_    0.446121 0.266644 0.977699 0.176890
H135  H     H_    0.074200 0.850655 0.947685 0.113812
H136  H     H_    0.191877 0.781355 0.924396 0.131059
H137  H     H_    0.165400 0.654777 0.897922 0.150048
H138  H     H_    0.331376 0.098062 0.082832 0.162160
H139  H     H_    0.206463 0.070027 0.055843 0.122064
H140  H     H_    0.149338 0.925805 0.052317 0.113812
H141  H     H_    0.218633 0.808129 0.075609 0.131058
H142  H     H_    0.345214 0.834604 0.102080 0.150040
H143  H     H_    0.331381 0.901935 0.917168 0.162159
H144  H     H_    0.206467 0.929967 0.944157 0.122065
N1    N     N_R   0.500000 0.000000 0.932245 -0.344828
N2    N     N_3   0.500043 0.232686 0.027316 -0.382811
N3    N     N_3   0.232685 0.500032 0.972685 -0.382810
N4    N     N_3   0.767315 0.500068 0.027315 -0.382810
N5    N     N_3   0.499941 0.232686 0.972685 -0.382809
N6    N     N_3   0.499954 0.767314 0.027315 -0.382811
N7    N     N_3   0.767315 0.499967 0.972684 -0.382811
N8    N     N_3   0.232685 0.499928 0.027316 -0.382809
N9    N     N_3   0.033573 0.269840 0.472855 -0.382171
N10   N     N_3   0.964170 0.729889 0.527512 -0.386943
N11   N     N_3   0.730173 0.033439 0.472856 -0.382172
N12   N     N_R   0.499998 0.000000 0.067755 -0.344828
N13   N     N_3   0.270094 0.964296 0.527511 -0.386938
N14   N     N_3   0.966436 0.730162 0.472855 -0.382170
N15   N     N_3   0.035837 0.270112 0.527512 -0.386943
N16   N     N_3   0.269823 0.966562 0.472855 -0.382171
N17   N     N_3   0.729899 0.035703 0.527512 -0.386939
N18   N     N_3   0.142469 0.561658 0.650684 -0.417002
N19   N     N_3   0.153511 0.474969 0.349774 -0.410421
N20   N     N_3   0.438362 0.142479 0.650684 -0.416997
N21   N     N_3   0.525042 0.153509 0.349774 -0.410421
N22   N     N_3   0.857530 0.438343 0.650684 -0.417003
N23   N     N_R   0.000000 0.500000 0.932245 -0.344826
N24   N     N_3   0.846490 0.525030 0.349775 -0.410422
N25   N     N_3   0.561634 0.857520 0.650684 -0.416997
N26   N     N_3   0.474957 0.846491 0.349774 -0.410421
N27   N     N_3   0.652260 0.032038 0.150283 -0.410751
N28   N     N_3   0.652262 0.967968 0.849717 -0.410769
N29   N     N_3   0.967967 0.652261 0.150283 -0.410752
N30   N     N_3   0.032045 0.652260 0.849717 -0.410771
N31   N     N_3   0.347739 0.967963 0.150283 -0.410752
N32   N     N_3   0.347739 0.032033 0.849717 -0.410769
N33   N     N_3   0.032033 0.347738 0.150283 -0.410752
N34   N     N_R   0.000000 0.499998 0.067755 -0.344828
N35   N     N_3   0.967955 0.347741 0.849716 -0.410771
N36   N     N_R   0.000002 0.500000 0.432418 -0.346448
N37   N     N_R   0.000000 0.500000 0.567966 -0.344347
N38   N     N_R   0.499999 0.000001 0.432417 -0.346442
N39   N     N_R   0.499996 0.999999 0.567966 -0.344353
N40   N     N_3   0.500058 0.767314 0.972684 -0.382809
O1    O     O_3   0.000000 0.500000 0.750000 -0.488591
O2    O     O_R   0.000000 0.430630 0.192350 -0.621195
O3    O     O_R   0.430630 0.000000 0.807650 -0.621165
O4    O     O_R   0.569370 0.000000 0.192350 -0.621194
O5    O     O_R   0.500000 0.930630 0.307650 -0.620870
O6    O     O_R   0.500000 0.069370 0.692350 -0.622990
O7    O     O_R   0.069370 0.500000 0.307650 -0.620869
O8    O     O_R   0.930630 0.500000 0.692350 -0.622992
O9    O     O_R   0.500000 0.069370 0.307650 -0.620871
O10   O     O_R   0.500000 0.930630 0.692350 -0.622991
O11   O     O_R   0.930630 0.500000 0.307650 -0.620868
O12   O     O_3   0.000000 0.500000 0.250000 -0.488485
O13   O     O_R   0.069370 0.500000 0.692350 -0.622992
O14   O     O_R   0.902350 0.666510 0.764820 -0.636650
O15   O     O_R   0.097650 0.333490 0.235180 -0.635460
O16   O     O_R   0.333490 0.902350 0.764820 -0.636648
O17   O     O_R   0.666510 0.097650 0.235180 -0.635459
O18   O     O_R   0.097650 0.333490 0.764820 -0.636650
O19   O     O_R   0.902350 0.666510 0.235180 -0.635460
O20   O     O_R   0.666510 0.097650 0.764820 -0.636648
O21   O     O_R   0.333490 0.902350 0.235180 -0.635459
O22   O     O_R   0.902350 0.333490 0.235180 -0.636586
O23   O     O_3   0.500000 0.000000 0.750000 -0.488592
O24   O     O_R   0.097650 0.666510 0.764820 -0.635776
O25   O     O_R   0.333490 0.097650 0.235180 -0.636585
O26   O     O_R   0.666510 0.902350 0.764820 -0.635774
O27   O     O_R   0.097650 0.666510 0.235180 -0.636586
O28   O     O_R   0.902350 0.333490 0.764820 -0.635775
O29   O     O_R   0.666510 0.902350 0.235180 -0.636585
O30   O     O_R   0.333490 0.097650 0.764820 -0.635774
O31   O     O_R   0.402350 0.166510 0.264820 -0.636447
O32   O     O_R   0.597650 0.833490 0.735180 -0.634770
O33   O     O_R   0.833490 0.402350 0.264820 -0.636444
O34   O     O_3   0.500000 0.000000 0.250000 -0.488485
O35   O     O_R   0.166510 0.597650 0.735180 -0.634768
O36   O     O_R   0.597650 0.833490 0.264820 -0.636447
O37   O     O_R   0.402350 0.166510 0.735180 -0.634770
O38   O     O_R   0.166510 0.597650 0.264820 -0.636445
O39   O     O_R   0.833490 0.402350 0.735180 -0.634768
O40   O     O_R   0.402350 0.833490 0.735180 -0.637081
O41   O     O_R   0.597650 0.166510 0.264820 -0.635867
O42   O     O_R   0.833490 0.597650 0.735180 -0.637081
O43   O     O_R   0.166510 0.402350 0.264820 -0.635866
O44   O     O_R   0.597650 0.166510 0.735180 -0.637081
O45   O     O_R   0.000000 0.430630 0.807650 -0.621165
O46   O     O_R   0.402350 0.833490 0.264820 -0.635866
O47   O     O_R   0.166510 0.402350 0.735180 -0.637080
O48   O     O_R   0.833490 0.597650 0.264820 -0.635866
O49   O     O_2   0.503013 0.146615 0.931218 -0.556936
O50   O     O_2   0.503018 0.853386 0.068782 -0.556938
O51   O     O_2   0.853387 0.503027 0.931218 -0.556940
O52   O     O_2   0.146614 0.503007 0.068782 -0.556936
O53   O     O_2   0.496987 0.853386 0.931218 -0.556936
O54   O     O_2   0.496979 0.146615 0.068782 -0.556939
O55   O     O_2   0.146614 0.496973 0.931218 -0.556939
O56   O     O_R   0.000000 0.569370 0.192350 -0.621193
O57   O     O_2   0.853386 0.496990 0.068781 -0.556938
O58   O     O_2   0.990251 0.646403 0.431496 -0.554314
O59   O     O_2   0.029780 0.356381 0.568959 -0.563026
O60   O     O_2   0.353595 0.990294 0.431495 -0.554319
O61   O     O_2   0.643625 0.029726 0.568958 -0.563014
O62   O     O_2   0.009752 0.353598 0.431496 -0.554313
O63   O     O_2   0.970221 0.643620 0.568959 -0.563025
O64   O     O_2   0.646402 0.009708 0.431496 -0.554319
O65   O     O_2   0.356367 0.970272 0.568957 -0.563015
O66   O     O_R   0.569370 0.000000 0.807650 -0.621165
O67   O     O_R   0.430630 0.000000 0.192350 -0.621195
O68   O     O_R   0.000000 0.569370 0.807650 -0.621166
Zn1   Zn    Zn3+2 0.900880 0.500000 0.727850 0.983903
Zn2   Zn    Zn3+2 0.599120 1.000000 0.772150 0.983694
Zn3   Zn    Zn3+2 0.000000 0.400880 0.227850 0.983938
Zn4   Zn    Zn3+2 0.000000 0.599120 0.772150 0.983694
Zn5   Zn    Zn3+2 0.599120 0.000000 0.227850 0.983938
Zn6   Zn    Zn3+2 0.400880 1.000000 0.772150 0.983693
Zn7   Zn    Zn3+2 0.000000 0.599120 0.227850 0.983938
Zn8   Zn    Zn3+2 0.000000 0.400880 0.772150 0.983694
Zn9   Zn    Zn3+2 0.099120 0.500000 0.272150 0.983687
Zn10  Zn    Zn3+2 0.500000 0.900880 0.727850 0.983903
Zn11  Zn    Zn3+2 0.500000 0.099120 0.272150 0.983687
Zn12  Zn    Zn3+2 0.099120 0.500000 0.727850 0.983903
Zn13  Zn    Zn3+2 0.900880 0.500000 0.272150 0.983687
Zn14  Zn    Zn3+2 0.500000 0.099120 0.727850 0.983903
Zn15  Zn    Zn3+2 0.500000 0.900880 0.272150 0.983686
Zn16  Zn    Zn3+2 0.400880 0.000000 0.227850 0.983938

loop_
_geom_bond_atom_site_label_1
_geom_bond_atom_site_label_2
_ccdc_geom_bond_type
O34   Zn16  S    
C105  C110  A    
H55   N9    S    
C220  O46   A    
C85   C182  S    
C132  C190  S    
H58   N10   S    
C101  C113  A    
C32   C45   A    
C55   C56   A    
C20   N34   A    
C45   C170  A    
C49   C173  A    
C114  C115  A    
C213  O15   A    
C146  C157  A    
C170  C176  A    
C211  O8    A    
O5    Zn15  S    
C214  O16   A    
C153  H11   S    
H63   N14   S    
O29   Zn5   S    
C126  C127  A    
O28   Zn8   S    
C111  C118  A    
C112  C178  A    
C23   O55   S    
O11   Zn13  S    
C10   C215  S    
C106  C107  A    
H35   N7    S    
C143  C144  A    
C15   C239  T    
C108  C109  A    
C17   C39   A    
C68   N35   S    
C214  O40   A    
C18   C40   A    
C119  C188  S    
C79   C90   A    
H23   N21   S    
C131  H137  S    
C80   H94   S    
C210  C231  S    
C68   C193  A    
C151  H10   S    
C112  N19   S    
H112  N4    S    
C176  N17   S    
C116  H124  S    
O23   Zn2   S    
C226  O28   A    
O47   Zn12  S    
H61   N13   S    
C61   H78   S    
C26   O58   S    
H33   N26   S    
H52   N8    S    
C216  O18   A    
C143  H4    S    
C190  C199  A    
C84   H98   S    
C202  N23   S    
C171  N13   S    
C160  C163  A    
C205  C235  S    
C140  C141  A    
C57   C192  A    
C74   C75   A    
H38   N28   S    
C194  N37   S    
C43   C168  A    
O34   Zn5   S    
C51   C157  A    
C127  H132  S    
O68   Zn4   S    
C228  O30   A    
C54   H73   S    
C69   H85   S    
C75   C76   A    
H22   N20   S    
C20   C42   A    
C21   N1    A    
C209  O6    A    
C118  H126  S    
C183  C196  A    
H64   N14   S    
C15   C220  S    
C35   C234  A    
H66   N15   S    
C148  C149  A    
C181  C194  A    
C22   O54   S    
C154  C155  A    
C164  C179  A    
C52   C58   A    
C208  C232  A    
C13   C236  A    
O19   Zn7   S    
H2    N5    S    
C35   C190  A    
C184  C198  A    
H30   N25   S    
C225  C239  S    
C24   N30   S    
C30   C43   A    
C22   N12   A    
C210  O7    A    
C172  N14   S    
C105  C106  A    
C173  N15   S    
C130  H136  S    
C124  C135  A    
C133  H138  S    
C72   C73   A    
C47   C171  A    
C139  C140  A    
H67   N16   S    
C22   C36   A    
C207  O5    A    
C187  C200  A    
C164  C232  A    
C156  C158  A    
C130  C131  A    
C204  C236  S    
H26   N22   S    
O18   Zn8   S    
H20   N19   S    
C1    N18   S    
C154  H12   S    
H37   N28   S    
C209  O10   A    
C230  C234  A    
H44   N31   S    
C51   C176  A    
C158  H16   S    
C59   C178  S    
C123  C125  A    
O39   Zn1   S    
C11   C214  S    
C17   N1    A    
C88   C89   A    
C98   C99   A    
C155  C156  A    
O23   Zn10  S    
C149  C150  A    
H34   N27   S    
C206  O67   A    
C210  O11   A    
C95   H107  S    
C147  C148  A    
C46   C191  A    
C128  C129  A    
C161  N3    S    
C6    C9    T    
O13   Zn12  S    
O14   Zn4   S    
C7    C8    T    
C223  O25   A    
C85   C86   A    
C185  C230  A    
C109  H119  S    
C112  C231  A    
C7    C227  S    
O66   Zn2   S    
C34   C79   A    
C78   C80   A    
H71   N17   S    
C19   O51   S    
C115  C116  A    
C17   O49   S    
C86   H99   S    
C219  N26   S    
C52   C177  S    
C8    C217  S    
O15   Zn3   S    
O10   Zn10  S    
C102  H113  S    
C48   C172  A    
O35   Zn12  S    
C175  C233  A    
H56   N10   S    
C2    N28   S    
C107  C108  A    
C16   C218  S    
C201  N34   S    
C77   H93   S    
C89   C91   A    
O41   Zn11  S    
O31   Zn11  S    
C34   C159  A    
C29   N39   A    
C198  N38   S    
C66   C67   A    
C49   C135  A    
C16   C238  T    
H21   N20   S    
C144  H5    S    
C225  O27   A    
H17   N18   S    
C69   C70   A    
C182  C197  A    
C1    C229  A    
C92   C97   A    
H62   N13   S    
C35   N31   S    
C226  O39   A    
C180  C198  A    
C191  C200  A    
H50   N35   S    
C55   H74   S    
O32   Zn10  S    
O6    Zn14  S    
C170  N11   S    
C148  H7    S    
C159  C165  A    
C59   C60   A    
C25   C38   A    
O12   Zn13  S    
C83   C84   A    
C41   C166  A    
C28   O60   S    
C185  C199  A    
C218  O44   A    
C224  C240  S    
C40   C165  A    
C161  C167  A    
H134  N5    S    
H54   N9    S    
C134  H139  S    
H70   N17   S    
O4    Zn5   S    
C114  H121  S    
O3    Zn6   S    
C222  O24   A    
C72   C180  S    
C120  H127  S    
C58   H76   S    
C196  N39   S    
O46   Zn15  S    
C52   C53   A    
C207  C233  S    
C223  O31   A    
C129  C130  A    
C29   C51   A    
C36   C90   A    
C54   C55   A    
C3    C223  S    
C222  O35   A    
C230  N27   S    
C123  H130  S    
C137  H141  S    
O22   Zn3   S    
C136  C137  A    
C181  C186  A    
C175  C180  A    
C189  C202  A    
C149  H8    S    
C28   N38   A    
C206  C234  S    
H68   N2    S    
H1    N40   S    
C160  N2    S    
C208  N25   S    
C145  C192  S    
C221  O22   A    
C204  O56   A    
C37   C101  A    
C20   O52   S    
C50   C146  A    
C110  H120  S    
C44   C135  A    
C128  H133  S    
C56   C58   A    
C98   C184  S    
C61   C62   A    
C106  H116  S    
C203  C237  S    
O20   Zn2   S    
C29   O61   S    
C63   C64   A    
O7    Zn9   S    
C152  C153  A    
C104  H115  S    
O16   Zn6   S    
C150  C151  A    
C182  C195  A    
O1    Zn8   S    
C195  N36   S    
C164  N20   S    
C24   C237  A    
C175  N21   S    
C87   C88   A    
C76   H92   S    
C71   H87   S    
C225  O38   A    
C121  H128  S    
C221  O33   A    
C73   C74   A    
H28   N24   S    
C5    C221  S    
C99   H110  S    
C70   H86   S    
O30   Zn6   S    
H25   N21   S    
C27   N37   A    
O67   Zn16  S    
C125  H131  S    
C107  H117  S    
C139  C191  S    
C68   C237  A    
C47   C157  A    
C155  H14   S    
O24   Zn4   S    
C132  C138  A    
O23   Zn14  S    
H79   N2    S    
C23   N23   A    
C44   C169  A    
C174  N16   S    
C162  C166  A    
C147  H6    S    
C207  O9    A    
O1    Zn4   S    
C6    C228  S    
C192  C201  A    
C70   C71   A    
C25   N34   A    
C156  H15   S    
C26   C48   A    
C205  O3    A    
C227  O29   A    
C206  O4    A    
O34   Zn15  S    
C140  H143  S    
H90   N3    S    
C204  O2    A    
C27   O59   S    
C83   H97   S    
C88   H102  S    
C12   C213  S    
C217  O48   A    
C25   O57   S    
C145  C147  A    
H45   N32   S    
C179  C196  A    
C197  C231  A    
C171  C174  A    
C152  C158  A    
C177  C194  A    
C162  N4    S    
O38   Zn9   S    
C220  O21   A    
C129  H135  S    
C224  O32   A    
C38   C113  A    
C86   C87   A    
C21   C34   A    
C65   C179  S    
O12   Zn3   S    
C53   C54   A    
C141  H144  S    
H51   N35   S    
C193  C202  A    
C91   H104  S    
C60   C61   A    
C209  C232  S    
C39   C79   A    
H49   N33   S    
C63   H81   S    
C62   C63   A    
O34   Zn11  S    
C74   H89   S    
C32   N38   A    
C217  O19   A    
H27   N22   S    
C30   N36   A    
C89   H103  S    
C212  O14   A    
C117  H125  S    
O26   Zn2   S    
C4    C11   T    
C121  C122  A    
C21   O53   S    
C119  C125  A    
H60   N11   S    
O33   Zn13  S    
C133  C134  A    
H18   N18   S    
C39   C163  A    
C127  C128  A    
C57   C236  A    
C37   C161  A    
C137  C138  A    
O27   Zn7   S    
C165  N6    S    
C136  H140  S    
C62   H80   S    
C211  C229  S    
C115  H122  S    
C186  N22   S    
H123  N4    S    
C31   O63   S    
C19   N23   A    
C119  C120  A    
C216  O47   A    
C227  O36   A    
C30   O62   S    
C111  C187  S    
C14   C212  S    
C46   C235  A    
O43   Zn9   S    
C82   H96   S    
C200  N1    S    
C215  O17   A    
C108  H118  S    
C109  C110  A    
H101  N3    S    
C4    C222  S    
H39   N29   S    
C92   C93   A    
C41   C101  A    
H42   N30   S    
C111  C114  A    
O1    Zn12  S    
C94   C95   A    
O40   Zn10  S    
H31   N25   S    
H69   N16   S    
C82   C83   A    
C103  C104  A    
C142  C143  A    
C40   C90   A    
C117  C118  A    
C19   C41   A    
C64   H82   S    
C14   C240  T    
O2    Zn3   S    
H19   N19   S    
C93   C94   A    
C226  C238  S    
H36   N27   S    
C95   C96   A    
C46   N32   S    
C224  O26   A    
C81   C82   A    
C85   C91   A    
C159  N40   S    
C186  C229  A    
C33   N39   A    
C18   N12   A    
C215  O41   A    
C59   C64   A    
C199  N12   S    
C152  C193  S    
O21   Zn16  S    
C213  O43   A    
C97   H109  S    
C167  N8    S    
C98   C104  A    
O25   Zn16  S    
O12   Zn9   S    
H43   N31   S    
C142  H3    S    
C18   O50   S    
H57   N40   S    
C188  C201  A    
C33   O65   S    
C116  C117  A    
C53   H72   S    
C105  C185  S    
C3    C12   T    
C2    C187  A    
O36   Zn15  S    
C28   C50   A    
C203  O45   A    
C184  C219  A    
C132  C133  A    
C24   C189  A    
O37   Zn14  S    
C87   H100  S    
H47   N32   S    
C56   H75   S    
C203  O68   A    
C13   C188  A    
C138  H142  S    
C166  N7    S    
H48   N33   S    
C183  C208  A    
C169  N10   S    
C102  C103  A    
C1    C177  A    
C26   N36   A    
C9    C216  S    
C168  C173  A    
C31   C44   A    
H24   N6    S    
C45   C146  A    
O42   Zn1   S    
C57   N33   S    
C76   C77   A    
C93   H105  S    
H40   N29   S    
O48   Zn13  S    
C134  C136  A    
C65   C71   A    
C197  N24   S    
C67   C69   A    
C126  C189  S    
C228  O37   A    
C32   O64   S    
C72   C77   A    
C78   C84   A    
C139  C144  A    
C2    C235  A    
C42   C113  A    
C99   C100  A    
C38   C162  A    
C81   H95   S    
C96   C97   A    
C100  C102  A    
H53   N8    S    
H59   N11   S    
C145  C151  A    
C218  O20   A    
C205  O66   A    
H46   N7    S    
H32   N26   S    
C169  C172  A    
H41   N30   S    
C150  H9    S    
O12   Zn7   S    
C75   H91   S    
C100  H111  S    
C96   H108  S    
O23   Zn6   S    
O45   Zn8   S    
C31   N37   A    
H29   N24   S    
C80   C81   A    
C92   C183  S    
H13   N6    S    
C48   C124  A    
O56   Zn7   S    
C122  H129  S    
C178  C195  A    
C50   C174  A    
C78   C181  S    
C163  N5    S    
C66   H83   S    
C122  C123  A    
C5    C10   T    
C141  C142  A    
C168  N9    S    
C103  H114  S    
O9    Zn11  S    
C126  C131  A    
C33   C47   A    
H65   N15   S    
C13   N29   S    
C23   C37   A    
O8    Zn1   S    
O17   Zn5   S    
C212  O42   A    
C36   C160  A    
C67   H84   S    
C73   H88   S    
C27   C49   A    
C42   C167  A    
C94   H106  S    
C211  O13   A    
C65   C66   A    
C219  C233  A    
C120  C121  A    
O1    Zn1   S    
C153  C154  A    
O44   Zn14  S    
C43   C124  A    
C60   H77   S    
