data_mof_unit_53055.cif
_audit_creation_date              2012-12-10T18:11:54-0500
_audit_creation_method            fapswitch 2.2
_symmetry_space_group_name_H-M    P1
_symmetry_Int_Tables_number       1
_space_group_crystal_system       triclinic
_cell_length_a                    15.805941
_cell_length_b                    10.870954
_cell_length_c                    9.593725
_cell_angle_alpha                 90.802417
_cell_angle_beta                  88.014081
_cell_angle_gamma                 89.006392
_cell_volume                      1647.03432623

loop_
_atom_site_label
_atom_site_type_symbol
_atom_type_description
_atom_site_fract_x
_atom_site_fract_y
_atom_site_fract_z
_atom_type_partial_charge
C1    C     C_R   0.500662 0.259864 0.499400 0.778600
C2    C     C_3   0.083219 0.498537 0.505196 0.126057
C3    C     C_3   0.968154 0.606072 0.553799 -0.274138
C4    C     C_3   0.916626 0.499238 0.494723 0.150321
C5    C     C_3   0.030703 0.593345 0.425199 -0.243599
C6    C     C_3   0.978171 0.486539 0.368014 0.030635
C7    C     C_1   0.174896 0.498906 0.507171 0.029602
C8    C     C_1   0.824960 0.499801 0.492416 0.048207
C9    C     C_3   0.508866 0.070496 0.654727 -0.042979
C10   C     C_3   0.521023 0.928049 0.652915 0.009915
C11   C     C_3   0.417217 0.072603 0.445681 -0.407086
C12   C     C_R   0.340290 0.500024 0.502035 0.819238
C13   C     C_3   0.578153 0.064573 0.400773 0.352177
C14   C     C_3   0.501973 0.120497 0.499400 0.064698
C15   C     C_3   0.504083 0.876593 0.503181 0.003965
C16   C     C_3   0.415838 0.930117 0.456576 -0.185412
C17   C     C_3   0.576529 0.920816 0.405223 -0.324184
C18   C     C_3   0.505812 0.626768 0.086235 -0.160449
C19   C     C_3   0.493303 0.630327 0.921939 -0.062238
C20   C     C_3   0.572604 0.421645 0.070540 0.041774
C21   C     C_3   0.423372 0.447700 0.089885 -0.277805
C22   C     C_3   0.581994 0.448369 0.908567 -0.045975
C23   C     C_R   0.501939 0.739091 0.501087 0.740282
C24   C     C_3   0.430509 0.426944 0.925715 -0.113435
C25   C     C_R   0.659671 0.500093 0.497899 0.814508
C26   C     C_3   0.969741 0.405572 0.573794 0.137025
C27   C     C_3   0.031993 0.391367 0.446056 -0.243880
C28   C     C_1   0.250546 0.499448 0.506308 -0.142217
C29   C     C_1   0.749350 0.500013 0.493306 -0.123245
C30   C     C_3   0.021959 0.511223 0.632341 0.066256
Cu1   Cu    Cu3+1 0.500040 0.499860 0.642410 0.920661
Cu2   Cu    Cu3+1 0.499960 0.500140 0.357590 0.904601
H1    H     H_    0.058721 0.303377 0.402203 0.149982
H2    H     H_    0.473048 0.886608 0.724427 0.208127
H3    H     H_    0.362700 0.113257 0.507700 0.162997
H4    H     H_    0.368354 0.907760 0.540436 0.090478
H5    H     H_    0.638255 0.881707 0.436979 0.151512
H6    H     H_    0.568035 0.879334 0.299918 0.191244
H7    H     H_    0.406292 0.105447 0.338857 0.203562
H8    H     H_    0.567626 0.667612 0.110962 0.121044
H9    H     H_    0.457017 0.685136 0.141316 0.229741
H10   H     H_    0.542663 0.689528 0.876431 0.122135
H11   H     H_    0.410394 0.358499 0.141278 0.170139
H12   H     H_    0.368412 0.509256 0.120097 0.160599
H13   H     H_    0.447159 0.328074 0.907724 0.143635
H14   H     H_    0.553166 0.324097 0.074095 0.119490
H15   H     H_    0.593444 0.358319 0.853437 0.148282
H16   H     H_    0.056795 0.670408 0.363367 0.153091
H17   H     H_    0.941233 0.693780 0.598075 0.153491
H18   H     H_    0.563880 0.114424 0.703104 0.178255
N1    N     N_3   0.501840 0.500250 0.143650 -0.143689
N2    N     N_3   0.501160 0.503300 0.856280 -0.233612
O1    O     O_R   0.500050 0.317570 0.620260 -0.591198
O2    O     O_R   0.499980 0.317810 0.379740 -0.586997
O3    O     O_R   0.379110 0.499870 0.620240 -0.572713
O4    O     O_R   0.379040 0.500110 0.379720 -0.595548
O5    O     O_R   0.500020 0.682190 0.620260 -0.622675
O6    O     O_R   0.499950 0.682430 0.379740 -0.594977
O7    O     O_R   0.620960 0.499890 0.620280 -0.554766
O8    O     O_R   0.620890 0.500130 0.379760 -0.583503
C31   C     C_3   0.572994 0.097279 0.244151 -0.830498
H19   H     H_    0.513194 0.070884 0.196904 0.262906
H20   H     H_    0.582427 0.194726 0.228298 0.237710
H21   H     H_    0.624896 0.049731 0.182045 0.218710
C32   C     C_3   0.665001 0.113759 0.446248 -0.878438
H22   H     H_    0.717997 0.065294 0.387995 0.238962
H23   H     H_    0.670092 0.213450 0.424467 0.223227
H24   H     H_    0.675505 0.104574 0.558380 0.211793
C33   C     C_2   0.382675 0.871954 0.325684 0.395871
H25   H     H_    0.338362 0.797021 0.334319 0.063355
O9    O     O_2   0.406500 0.905158 0.210194 -0.525242
C34   C     C_3   0.934373 0.299182 0.657613 -0.848837
H26   H     H_    0.987116 0.246408 0.703221 0.241821
H27   H     H_    0.891175 0.335356 0.742805 0.260542
H28   H     H_    0.898786 0.237568 0.588452 0.238304
C35   C     C_2   0.413053 0.699177 0.885034 0.298392
H29   H     H_    0.380271 0.675735 0.791628 0.120429
O10   O     O_2   0.387974 0.789546 0.952169 -0.530114
C36   C     C_3   0.660778 0.414315 0.134897 -0.701731
H30   H     H_    0.686236 0.507234 0.155059 0.254088
H31   H     H_    0.662028 0.354014 0.226224 0.232164
H32   H     H_    0.706402 0.365315 0.062045 0.225289
C37   C     C_2   0.661356 0.524859 0.878490 0.431978
H33   H     H_    0.665941 0.619356 0.914009 0.036550
O11   O     O_2   0.724868 0.476211 0.824480 -0.566846
C38   C     C_2   0.341520 0.442032 0.874326 0.445995
H34   H     H_    0.305445 0.526610 0.891900 0.088692
O12   O     O_2   0.305395 0.355125 0.822590 -0.542389
C39   C     C_2   0.956083 0.472935 0.218107 0.341823
H35   H     H_    0.006248 0.465194 0.138271 0.082250
O13   O     O_2   0.882302 0.470449 0.184942 -0.553063
C40   C     C_2   0.044108 0.525104 0.782256 0.355756
H36   H     H_    0.993962 0.533245 0.862090 0.081610
O14   O     O_2   0.117903 0.527192 0.815353 -0.536611
C41   C     C_3   0.431407 0.103123 0.753898 -0.822611
H37   H     H_    0.450252 0.097657 0.864191 0.242279
H38   H     H_    0.404558 0.194980 0.736057 0.285929
H39   H     H_    0.378143 0.039345 0.740129 0.244119
C42   C     C_3   0.606906 0.889109 0.714270 -0.921036
H40   H     H_    0.605912 0.912578 0.827416 0.238844
H41   H     H_    0.620164 0.789220 0.702543 0.249426
H42   H     H_    0.661415 0.935286 0.664966 0.238593

loop_
_geom_bond_atom_site_label_1
_geom_bond_atom_site_label_2
_ccdc_geom_bond_type
C24   N2    S    
C23   O6    A    
C3    C30   S    
C26   C34   S    
C41   H37   S    
Cu2   O6    S    
Cu1   N2    S    
C4    C8    S    
C3    H17   S    
C41   H39   S    
C13   C32   S    
C27   H1    S    
C26   C27   S    
C12   C28   S    
C37   H33   S    
C24   H13   S    
C19   C35   S    
C35   O10   D    
C20   N1    S    
C10   C15   S    
C5    C6    S    
C11   C14   S    
C38   O12   D    
C15   C16   S    
C31   H20   S    
C18   C19   S    
Cu1   O7    S    
C33   O9    D    
C1    O1    A    
C18   H8    S    
C2    C7    S    
C21   H11   S    
C19   N2    S    
C42   H40   S    
C32   H23   S    
C2    C27   S    
C25   O8    A    
C39   O13   D    
C9    C10   S    
C9    C41   S    
C19   H10   S    
C15   C23   S    
C22   H15   S    
C13   C14   S    
C31   H19   S    
C34   H28   S    
Cu2   O2    S    
C18   N1    S    
C25   C29   S    
C5    H16   S    
C9    H18   S    
C35   H29   S    
C4    C6    S    
C18   H9    S    
C36   H31   S    
C38   H34   S    
C7    C28   T    
C31   H21   S    
C9    C14   S    
Cu2   N1    S    
C21   H12   S    
C11   C16   S    
C6    C27   S    
C32   H24   S    
C40   O14   D    
C10   H2    S    
C17   H5    S    
Cu1   O1    S    
C11   H7    S    
C12   O4    A    
C1    O2    A    
C34   H27   S    
C37   O11   D    
C20   C22   S    
C26   C30   S    
C2    C5    S    
Cu2   O8    S    
C3    C4    S    
C21   N1    S    
C22   N2    S    
C23   O5    A    
C20   C36   S    
C42   H41   S    
Cu1   Cu2   S    
C16   C33   S    
C34   H26   S    
C3    C5    S    
C36   H32   S    
C4    C26   S    
C41   H38   S    
C15   C17   S    
C8    C29   T    
C6    C39   S    
C13   C17   S    
C2    C30   S    
C22   C37   S    
Cu1   O5    S    
C11   H3    S    
C16   H4    S    
C40   H36   S    
C17   H6    S    
C10   C42   S    
C33   H25   S    
C12   O3    A    
C36   H30   S    
C42   H42   S    
C13   C31   S    
C32   H22   S    
C21   C24   S    
C1    C14   S    
C25   O7    A    
Cu1   O3    S    
C39   H35   S    
C24   C38   S    
Cu2   O4    S    
C20   H14   S    
C30   C40   S    
