data_mof_unit_7531.cif
_audit_creation_date              2013-03-05T16:04:28-0500
_audit_creation_method            fapswitch 2.2
_symmetry_space_group_name_H-M    P1
_symmetry_Int_Tables_number       1
_space_group_crystal_system       triclinic
_cell_length_a                    11.005435
_cell_length_b                    9.626147
_cell_length_c                    15.101984
_cell_angle_alpha                 88.336177
_cell_angle_beta                  94.008432
_cell_angle_gamma                 88.501152
_cell_volume                      1594.67909918

loop_
_atom_site_label
_atom_site_type_symbol
_atom_site_description
_atom_site_fract_x
_atom_site_fract_y
_atom_site_fract_z
_atom_type_partial_charge
O1    O     O_R   0.319640 0.618740 0.499990 -0.621946
O2    O     O_R   0.680360 0.381260 0.500010 -0.621948
O3    O     O_R   0.680360 0.618740 0.500010 -0.604770
O4    O     O_R   0.319640 0.381260 0.499990 -0.604765
C1    C     C_R   0.262512 0.501731 0.501581 0.743064
C2    C     C_R   0.737488 0.498269 0.498418 0.743082
O5    O     O_R   0.499970 0.618800 0.370260 -0.600595
O6    O     O_R   0.500030 0.381200 0.629740 -0.600592
O7    O     O_R   0.500030 0.618800 0.629740 -0.599237
O8    O     O_R   0.499970 0.381200 0.370260 -0.599241
C3    C     C_R   0.498255 0.501461 0.329360 0.787127
C4    C     C_R   0.501744 0.498539 0.670640 0.787122
Cu1   Cu    Cu3+1 0.500000 0.640660 0.500000 0.929962
Cu2   Cu    Cu3+1 0.500000 0.359340 0.500000 0.929961
C5    C     C_R   0.606540 0.453989 0.819199 -0.085966
C6    C     C_R   0.393448 0.546004 0.180802 -0.085967
C7    C     C_R   0.500582 0.496596 0.767215 -0.123021
C8    C     C_R   0.499409 0.503401 0.232785 -0.123024
C9    C     C_R   0.393796 0.539914 0.806130 0.125567
C10   C     C_R   0.606188 0.460072 0.193867 0.125548
C11   C     C_R   0.397451 0.556463 0.899341 0.098648
C12   C     C_R   0.602525 0.443514 0.100658 0.098666
C13   C     C_R   0.499888 0.500258 0.952904 -0.020078
C14   C     C_R   0.500090 0.499722 0.047095 -0.020073
C15   C     C_R   0.603319 0.446965 0.912623 0.055959
C16   C     C_R   0.396661 0.553016 0.087378 0.055956
C17   C     C_R   0.302470 0.625391 0.941595 0.127840
C18   C     C_R   0.697497 0.374571 0.058406 0.127815
C19   C     C_R   0.299400 0.613139 0.033351 -0.145058
C20   C     C_R   0.700572 0.386825 0.966650 -0.145069
H1    H     H_    0.220708 0.657854 0.061439 0.210567
H2    H     H_    0.779258 0.342093 0.938564 0.210587
C21   C     C_R   0.070926 0.384610 0.537092 -0.031919
C22   C     C_R   0.929074 0.615392 0.462909 -0.031920
C23   C     C_R   0.943169 0.378977 0.529934 -0.040109
C24   C     C_R   0.056831 0.621024 0.470066 -0.040106
C25   C     C_R   0.871562 0.495464 0.494788 -0.216131
C26   C     C_R   0.128438 0.504537 0.505211 -0.216130
C27   C     C_R   0.422001 0.078984 0.442041 0.096379
C28   C     C_R   0.577999 0.921016 0.557959 0.096380
C29   C     C_R   0.571534 0.069260 0.561666 0.010411
C30   C     C_R   0.428466 0.930741 0.438334 0.010410
N1    N     N_R   0.500000 0.852070 0.500000 -0.269554
N2    N     N_R   0.500000 0.147930 0.500000 -0.269555
C31   C     C_2   0.719376 0.422300 0.773269 0.358287
H3    H     H_    0.746011 0.493028 0.721229 0.044135
O9    O     O_2   0.778453 0.314193 0.788356 -0.480542
C32   C     C_2   0.280618 0.577708 0.226736 0.358290
H4    H     H_    0.253984 0.506992 0.278782 0.044131
O10   O     O_2   0.221546 0.685818 0.211644 -0.480529
C33   C     C_3   0.274523 0.549498 0.748853 -0.800756
H5    H     H_    0.277759 0.486259 0.689270 0.198679
H6    H     H_    0.199775 0.504739 0.785073 0.237120
H7    H     H_    0.252870 0.657954 0.725178 0.244643
C34   C     C_3   0.725466 0.450488 0.251140 -0.800755
H8    H     H_    0.722248 0.513785 0.310698 0.198678
H9    H     H_    0.747087 0.342042 0.274850 0.244639
H10   H     H_    0.800226 0.495180 0.214903 0.237136
C35   C     C_3   0.212587 0.729455 0.894611 -0.788268
H11   H     H_    0.257827 0.792405 0.844467 0.248502
H12   H     H_    0.131778 0.677244 0.864735 0.238528
H13   H     H_    0.178243 0.805640 0.941519 0.242545
C36   C     C_3   0.787356 0.270482 0.105390 -0.788276
H14   H     H_    0.742119 0.207587 0.155562 0.248506
H15   H     H_    0.821637 0.194251 0.058487 0.242557
H16   H     H_    0.868201 0.322664 0.135234 0.238530
C37   C     C_2   0.144172 0.264843 0.580385 0.513850
H17   H     H_    0.217104 0.282830 0.630300 0.058197
O11   O     O_2   0.126239 0.145609 0.558355 -0.484503
C38   C     C_2   0.855829 0.735163 0.419620 0.513848
H18   H     H_    0.782894 0.717181 0.369707 0.058194
O12   O     O_2   0.873766 0.854396 0.441652 -0.484506
C39   C     C_2   0.886555 0.250339 0.561715 0.470769
H19   H     H_    0.828891 0.191252 0.516323 0.107992
O13   O     O_2   0.906958 0.207691 0.638409 -0.473648
C40   C     C_2   0.113446 0.749662 0.438284 0.470765
H20   H     H_    0.171110 0.808749 0.483675 0.107995
O14   O     O_2   0.093041 0.792309 0.361590 -0.473649
C41   C     C_2   0.320011 0.155239 0.389863 0.490600
H21   H     H_    0.329783 0.255891 0.359343 0.089619
O15   O     O_2   0.219279 0.104890 0.381397 -0.497687
C42   C     C_2   0.679988 0.844761 0.610137 0.490593
H22   H     H_    0.670217 0.744108 0.640656 0.089621
O16   O     O_2   0.780720 0.895111 0.618605 -0.497686
C43   C     C_2   0.632250 0.136999 0.638539 0.539727
H23   H     H_    0.673691 0.235748 0.630735 0.121655
O17   O     O_2   0.633418 0.083700 0.713006 -0.506590
C44   C     C_2   0.367749 0.863001 0.361461 0.539722
H24   H     H_    0.326310 0.764252 0.369265 0.121650
O18   O     O_2   0.366582 0.916301 0.286994 -0.506587

loop_
_geom_bond_atom_site_label_1
_geom_bond_atom_site_label_2
_geom_bond_distance
_ccdc_geom_bond_type
C34   H8    1.103032 S    
C36   H15   1.111573 S    
C3    C8    1.459005 S    
C17   C19   1.390135 A    
C22   C25   1.419051 A    
C39   H19   1.084834 S    
O3    C2    1.306250 A    
C6    C32   1.493035 S    
C31   H3    1.085674 S    
O5    C3    1.302955 A    
O1    C1    1.304647 A    
C23   C25   1.421567 A    
C40   O14   1.221343 D    
C5    C15   1.413503 A    
O7    Cu1   1.964491 S    
C24   C40   1.483103 S    
C7    C9    1.409104 A    
C28   N1    1.379125 A    
C23   C39   1.483101 S    
C4    C7    1.459007 S    
C13   C14   1.422167 A    
C38   H18   1.082915 S    
C22   C38   1.496789 S    
C8    C10   1.409092 A    
O3    Cu1   1.990616 S    
C32   O10   1.219728 D    
C11   C17   1.421850 A    
C36   H16   1.107944 S    
C35   H11   1.109235 S    
C36   H14   1.109223 S    
C12   C18   1.421831 A    
Cu1   Cu2   2.708028 S    
C39   O13   1.221342 D    
O2    C2    1.304648 A    
C10   C34   1.519899 S    
C27   C30   1.429842 A    
C31   O9    1.219726 D    
C11   C13   1.425899 A    
C6    C16   1.413510 A    
C35   H12   1.107948 S    
C43   O17   1.221581 D    
C37   H17   1.082917 S    
C28   C42   1.489719 S    
C40   H20   1.084834 S    
O8    Cu2   1.964491 S    
C41   O15   1.221528 D    
C43   H23   1.071989 S    
C33   H5    1.103036 S    
C37   O11   1.221409 D    
C27   C41   1.489719 S    
O6    C4    1.302951 A    
C2    C25   1.479961 S    
C32   H4    1.085675 S    
C10   C12   1.419129 A    
C42   O16   1.221528 D    
C34   H9    1.108145 S    
C29   N2    1.373291 A    
C12   C14   1.425890 A    
C30   C44   1.475722 S    
C30   N1    1.373292 A    
C5    C31   1.493039 S    
Cu1   N1    2.035064 S    
C21   C37   1.496787 S    
Cu2   N2    2.035065 S    
C15   C20   1.401608 A    
C5    C7    1.404513 A    
C28   C29   1.429843 A    
C35   H13   1.111586 S    
O6    Cu2   1.976642 S    
C9    C11   1.419141 A    
C14   C16   1.418928 A    
C44   O18   1.221582 D    
O4    C1    1.306251 A    
C27   N2    1.379126 A    
C29   C43   1.475723 S    
C21   C26   1.419049 A    
C33   H7    1.108149 S    
C18   C20   1.390130 A    
C19   H1    1.075959 S    
C17   C35   1.514668 S    
C20   H2    1.075956 S    
C24   C26   1.421565 A    
C21   C23   1.405201 A    
C22   C24   1.405201 A    
C13   C15   1.418936 A    
O4    Cu2   1.990617 S    
O2    Cu2   2.001594 S    
O7    C4    1.295275 A    
O8    C3    1.295272 A    
C41   H21   1.072010 S    
C18   C36   1.514659 S    
C9    C33   1.519900 S    
O5    Cu1   1.976642 S    
O1    Cu1   2.001595 S    
C44   H24   1.071987 S    
C16   C19   1.401605 A    
C6    C8    1.404515 A    
C42   H22   1.072009 S    
C34   H10   1.108738 S    
C38   O12   1.221410 D    
C33   H6    1.108752 S    
C1    C26   1.479961 S    
