data_mof_unit_58465.cif
_audit_creation_date              2012-12-11T15:53:39-0500
_audit_creation_method            fapswitch 2.2
_symmetry_space_group_name_H-M    P1
_symmetry_Int_Tables_number       1
_space_group_crystal_system       triclinic
_cell_length_a                    6.952564
_cell_length_b                    14.626295
_cell_length_c                    15.963214
_cell_angle_alpha                 90.388485
_cell_angle_beta                  89.169393
_cell_angle_gamma                 89.583777
_cell_volume                      1623.05136821

loop_
_atom_site_label
_atom_site_type_symbol
_atom_type_description
_atom_site_fract_x
_atom_site_fract_y
_atom_site_fract_z
_atom_type_partial_charge
O1    O     O_R   0.361600 0.167310 0.164620 -0.560609
O2    O     O_R   0.638400 0.832690 0.835380 -0.540714
O3    O     O_R   0.691080 0.157570 0.338750 -0.542764
O4    O     O_R   0.308920 0.842430 0.661250 -0.543187
O5    O     O_R   0.861410 0.336420 0.339360 -0.524636
O6    O     O_R   0.138590 0.663580 0.660640 -0.524854
C1    C     C_R   0.520931 0.133857 0.366142 0.791712
C2    C     C_R   0.479068 0.866120 0.633832 0.786185
O7    O     O_R   0.691320 0.156280 0.165240 -0.524611
O8    O     O_R   0.308680 0.843720 0.834760 -0.549953
O9    O     O_R   0.861640 0.335130 0.164600 -0.544981
O10   O     O_R   0.138360 0.664870 0.835400 -0.542394
C3    C     C_R   0.522749 0.135977 0.134421 0.674968
C4    C     C_R   0.476884 0.863954 0.865578 0.717842
O11   O     O_R   0.361370 0.168600 0.339370 -0.518811
O12   O     O_R   0.638630 0.831400 0.660630 -0.522014
O13   O     O_3   0.527990 0.310540 0.251980 -0.349070
O14   O     O_3   0.472010 0.689460 0.748020 -0.336482
V1    V     V_3+5 0.802830 0.240980 0.251990 1.659832
V2    V     V_3+5 0.197170 0.759020 0.748010 1.656654
O15   O     O_R   0.191360 0.346160 0.165220 -0.521686
O16   O     O_R   0.808640 0.653840 0.834780 -0.501388
C5    C     C_R   0.022696 0.367639 0.135903 0.810472
C6    C     C_R   0.977796 0.631310 0.863273 0.759794
O17   O     O_R   0.191130 0.347440 0.338740 -0.510636
O18   O     O_R   0.808870 0.652560 0.661260 -0.512747
C7    C     C_R   0.020331 0.367901 0.368650 0.888826
C8    C     C_R   0.979669 0.632098 0.631350 0.885348
V3    V     V_3+5 0.302840 0.262750 0.251990 1.690931
V4    V     V_3+5 0.697160 0.737250 0.748010 1.737367
O19   O     O_3   0.027820 0.193180 0.251990 -0.370161
O20   O     O_3   0.972180 0.806820 0.748010 -0.380066
C9    C     C_3   0.892135 0.428393 0.523573 0.311794
C10   C     C_3   0.107866 0.571604 0.476432 0.312679
C11   C     C_3   0.069010 0.464341 0.570135 0.283655
C12   C     C_3   0.930990 0.535658 0.429869 0.285077
C13   C     C_3   0.995313 0.563583 0.560495 -0.442408
C14   C     C_3   0.004687 0.436415 0.439509 -0.442194
C15   C     C_3   0.818685 0.528241 0.513703 0.339019
C16   C     C_3   0.181315 0.471756 0.486301 0.338912
C17   C     C_R   0.862269 0.488594 0.936067 0.404491
C18   C     C_R   0.138744 0.509465 0.062389 0.389407
C19   C     C_R   0.871692 0.425128 0.002163 -0.124244
C20   C     C_R   0.129977 0.572385 0.996085 -0.138022
C21   C     C_R   0.011931 0.434481 0.065634 -0.235089
C22   C     C_R   0.990065 0.563196 0.932573 -0.250557
C23   C     C_R   0.660714 0.055638 0.489781 -0.124275
C24   C     C_R   0.339304 0.944301 0.510151 -0.123444
H1    H     H_    0.785132 0.099429 0.483611 0.205932
H2    H     H_    0.214894 0.900504 0.516317 0.205383
C25   C     C_R   0.653945 0.992863 0.555596 0.402740
C26   C     C_R   0.346091 0.007067 0.444324 0.402174
C27   C     C_R   0.491816 0.935702 0.566330 -0.195290
C28   C     C_R   0.508192 0.064248 0.433615 -0.197550
C29   C     C_R   0.651248 0.999818 0.056208 -0.095461
C30   C     C_R   0.348172 0.000521 0.943249 -0.089185
H3    H     H_    0.765226 0.996804 0.101686 0.147353
H4    H     H_    0.231164 0.002441 0.899068 0.156125
C31   C     C_R   0.641199 0.931169 0.994374 -0.030799
C32   C     C_R   0.356337 0.067907 0.006162 -0.103757
C33   C     C_R   0.488355 0.931532 0.936042 -0.132642
C34   C     C_R   0.510077 0.068162 0.064097 -0.098284
Cl1   Cl    Cl    0.163896 0.418779 0.664432 -0.375959
Cl2   Cl    Cl    0.836105 0.581234 0.335579 -0.391302
Cl3   Cl    Cl    0.768959 0.329118 0.559091 -0.412160
Cl4   Cl    Cl    0.231041 0.670881 0.440914 -0.417725
Cl5   Cl    Cl    0.593773 0.584062 0.531832 -0.436945
Cl6   Cl    Cl    0.406223 0.415930 0.468176 -0.434631
Cl7   Cl    Cl    0.700155 0.468221 0.853110 -0.451670
Cl8   Cl    Cl    0.303864 0.529679 0.144306 -0.483922
C35   C     C_2   0.733019 0.348744 0.003259 0.917230
O21   O     O_2   0.790646 0.269713 0.998918 -0.518430
O22   O     O_R   0.536070 0.367806 0.009301 -0.616884
H5    H     H_    0.455847 0.310384 0.011935 0.306930
C36   C     C_2   0.267060 0.649107 0.995916 0.900191
O23   O     O_2   0.418377 0.642152 0.956386 -0.506837
O24   O     O_R   0.225855 0.727541 0.043379 -0.621919
H6    H     H_    0.331275 0.774832 0.039185 0.324355
Cl9   Cl    Cl    0.849144 0.992800 0.624909 -0.582658
Cl10  Cl    Cl    0.151001 0.007094 0.374945 -0.594192
C37   C     C_2   0.784673 0.856462 0.998011 0.783304
O25   O     O_2   0.954828 0.874254 0.006681 -0.552751
O26   O     O_R   0.723961 0.765756 0.996675 -0.640027
H7    H     H_    0.832384 0.721233 0.007979 0.312092
C38   C     C_2   0.200717 0.137187 0.007946 0.830925
O27   O     O_2   0.198213 0.196835 0.954898 -0.490915
O28   O     O_R   0.050512 0.132411 0.066643 -0.617561
H8    H     H_    0.063849 0.078094 0.105249 0.271756

loop_
_geom_bond_atom_site_label_1
_geom_bond_atom_site_label_2
_ccdc_geom_bond_type
C14   C16   S    
O28   H8    S    
C5    C21   S    
C29   C31   A    
C10   C13   S    
O13   V3    S    
O22   H5    S    
O4    C2    A    
V1    O19   S    
C10   Cl4   S    
C37   O25   D    
C9    Cl3   S    
C23   H1    S    
O24   H6    S    
O9    V1    S    
C9    C15   S    
C10   C16   S    
C11   C13   S    
O3    C1    A    
C7    C14   S    
O12   V4    S    
C29   C34   A    
C18   Cl8   S    
C32   C34   A    
O9    C5    A    
O7    C3    A    
C9    C11   S    
O5    C7    A    
O7    V1    S    
O6    C8    A    
C3    C34   S    
C20   C22   A    
C17   C22   A    
O3    V1    S    
O14   V4    S    
C10   C12   S    
C1    O11   A    
C2    O12   A    
C17   C19   A    
C18   C20   A    
C37   O26   S    
C26   C28   A    
O11   V3    S    
C38   O28   S    
O17   V3    S    
C24   C27   A    
C31   C33   A    
O8    C4    A    
O8    V2    S    
C35   O22   S    
C23   C25   A    
C38   O27   D    
C4    C33   S    
O15   V3    S    
C30   C32   A    
C25   C27   A    
C18   C21   A    
C20   C36   S    
C36   O23   D    
C36   O24   S    
O26   H7    S    
O10   V2    S    
O1    V3    S    
C19   C21   A    
C23   C28   A    
O18   V4    S    
C29   H3    S    
O16   C6    A    
O1    C3    A    
C12   C14   S    
C17   Cl7   S    
V2    O20   S    
C19   C35   S    
O16   V4    S    
C15   Cl5   S    
C12   C15   S    
C31   C37   S    
C2    C27   S    
C32   C38   S    
O5    V1    S    
O17   C7    A    
O6    V2    S    
O10   C6    A    
O18   C8    A    
C9    C14   S    
O2    V4    S    
C6    C22   S    
O15   C5    A    
C11   C16   S    
C35   O21   D    
V3    O19   S    
C12   Cl2   S    
V4    O20   S    
C8    C13   S    
C24   H2    S    
O13   V1    S    
C30   H4    S    
O14   V2    S    
O2    C4    A    
C25   Cl9   S    
O4    V2    S    
C24   C26   A    
C13   C15   S    
C16   Cl6   S    
C30   C33   A    
C11   Cl1   S    
C1    C28   S    
C26   Cl10  S    
