data_mof_unit_22660.cif
_audit_creation_date              2012-12-11T16:50:53-0500
_audit_creation_method            fapswitch 2.2
_symmetry_space_group_name_H-M    P1
_symmetry_Int_Tables_number       1
_space_group_crystal_system       triclinic
_cell_length_a                    6.919026
_cell_length_b                    28.843483
_cell_length_c                    32.150235
_cell_angle_alpha                 100.829215
_cell_angle_beta                  89.786298
_cell_angle_gamma                 90.350968
_cell_volume                      6301.78203092

loop_
_atom_site_label
_atom_site_type_symbol
_atom_type_description
_atom_site_fract_x
_atom_site_fract_y
_atom_site_fract_z
_atom_type_partial_charge
O1    O     O_R   0.494350 0.453170 0.452520 -0.544531
O2    O     O_R   0.820980 0.455850 0.538220 -0.546728
O3    O     O_R   0.994300 0.546830 0.547480 -0.536988
C1    C     C_R   0.651708 0.445667 0.551656 0.688137
O4    O     O_R   0.823860 0.447590 0.452270 -0.546119
O5    O     O_R   0.997200 0.538510 0.460920 -0.507709
C2    C     C_R   0.654833 0.434716 0.436570 0.688699
O6    O     O_R   0.491440 0.461490 0.539080 -0.543982
O7    O     O_3   0.661790 0.529840 0.502940 -0.333769
V1    V     V_3+5 0.935470 0.494460 0.499450 1.461010
O8    O     O_R   0.327090 0.544150 0.461780 -0.527637
C3    C     C_R   0.158208 0.555096 0.448858 0.771123
O9    O     O_R   0.324210 0.552410 0.547730 -0.542424
C4    C     C_R   0.155190 0.565357 0.563371 0.698450
V2    V     V_3+5 0.435840 0.505540 0.500550 1.478409
O10   O     O_3   0.159650 0.470160 0.497060 -0.382287
C5    C     C_R   0.226090 0.877512 0.883388 -0.152618
H1    H     H_    0.358793 0.890430 0.899340 0.121838
C6    C     C_R   0.237502 0.841830 0.847364 -0.136827
H2    H     H_    0.378292 0.827990 0.836988 0.100544
C7    C     C_R   0.069536 0.823777 0.825433 0.095007
C8    C     C_R   0.889522 0.842226 0.840799 -0.133582
H3    H     H_    0.757315 0.829724 0.824433 0.099741
C9    C     C_R   0.877995 0.877831 0.876974 -0.155178
H4    H     H_    0.737138 0.891408 0.887628 0.117778
C10   C     C_R   0.046257 0.896077 0.898687 -0.055261
C11   C     C_R   0.942878 0.749785 0.778561 -0.144791
H5    H     H_    0.825278 0.748303 0.800588 0.113792
C12   C     C_R   0.955504 0.714333 0.742341 -0.147477
H6    H     H_    0.847159 0.686615 0.737567 0.111117
C13   C     C_R   0.108022 0.714081 0.713192 0.080979
C14   C     C_R   0.247600 0.750309 0.721341 -0.141308
H7    H     H_    0.365211 0.751785 0.699314 0.118014
C15   C     C_R   0.234966 0.785763 0.757558 -0.146692
H8    H     H_    0.343313 0.813480 0.762331 0.113572
C16   C     C_R   0.082462 0.786012 0.786712 0.079763
C17   C     C_R   0.301028 0.657817 0.659164 -0.132423
H9    H     H_    0.433201 0.670319 0.675544 0.099219
C18   C     C_R   0.312599 0.622173 0.623019 -0.146472
H10   H     H_    0.453458 0.608567 0.612400 0.119032
C19   C     C_R   0.144370 0.603924 0.601296 -0.052439
C20   C     C_R   0.964532 0.622541 0.616537 -0.137997
H11   H     H_    0.831864 0.609635 0.600562 0.128101
C21   C     C_R   0.953077 0.658258 0.652533 -0.134389
H12   H     H_    0.812290 0.672128 0.662875 0.102750
C22   C     C_R   0.121003 0.676301 0.674486 0.093278
C23   C     C_R   0.163222 0.658939 0.283630 0.574345
N1    N     N_R   0.135996 0.677910 0.325748 -0.548616
C24   C     C_R   0.099410 0.725259 0.338458 0.590264
C25   C     C_R   0.085458 0.755082 0.308519 -0.037182
C26   C     C_R   0.113349 0.736029 0.265311 -0.016782
C27   C     C_R   0.154028 0.687652 0.252681 -0.029317
C28   C     C_R   0.044057 0.803420 0.320760 -0.134800
C29   C     C_R   0.029727 0.832326 0.290522 -0.138775
C30   C     C_R   0.057484 0.813706 0.247275 -0.029504
C31   C     C_R   0.100170 0.765412 0.234658 -0.014957
C32   C     C_R   0.129513 0.746428 0.191457 -0.029632
C33   C     C_R   0.171144 0.698112 0.179233 -0.140288
C34   C     C_R   0.182771 0.669082 0.209436 -0.139957
C35   C     C_R   0.044306 0.842206 0.216249 0.572874
N2    N     N_R   0.073814 0.823294 0.174272 -0.560569
C36   C     C_R   0.116100 0.776328 0.161556 0.573117
O11   O     O_2   0.196273 0.612297 0.271543 -0.524403
O12   O     O_2   0.077878 0.743628 0.379999 -0.507422
H13   H     H_    0.021783 0.819082 0.353758 0.175407
H14   H     H_    0.997053 0.869333 0.301183 0.172538
O13   O     O_2   0.003958 0.888526 0.228017 -0.519646
O14   O     O_2   0.143928 0.758507 0.120097 -0.518856
H15   H     H_    0.194355 0.682508 0.146253 0.171868
H16   H     H_    0.214434 0.632023 0.198751 0.171493
C37   C     C_R   0.230740 0.866187 0.123500 -0.089584
H17   H     H_    0.369840 0.853316 0.131504 0.115875
C38   C     C_R   0.220771 0.895975 0.093827 -0.195710
H18   H     H_    0.353617 0.905312 0.079427 0.131355
C39   C     C_R   0.041755 0.913384 0.082889 -0.058654
C40   C     C_R   0.873064 0.900080 0.102474 -0.195645
H19   H     H_    0.732971 0.912849 0.095000 0.127614
C41   C     C_R   0.883593 0.870530 0.132403 -0.085158
H20   H     H_    0.752450 0.860933 0.147285 0.117499
C42   C     C_R   0.062480 0.853380 0.143127 0.383495
C43   C     C_R   0.980658 0.644166 0.382968 -0.125230
H21   H     H_    0.852245 0.664421 0.379576 0.164773
C44   C     C_R   0.983774 0.615239 0.413495 0.339676
C45   C     C_R   0.149580 0.587839 0.417952 -0.142763
C46   C     C_R   0.310602 0.591665 0.391804 -0.209076
H22   H     H_    0.439553 0.571231 0.394112 0.181335
C47   C     C_R   0.307021 0.621284 0.361907 -0.068890
H23   H     H_    0.433502 0.623676 0.342467 0.146052
C48   C     C_R   0.141477 0.647587 0.356975 0.301641
C49   C     C_R   0.728760 0.207143 0.825357 0.582235
N3    N     N_R   0.575193 0.176661 0.825488 -0.555000
C50   C     C_R   0.429422 0.174717 0.796221 0.579047
C51   C     C_R   0.433515 0.204230 0.765907 -0.030255
C52   C     C_R   0.591196 0.235146 0.765225 -0.020818
C53   C     C_R   0.740786 0.236516 0.794995 -0.027111
C54   C     C_R   0.284361 0.203345 0.736155 -0.146979
C55   C     C_R   0.292343 0.232556 0.706056 -0.144699
C56   C     C_R   0.449728 0.263394 0.704920 -0.027625
C57   C     C_R   0.599319 0.264763 0.734691 -0.020792
C58   C     C_R   0.757000 0.295680 0.734009 -0.029646
C59   C     C_R   0.906154 0.296565 0.763761 -0.148231
C60   C     C_R   0.898171 0.267354 0.793860 -0.145652
C61   C     C_R   0.461752 0.292768 0.674560 0.582855
N4    N     N_R   0.615321 0.323249 0.674428 -0.554918
C62   C     C_R   0.761093 0.325193 0.703695 0.577822
O15   O     O_2   0.868575 0.209595 0.854845 -0.528950
O16   O     O_2   0.281840 0.143871 0.795965 -0.526769
H24   H     H_    0.160570 0.180157 0.736067 0.171088
H25   H     H_    0.174440 0.230939 0.683751 0.169884
O17   O     O_2   0.321935 0.290317 0.645072 -0.528569
O18   O     O_2   0.908675 0.356039 0.703952 -0.527734
H26   H     H_    0.029945 0.319752 0.763849 0.170535
H27   H     H_    0.016074 0.268971 0.816164 0.169474
C63   C     C_R   0.786322 0.353600 0.616899 -0.086096
H28   H     H_    0.906164 0.330278 0.619283 0.163346
C64   C     C_R   0.795952 0.383594 0.587374 -0.206920
H29   H     H_    0.923988 0.382899 0.567787 0.137796
C65   C     C_R   0.641114 0.413627 0.582815 -0.053759
C66   C     C_R   0.477025 0.413156 0.608717 -0.207537
H30   H     H_    0.355867 0.436069 0.606221 0.131218
C67   C     C_R   0.469244 0.383879 0.638866 -0.088507
H31   H     H_    0.343063 0.384962 0.659046 0.158011
C68   C     C_R   0.623528 0.353639 0.643234 0.354777
C69   C     C_R   0.404191 0.146314 0.883019 -0.086045
H32   H     H_    0.284342 0.169633 0.880632 0.163051
C70   C     C_R   0.394578 0.116329 0.912552 -0.205812
H33   H     H_    0.266549 0.117027 0.932141 0.139061
C71   C     C_R   0.549434 0.086304 0.917118 -0.058428
C72   C     C_R   0.713516 0.086770 0.891213 -0.205673
H34   H     H_    0.834686 0.063862 0.893715 0.133932
C73   C     C_R   0.721279 0.116038 0.861057 -0.087083
H35   H     H_    0.847459 0.114953 0.840876 0.158496
C74   C     C_R   0.566985 0.146273 0.856684 0.354622
C75   C     C_R   0.725786 0.116801 0.121102 -0.152364
H36   H     H_    0.857530 0.099099 0.108931 0.121467
C76   C     C_R   0.737076 0.152469 0.157142 -0.136207
H37   H     H_    0.876695 0.160783 0.171846 0.101677
C77   C     C_R   0.570134 0.176343 0.174475 0.094877
C78   C     C_R   0.391400 0.163495 0.154685 -0.134760
H38   H     H_    0.260182 0.181530 0.166723 0.099829
C79   C     C_R   0.379967 0.127680 0.118669 -0.155723
H39   H     H_    0.239964 0.118811 0.104321 0.120157
C80   C     C_R   0.547086 0.103830 0.101381 -0.055379
C81   C     C_R   0.437115 0.219225 0.244273 -0.144575
H40   H     H_    0.314807 0.195236 0.241024 0.113651
C82   C     C_R   0.449577 0.254553 0.280589 -0.146548
H41   H     H_    0.336338 0.256738 0.304197 0.111101
C83   C     C_R   0.607889 0.285958 0.286766 0.080897
C84   C     C_R   0.753412 0.280991 0.255577 -0.144978
H42   H     H_    0.875725 0.304978 0.258828 0.113205
C85   C     C_R   0.740948 0.245664 0.219261 -0.146735
H43   H     H_    0.854190 0.243479 0.195653 0.110837
C86   C     C_R   0.582645 0.214255 0.213085 0.081032
C87   C     C_R   0.799184 0.336673 0.345183 -0.134367
H44   H     H_    0.930381 0.318634 0.333136 0.099854
C88   C     C_R   0.810648 0.372457 0.381222 -0.156458
H45   H     H_    0.950654 0.381298 0.395579 0.118142
C89   C     C_R   0.643552 0.396303 0.398527 -0.055150
C90   C     C_R   0.464850 0.383373 0.378791 -0.153853
H46   H     H_    0.333127 0.401078 0.390972 0.118342
C91   C     C_R   0.453529 0.347734 0.342729 -0.136063
H47   H     H_    0.313908 0.339445 0.328019 0.101346
C92   C     C_R   0.620442 0.323855 0.325386 0.094757
O19   O     O_R   0.699170 0.038480 0.960880 -0.537740
O20   O     O_R   0.366800 0.052460 0.047690 -0.542493
O21   O     O_R   0.193520 0.961530 0.039110 -0.538700
C93   C     C_R   0.535826 0.065367 0.063374 0.693960
O22   O     O_R   0.369630 0.044100 0.961740 -0.541107
O23   O     O_R   0.196370 0.953120 0.952550 -0.539040
C94   C     C_R   0.538883 0.054283 0.948295 0.708068
O24   O     O_R   0.696320 0.046890 0.047450 -0.539433
O25   O     O_3   0.528890 0.970170 0.997080 -0.368125
V3    V     V_3+5 0.255190 0.005530 0.000540 1.407134
O26   O     O_R   0.866460 0.947530 0.952310 -0.542577
C95   C     C_R   0.035469 0.934607 0.936647 0.693830
O27   O     O_R   0.863630 0.955880 0.038270 -0.541144
C96   C     C_R   0.032172 0.945618 0.051718 0.708712
V4    V     V_3+5 0.754830 0.994440 0.999470 1.406634
O28   O     O_3   0.031000 0.029830 0.002920 -0.366827
Cl1   Cl    Cl    0.779168 0.616931 0.446555 -0.637332

loop_
_geom_bond_atom_site_label_1
_geom_bond_atom_site_label_2
_ccdc_geom_bond_type
C47   H23   S    
C71   C94   S    
C70   H33   S    
C11   C12   A    
C38   H18   S    
O19   C94   A    
C6    H2    S    
C1    O6    A    
C71   C72   A    
C63   H28   S    
C32   C33   A    
C84   H42   S    
C49   C53   A    
C18   C19   A    
C7    C16   S    
C28   C29   A    
C31   C32   A    
C59   H26   S    
C58   C62   A    
C59   C60   A    
C69   C74   A    
C61   O17   S    
C5    C10   A    
C10   C95   S    
C50   C51   A    
C88   H45   S    
C6    C7    A    
C17   H9    S    
C40   C41   A    
C26   C31   A    
C84   C85   A    
C23   O11   S    
C41   C42   A    
V3    O28   S    
N2    C42   S    
O20   V3    S    
V2    O10   S    
C64   H29   S    
C3    C45   S    
C5    H1    S    
C15   H8    S    
C19   C20   A    
C81   C86   A    
O26   C95   A    
N4    C62   A    
C43   C44   A    
C75   C80   A    
C65   C66   A    
O8    V2    S    
C45   C46   A    
C23   N1    A    
C35   O13   S    
N4    C68   S    
C13   C22   S    
C85   H43   S    
C90   C91   A    
O24   V4    S    
O1    V2    S    
O9    C4    A    
C28   H13   S    
O7    V1    S    
O26   V4    S    
C87   C88   A    
C53   C60   A    
C43   C48   A    
O22   C94   A    
C62   O18   S    
O20   C93   A    
C24   O12   S    
C7    C8    A    
C38   C39   A    
C1    C65   S    
C52   C53   A    
C20   C21   A    
C37   C42   A    
C91   C92   A    
C21   C22   A    
C55   C56   A    
C82   C83   A    
C66   C67   A    
O22   V3    S    
C25   C28   A    
C82   H41   S    
C46   C47   A    
C26   C27   A    
V4    O28   S    
C87   C92   A    
C32   C36   A    
C9    H4    S    
C49   O15   S    
C76   C77   A    
N3    C50   A    
C2    C89   S    
C41   H20   S    
C76   H37   S    
C93   O24   A    
C33   C34   A    
C46   H22   S    
C43   H21   S    
C35   N2    A    
C14   C15   A    
O2    C1    A    
C39   C40   A    
C12   H6    S    
C27   C34   A    
C55   H25   S    
C50   O16   S    
C63   C64   A    
C90   H46   S    
N3    C74   S    
C78   H38   S    
C54   C55   A    
C30   C31   A    
C25   C26   A    
O23   C95   A    
O21   C96   A    
C40   H19   S    
C80   C93   S    
C67   H31   S    
C23   C27   A    
O3    C4    A    
C4    C19   S    
C63   C68   A    
C44   Cl1   S    
C77   C86   S    
C81   C82   A    
O27   C96   A    
C56   C57   A    
O6    V2    S    
N1    C48   S    
O9    V2    S    
C89   C90   A    
C8    C9    A    
C44   C45   A    
C20   H11   S    
C73   H35   S    
O2    V1    S    
C18   H10   S    
O19   V4    S    
O25   V3    S    
C69   C70   A    
C72   H34   S    
O25   V4    S    
C29   C30   A    
N1    C24   A    
O21   V3    S    
C70   C71   A    
O1    C2    A    
C83   C92   S    
C13   C14   A    
C21   H12   S    
C9    C10   A    
C81   H40   S    
C73   C74   A    
O5    V1    S    
C75   C76   A    
C66   H30   S    
C33   H15   S    
C75   H36   S    
C29   H14   S    
C11   C16   A    
C51   C54   A    
C51   C52   A    
C57   C58   A    
C36   O14   S    
C14   H7    S    
C79   C80   A    
O7    V2    S    
O4    C2    A    
C37   H17   S    
C12   C13   A    
O3    V1    S    
V1    O10   S    
C79   H39   S    
O5    C3    A    
C78   C79   A    
C49   N3    A    
C91   H47   S    
C52   C57   A    
C88   C89   A    
C58   C59   A    
C5    C6    A    
C64   C65   A    
C15   C16   A    
C83   C84   A    
C85   C86   A    
C54   H24   S    
N2    C36   A    
C39   C96   S    
C67   C68   A    
C77   C78   A    
C34   H16   S    
C87   H44   S    
O4    V1    S    
C17   C18   A    
C24   C25   A    
C37   C38   A    
C61   N4    A    
C60   H27   S    
C47   C48   A    
O23   V3    S    
C8    H3    S    
C69   H32   S    
C72   C73   A    
C17   C22   A    
C30   C35   A    
C56   C61   A    
O8    C3    A    
O27   V4    S    
C11   H5    S    
