data_mof_unit_62619.cif
_audit_creation_date              2013-03-05T16:37:04-0500
_audit_creation_method            fapswitch 2.2
_symmetry_space_group_name_H-M    P1
_symmetry_Int_Tables_number       1
_space_group_crystal_system       triclinic
_cell_length_a                    36.27118
_cell_length_b                    25.712975
_cell_length_c                    25.691705
_cell_angle_alpha                 90.000023
_cell_angle_beta                  90.000532
_cell_angle_gamma                 89.991258
_cell_volume                      23961.1100469

loop_
_atom_site_label
_atom_site_type_symbol
_atom_site_description
_atom_site_fract_x
_atom_site_fract_y
_atom_site_fract_z
_atom_type_partial_charge
Zn1   Zn    Zn3+2 0.719300 0.249980 0.438970 1.030390
Zn2   Zn    Zn3+2 0.280700 0.249980 0.438970 1.034313
Zn3   Zn    Zn3+2 0.280700 0.249980 0.561030 1.030264
Zn4   Zn    Zn3+2 0.719300 0.249980 0.561030 1.039727
Zn5   Zn    Zn3+2 0.219300 0.749980 0.938970 1.031375
Zn6   Zn    Zn3+2 0.780700 0.749980 0.938970 1.030899
Zn7   Zn    Zn3+2 0.780700 0.749980 0.061030 1.033883
Zn8   Zn    Zn3+2 0.219300 0.749980 0.061030 1.038674
Zn9   Zn    Zn3+2 0.780720 0.311020 0.500000 1.043586
Zn10  Zn    Zn3+2 0.219280 0.311020 0.500000 1.031736
Zn11  Zn    Zn3+2 0.280720 0.811020 0.000000 1.043687
Zn12  Zn    Zn3+2 0.719280 0.811020 0.000000 1.031647
Zn13  Zn    Zn3+2 0.780730 0.188950 0.500000 1.043144
Zn14  Zn    Zn3+2 0.219270 0.188950 0.500000 1.046292
Zn15  Zn    Zn3+2 0.280730 0.688950 0.000000 1.043192
Zn16  Zn    Zn3+2 0.719270 0.688950 0.000000 1.046346
O1    O     O_3   0.750020 0.249980 0.500000 -0.515328
O2    O     O_3   0.249980 0.249980 0.500000 -0.513705
O3    O     O_3   0.250020 0.749980 0.000000 -0.515312
O4    O     O_3   0.749980 0.749980 0.000000 -0.513770
O5    O     O_R   0.728520 0.310110 0.602800 -0.617617
O6    O     O_R   0.271480 0.310110 0.602800 -0.620095
O7    O     O_R   0.271480 0.310110 0.397200 -0.618995
O8    O     O_R   0.728520 0.310110 0.397200 -0.618679
O9    O     O_R   0.228520 0.810110 0.102800 -0.617860
O10   O     O_R   0.771480 0.810110 0.102800 -0.619438
O11   O     O_R   0.771480 0.810110 0.897200 -0.619945
O12   O     O_R   0.228520 0.810110 0.897200 -0.618990
O13   O     O_R   0.728520 0.189860 0.397190 -0.632424
O14   O     O_R   0.271480 0.189860 0.397190 -0.630108
O15   O     O_R   0.271480 0.189860 0.602810 -0.629236
O16   O     O_R   0.728520 0.189860 0.602810 -0.630193
O17   O     O_R   0.228520 0.689860 0.897190 -0.631655
O18   O     O_R   0.771480 0.689860 0.897190 -0.629887
O19   O     O_R   0.771480 0.689860 0.102810 -0.629663
O20   O     O_R   0.228520 0.689860 0.102810 -0.630851
O21   O     O_R   0.771490 0.352810 0.439870 -0.615281
O22   O     O_R   0.228510 0.352810 0.439870 -0.616889
O23   O     O_R   0.228510 0.352810 0.560130 -0.616874
O24   O     O_R   0.771490 0.352810 0.560130 -0.615690
O25   O     O_R   0.271490 0.852810 0.939870 -0.614997
O26   O     O_R   0.728510 0.852810 0.939870 -0.616656
O27   O     O_R   0.728510 0.852810 0.060130 -0.617151
O28   O     O_R   0.271490 0.852810 0.060130 -0.615572
O29   O     O_R   0.771530 0.147160 0.560090 -0.612013
O30   O     O_R   0.228470 0.147160 0.560090 -0.611608
O31   O     O_R   0.228470 0.147160 0.439910 -0.610918
O32   O     O_R   0.771530 0.147160 0.439910 -0.610741
O33   O     O_R   0.271530 0.647160 0.060090 -0.611612
O34   O     O_R   0.728470 0.647160 0.060090 -0.611569
O35   O     O_R   0.728470 0.647160 0.939910 -0.610930
O36   O     O_R   0.271530 0.647160 0.939910 -0.610952
O37   O     O_R   0.832000 0.292700 0.500000 -0.617743
O38   O     O_R   0.168000 0.292700 0.500000 -0.632305
O39   O     O_R   0.332000 0.792700 0.000000 -0.617695
O40   O     O_R   0.668000 0.792700 0.000000 -0.632104
O41   O     O_R   0.668030 0.249990 0.542720 -0.610668
O42   O     O_R   0.331970 0.249990 0.542720 -0.623358
O43   O     O_R   0.331970 0.249990 0.457280 -0.614478
O44   O     O_R   0.668030 0.249990 0.457280 -0.626140
O45   O     O_R   0.168030 0.749990 0.042720 -0.611510
O46   O     O_R   0.831970 0.749990 0.042720 -0.615126
O47   O     O_R   0.831970 0.749990 0.957280 -0.621438
O48   O     O_R   0.168030 0.749990 0.957280 -0.625683
O49   O     O_R   0.832010 0.207260 0.500000 -0.617935
O50   O     O_R   0.167990 0.207260 0.500000 -0.611299
O51   O     O_R   0.332010 0.707260 0.000000 -0.618174
O52   O     O_R   0.667990 0.707260 0.000000 -0.611399
C1    C     C_R   0.749992 0.349032 0.599053 0.813925
C2    C     C_R   0.250006 0.349034 0.599052 0.812194
C3    C     C_R   0.250007 0.349035 0.400948 0.812236
C4    C     C_R   0.749992 0.349032 0.400947 0.814566
C5    C     C_R   0.249992 0.849032 0.099053 0.813880
C6    C     C_R   0.750007 0.849035 0.099052 0.811911
C7    C     C_R   0.750007 0.849035 0.900948 0.812118
C8    C     C_R   0.249992 0.849032 0.900947 0.814475
C9    C     C_R   0.750016 0.150946 0.400971 0.823471
C10   C     C_R   0.249986 0.150949 0.400970 0.824048
C11   C     C_R   0.249986 0.150949 0.599030 0.824683
C12   C     C_R   0.750016 0.150946 0.599029 0.822887
C13   C     C_R   0.250016 0.650946 0.900971 0.823915
C14   C     C_R   0.749986 0.650949 0.900970 0.824835
C15   C     C_R   0.749986 0.650949 0.099030 0.824272
C16   C     C_R   0.250016 0.650946 0.099029 0.822952
C17   C     C_R   0.849511 0.249988 0.499996 0.814823
C18   C     C_R   0.150490 0.250005 0.499996 0.823171
C19   C     C_R   0.349511 0.749988 0.999998 0.814481
C20   C     C_R   0.650490 0.750005 0.999998 0.823166
C21   C     C_R   0.650346 0.249975 0.499998 0.822238
C22   C     C_R   0.349653 0.249971 0.500000 0.823070
C23   C     C_R   0.150348 0.749969 0.999998 0.822852
C24   C     C_R   0.849652 0.749965 0.999998 0.822206
C25   C     C_3   0.521576 0.235586 0.554731 0.797505
C26   C     C_3   0.478509 0.242302 0.556412 0.730250
C27   C     C_3   0.478264 0.207561 0.463493 0.860778
C28   C     C_3   0.521401 0.211053 0.458831 0.747916
C29   C     C_3   0.021425 0.723432 0.049336 0.739707
C30   C     C_3   0.978317 0.729745 0.052241 0.761165
C31   C     C_3   0.978315 0.717704 0.953866 0.845115
C32   C     C_3   0.021464 0.722320 0.950302 0.758284
C33   C     C_1   0.389255 0.250448 0.499987 -0.091094
C34   C     C_1   0.610742 0.250321 0.499967 -0.074450
C35   C     C_1   0.889251 0.750525 0.999969 -0.087730
C36   C     C_1   0.110746 0.750388 0.999974 -0.074475
C37   C     C_3   0.536590 0.251614 0.499550 -0.392702
C38   C     C_3   0.463424 0.252179 0.499794 -0.356502
C39   C     C_3   0.036600 0.751975 0.999602 -0.392322
C40   C     C_3   0.963420 0.752582 0.999552 -0.374765
C41   C     C_3   0.478209 0.306356 0.479346 0.537272
C42   C     C_3   0.522051 0.307594 0.484341 0.644349
C43   C     C_3   0.978422 0.810186 0.992183 0.536539
C44   C     C_3   0.022173 0.809991 0.998167 0.689241
C45   C     C_1   0.422530 0.251099 0.499933 0.243836
C46   C     C_1   0.577467 0.250787 0.499838 0.323251
C47   C     C_1   0.922523 0.751298 0.999842 0.241338
C48   C     C_1   0.077474 0.750960 0.999861 0.324915
C49   C     C_R   0.225663 0.503695 0.706806 0.610594
C50   C     C_R   0.775357 0.502579 0.707909 0.611444
C51   C     C_R   0.775210 0.502742 0.292257 0.611326
C52   C     C_R   0.224936 0.502921 0.292418 0.610367
C53   C     C_R   0.724071 0.001933 0.208571 0.610345
C54   C     C_R   0.274598 0.003407 0.207079 0.611442
C55   C     C_R   0.275127 0.002834 0.792348 0.612202
C56   C     C_R   0.724927 0.002911 0.792407 0.610928
C57   C     C_R   0.249807 0.461476 0.711110 -0.300985
C58   C     C_R   0.750212 0.461451 0.711135 -0.301746
C59   C     C_R   0.750207 0.461455 0.288870 -0.301207
C60   C     C_R   0.249794 0.461462 0.288876 -0.300992
C61   C     C_R   0.749776 0.961442 0.211144 -0.300993
C62   C     C_R   0.250197 0.961467 0.211118 -0.301642
C63   C     C_R   0.250205 0.961457 0.788872 -0.301775
C64   C     C_R   0.749794 0.961462 0.788877 -0.301177
C65   C     C_R   0.273764 0.457859 0.753664 0.478370
C66   C     C_R   0.725266 0.458917 0.752619 0.479894
C67   C     C_R   0.725401 0.458764 0.247226 0.478334
C68   C     C_R   0.274457 0.458597 0.247077 0.477911
C69   C     C_R   0.775278 0.959536 0.251984 0.478551
C70   C     C_R   0.225988 0.958128 0.253409 0.479634
C71   C     C_R   0.225479 0.958678 0.747140 0.479251
C72   C     C_R   0.774467 0.958608 0.747088 0.478389
C73   C     C_R   0.775218 0.998409 0.290771 0.350218
C74   C     C_R   0.226046 0.997010 0.292189 0.350326
C75   C     C_R   0.225539 0.997558 0.708359 0.350245
C76   C     C_R   0.774410 0.997485 0.708304 0.350113
C77   C     C_R   0.273710 0.496739 0.792445 0.350444
C78   C     C_R   0.725326 0.497796 0.791402 0.350178
C79   C     C_R   0.725461 0.497644 0.208445 0.349962
C80   C     C_R   0.274400 0.497474 0.208293 0.349811
C81   C     C_R   0.749297 0.039128 0.288056 -0.223755
C82   C     C_R   0.250653 0.039189 0.287996 -0.223999
C83   C     C_R   0.250672 0.039168 0.711984 -0.224280
C84   C     C_R   0.749333 0.039168 0.711984 -0.224104
C85   C     C_R   0.249361 0.539199 0.787986 -0.223830
C86   C     C_R   0.750683 0.539156 0.788029 -0.223948
C87   C     C_R   0.750675 0.539165 0.211980 -0.223814
C88   C     C_R   0.249333 0.539168 0.211983 -0.223740
C89   C     C_R   0.723451 0.040947 0.246561 0.300741
C90   C     C_R   0.275186 0.042460 0.245030 0.300553
C91   C     C_R   0.275729 0.041873 0.754383 0.301569
C92   C     C_R   0.724329 0.041949 0.754441 0.301463
C93   C     C_R   0.225083 0.542752 0.744753 0.301043
C94   C     C_R   0.775965 0.541611 0.745880 0.300977
C95   C     C_R   0.775814 0.541779 0.254290 0.301011
C96   C     C_R   0.224338 0.541959 0.254452 0.300907
C97   C     C_1   0.249961 0.421686 0.671613 0.231598
C98   C     C_1   0.750045 0.421669 0.671628 0.233808
C99   C     C_1   0.750042 0.421672 0.328374 0.232830
C100  C     C_1   0.249955 0.421679 0.328381 0.231462
C101  C     C_1   0.749945 0.921669 0.171629 0.231751
C102  C     C_1   0.250038 0.921677 0.171620 0.233682
C103  C     C_1   0.250041 0.921673 0.828375 0.233546
C104  C     C_1   0.749955 0.921680 0.828381 0.231699
C105  C     C_1   0.749695 0.078566 0.328140 0.142445
C106  C     C_1   0.250280 0.078603 0.328104 0.143046
C107  C     C_1   0.250291 0.078592 0.671885 0.143643
C108  C     C_1   0.749716 0.078588 0.671882 0.142992
C109  C     C_1   0.249731 0.578605 0.828101 0.142902
C110  C     C_1   0.750297 0.578585 0.828122 0.143322
C111  C     C_1   0.750293 0.578590 0.171883 0.142997
C112  C     C_1   0.249715 0.578588 0.171881 0.142478
C113  C     C_1   0.749934 0.111542 0.361486 -0.097651
C114  C     C_1   0.250057 0.111561 0.361469 -0.096528
C115  C     C_1   0.250062 0.111557 0.638527 -0.095910
C116  C     C_1   0.749944 0.111551 0.638523 -0.095912
C117  C     C_1   0.249950 0.611558 0.861470 -0.096935
C118  C     C_1   0.750065 0.611553 0.861477 -0.096555
C119  C     C_1   0.750063 0.611556 0.138526 -0.096473
C120  C     C_1   0.249944 0.611551 0.138523 -0.096688
C121  C     C_1   0.250016 0.388475 0.638507 -0.075639
C122  C     C_1   0.749984 0.388465 0.638515 -0.071320
C123  C     C_1   0.749982 0.388466 0.361486 -0.073159
C124  C     C_1   0.250013 0.388473 0.361491 -0.075170
C125  C     C_1   0.750009 0.888468 0.138513 -0.074953
C126  C     C_1   0.249981 0.888468 0.138512 -0.071475
C127  C     C_1   0.249982 0.888466 0.861486 -0.072432
C128  C     C_1   0.750013 0.888473 0.861491 -0.075454
C129  C     C_R   0.019021 0.300646 0.504137 0.295775
C130  C     C_R   0.979983 0.299766 0.504054 0.397247
C131  C     C_R   0.519021 0.800746 0.002530 0.295826
C132  C     C_R   0.479983 0.799864 0.002479 0.397212
C133  C     C_R   0.038530 0.252881 0.500398 -0.284228
C134  C     C_R   0.961437 0.251946 0.500303 -0.258299
C135  C     C_R   0.538530 0.752890 0.000244 -0.284269
C136  C     C_R   0.461437 0.751953 0.000186 -0.258282
C137  C     C_R   0.019369 0.205756 0.496715 0.568164
C138  C     C_R   0.981027 0.205293 0.496668 0.508036
C139  C     C_R   0.519369 0.705675 0.997992 0.567922
C140  C     C_R   0.481027 0.705211 0.997964 0.507686
C141  C     C_1   0.078102 0.251184 0.500222 0.132390
C142  C     C_1   0.921901 0.250699 0.500160 0.236540
C143  C     C_1   0.578102 0.751187 0.000136 0.132319
C144  C     C_1   0.421901 0.750701 0.000098 0.236300
C145  C     C_1   0.888810 0.250117 0.500067 -0.074627
C146  C     C_1   0.111193 0.250252 0.500096 -0.086541
C147  C     C_1   0.388810 0.750118 0.000042 -0.074833
C148  C     C_1   0.611193 0.750252 0.000059 -0.086482
F1    F     F_    0.462984 0.197139 0.576747 -0.533200
F2    F     F_    0.530341 0.183671 0.563819 -0.520318
F3    F     F_    0.536355 0.162123 0.468510 -0.551478
F4    F     F_    0.468649 0.159758 0.484996 -0.539019
F5    F     F_    0.962377 0.681219 0.060964 -0.538316
F6    F     F_    0.030032 0.670782 0.045811 -0.521969
F7    F     F_    0.036474 0.672531 0.947979 -0.548411
F8    F     F_    0.968749 0.666168 0.963487 -0.529937
O53   O     O_3   0.531231 0.225411 0.407748 -0.662219
H1    H     H_    0.557798 0.217350 0.403205 0.373125
O54   O     O_3   0.461597 0.210840 0.414062 -0.646979
H2    H     H_    0.467220 0.177898 0.395518 0.389991
O55   O     O_3   0.469056 0.283821 0.589609 -0.723954
H3    H     H_    0.442399 0.280601 0.597699 0.379074
O56   O     O_3   0.538795 0.265133 0.593962 -0.711451
H4    H     H_    0.532227 0.248913 0.627788 0.404497
O57   O     O_3   0.031317 0.748563 0.904202 -0.661886
H5    H     H_    0.057897 0.741882 0.897911 0.373061
O58   O     O_3   0.961698 0.732450 0.906551 -0.685477
H6    H     H_    0.967457 0.704850 0.880770 0.397143
O59   O     O_3   0.968092 0.762782 0.093536 -0.731662
H7    H     H_    0.969165 0.742094 0.126117 0.383470
O60   O     O_3   0.038587 0.742864 0.094505 -0.736499
H8    H     H_    0.033566 0.717774 0.123006 0.383751
O61   O     O_3   0.534380 0.344640 0.521298 -0.681311
H9    H     H_    0.518872 0.343135 0.552885 0.418188
O62   O     O_3   0.462592 0.347528 0.508508 -0.734387
H10   H     H_    0.436467 0.351608 0.497741 0.356973
O63   O     O_3   0.467762 0.312105 0.426621 -0.657121
H11   H     H_    0.470207 0.349412 0.417253 0.369627
O64   O     O_3   0.537763 0.321669 0.436126 -0.663007
H12   H     H_    0.533893 0.359602 0.431276 0.378752
O65   O     O_3   0.034217 0.837015 0.043132 -0.676187
H13   H     H_    0.018400 0.828181 0.073174 0.413374
O66   O     O_3   0.963024 0.844331 0.029485 -0.686991
H14   H     H_    0.936321 0.848437 0.022302 0.346591
O67   O     O_3   0.969445 0.828814 0.941928 -0.648098
H15   H     H_    0.942214 0.830182 0.938557 0.352232
O68   O     O_3   0.038302 0.835374 0.955155 -0.642316
H16   H     H_    0.032282 0.872959 0.958061 0.402437
O69   O     O_3   0.697217 0.079641 0.241303 -0.639639
H17   H     H_    0.699292 0.104943 0.270118 0.347961
O70   O     O_3   0.300089 0.082632 0.238275 -0.638516
H18   H     H_    0.298118 0.107824 0.267202 0.348695
O71   O     O_3   0.301165 0.081470 0.760564 -0.636077
H19   H     H_    0.299151 0.106706 0.731682 0.349474
O72   O     O_3   0.698950 0.081620 0.760677 -0.637084
H20   H     H_    0.700961 0.106849 0.731789 0.349340
O73   O     O_3   0.200441 0.583209 0.737728 -0.638850
H21   H     H_    0.202395 0.608378 0.766677 0.348389
O74   O     O_3   0.801627 0.580955 0.739955 -0.638474
H22   H     H_    0.799597 0.606209 0.768819 0.348662
O75   O     O_3   0.801331 0.581285 0.260379 -0.638444
H23   H     H_    0.799311 0.606528 0.231504 0.348881
O76   O     O_3   0.198969 0.581641 0.260698 -0.639121
H24   H     H_    0.200979 0.606868 0.231809 0.348676
F9    F     F_    0.202449 0.507050 0.665426 -0.566054
F10   F     F_    0.799529 0.504885 0.667565 -0.564675
F11   F     F_    0.799245 0.505201 0.332755 -0.564862
F12   F     F_    0.201038 0.505548 0.333067 -0.566280
F13   F     F_    0.699360 0.003631 0.168851 -0.566398
F14   F     F_    0.298055 0.006493 0.165954 -0.564546
F15   F     F_    0.299085 0.005378 0.832932 -0.563627
F16   F     F_    0.701020 0.005528 0.833046 -0.565533
F17   F     F_    0.297044 0.416572 0.757235 -0.615605
F18   F     F_    0.701021 0.418682 0.755152 -0.613585
F19   F     F_    0.701294 0.418376 0.244539 -0.615582
F20   F     F_    0.298424 0.418043 0.244240 -0.615622
F21   F     F_    0.800062 0.919915 0.253887 -0.615288
F22   F     F_    0.202461 0.917110 0.256726 -0.614065
F23   F     F_    0.201449 0.918204 0.744366 -0.614692
F24   F     F_    0.798444 0.918064 0.744262 -0.615543
O77   O     O_3   0.800029 0.997702 0.331647 -0.685934
H25   H     H_    0.816366 0.967013 0.328333 0.403029
O78   O     O_3   0.202494 0.994908 0.334475 -0.685502
H26   H     H_    0.186985 0.963298 0.332094 0.403195
O79   O     O_3   0.201484 0.996000 0.666616 -0.686132
H27   H     H_    0.185643 0.964749 0.669356 0.403116
O80   O     O_3   0.798414 0.995855 0.666505 -0.686621
H28   H     H_    0.814219 0.964557 0.669211 0.402948
O81   O     O_3   0.297016 0.494366 0.834988 -0.685916
H29   H     H_    0.312362 0.462579 0.832774 0.403079
O82   O     O_3   0.701056 0.496478 0.832904 -0.685484
H30   H     H_    0.685075 0.465384 0.830005 0.403333
O83   O     O_3   0.701329 0.496172 0.166788 -0.686532
H31   H     H_    0.685438 0.464977 0.169584 0.402817
O84   O     O_3   0.298394 0.495833 0.166484 -0.686704
H32   H     H_    0.314193 0.464529 0.169182 0.402820
O85   O     O_3   0.959079 0.344680 0.507557 -0.692905
H33   H     H_    0.975380 0.375431 0.509972 0.409047
O86   O     O_3   0.036664 0.348273 0.507867 -0.712906
H34   H     H_    0.063718 0.343731 0.507568 0.363779
O87   O     O_3   0.459080 0.844864 0.004620 -0.692675
H35   H     H_    0.475381 0.875674 0.006097 0.409249
O88   O     O_3   0.536665 0.848465 0.004810 -0.712379
H36   H     H_    0.563719 0.843916 0.004627 0.363964
F25   F     F_    0.037948 0.160008 0.493134 -0.562370
F26   F     F_    0.962903 0.159209 0.493054 -0.566208
F27   F     F_    0.537948 0.659840 0.995803 -0.562618
F28   F     F_    0.462903 0.659038 0.995755 -0.566549

loop_
_geom_bond_atom_site_label_1
_geom_bond_atom_site_label_2
_geom_bond_distance
_ccdc_geom_bond_type
C37   C42   1.581920 S    
C33   C45   1.207021 T    
C39   C44   1.581230 S    
O78   H26   0.990425 S    
C15   C119  1.433755 S    
O83   H31   0.990424 S    
C63   C103  1.441018 S    
O26   C7    1.271726 A    
C53   F13   1.358880 S    
O30   C11   1.272554 A    
C77   O81   1.383113 S    
C80   O84   1.383111 S    
O76   H24   0.988424 S    
C30   F5    1.393411 S    
C94   O74   1.383211 S    
C30   C40   1.571347 S    
Zn12  O26   1.911387 S    
C36   C48   1.206917 T    
C136  C140  1.397278 A    
C92   O72   1.383211 S    
C9    C113  1.433744 S    
C130  O85   1.384353 S    
C3    C124  1.433862 S    
C79   C87   1.408809 A    
C4    C123  1.433874 S    
C25   O56   1.408287 S    
C75   C83   1.408810 A    
C131  C132  1.416118 A    
O63   H11   0.992991 S    
O11   C7    1.271774 A    
O34   C15   1.272554 A    
C66   C78   1.411444 A    
C131  O88   1.385191 S    
O66   H14   0.991605 S    
C49   F9    1.358879 S    
Zn1   O44   1.918204 S    
Zn2   O43   1.918196 S    
C44   O68   1.410509 S    
C101  C125  1.205276 T    
Zn5   O48   1.918204 S    
C85   C93   1.420387 A    
Zn6   O47   1.918196 S    
Zn7   O46   1.918204 S    
O55   H3    0.992456 S    
C34   C46   1.206971 T    
C8    C127  1.433874 S    
O16   C12   1.272125 A    
O84   H32   0.990424 S    
C78   C86   1.408808 A    
Zn16  O4    1.924543 S    
Zn12  O4    1.924264 S    
Zn1   O13   1.911429 S    
C54   C90   1.399820 A    
Zn3   O15   1.911512 S    
Zn4   O16   1.911426 S    
C138  F26   1.358362 S    
C95   O75   1.383210 S    
C104  C128  1.205275 T    
C65   C77   1.411438 A    
C62   C70   1.399626 A    
C107  C115  1.205405 T    
C108  C116  1.205399 T    
C137  C138  1.390741 A    
C50   C94   1.399822 A    
Zn16  O34   1.910301 S    
C99   C123  1.205283 T    
C100  C124  1.205275 T    
C40   C43   1.589360 S    
Zn10  O22   1.911387 S    
O25   C8    1.271799 A    
Zn13  O29   1.910364 S    
C88   C112  1.445364 S    
C55   C91   1.399819 A    
Zn10  O2    1.924264 S    
C56   C92   1.399817 A    
O29   C12   1.272484 A    
C55   F15   1.358880 S    
Zn15  O33   1.910364 S    
C68   F20   1.359455 S    
C27   O54   1.409032 S    
C29   C39   1.573035 S    
C61   C69   1.399625 A    
C58   C66   1.399628 A    
O37   C17   1.268606 A    
C64   C104  1.441005 S    
O48   C23   1.271168 A    
C90   O70   1.383210 S    
C42   O64   1.410769 S    
C43   O67   1.415071 S    
C79   O83   1.383111 S    
C43   C44   1.594341 S    
Zn16  O35   1.910308 S    
C106  C114  1.205404 T    
C29   C30   1.573711 S    
C56   F16   1.358880 S    
C44   O65   1.417139 S    
C30   O59   1.408771 S    
C31   C40   1.572799 S    
O65   H13   0.988199 S    
Zn7   O10   1.911492 S    
C40   C47   1.483766 S    
O71   H19   0.988425 S    
O40   C20   1.268371 A    
C56   C64   1.399046 A    
O69   H17   0.988426 S    
C71   C75   1.411445 A    
C89   O69   1.383210 S    
C31   C32   1.572254 S    
C93   O73   1.383214 S    
Zn5   O17   1.911429 S    
C130  C134  1.404975 A    
O57   H5    0.992512 S    
C7    C128  1.433863 S    
C143  C148  1.200496 T    
C41   O63   1.414323 S    
O59   H7    0.992551 S    
C129  O86   1.385190 S    
C135  C143  1.435965 S    
C54   F14   1.358879 S    
C133  C141  1.435965 S    
C52   F12   1.358879 S    
C29   O60   1.408497 S    
C85   C109  1.445365 S    
Zn8   O3    1.923565 S    
C38   C45   1.483567 S    
O38   C18   1.268373 A    
C75   O79   1.383109 S    
C32   F7    1.392371 S    
C87   C95   1.420389 A    
C26   F1    1.392411 S    
O5    C1    1.271865 A    
C10   C114  1.433756 S    
C83   C91   1.420389 A    
O32   C9    1.272479 A    
C57   C97   1.441005 S    
C18   C146  1.425357 S    
O79   H27   0.990424 S    
C27   C38   1.573413 S    
C137  F25   1.358689 S    
C144  C147  1.200354 T    
C132  C136  1.404973 A    
Zn15  O51   1.918719 S    
O77   H25   0.990422 S    
C140  F28   1.358363 S    
Zn11  O28   1.911326 S    
C68   C80   1.411438 A    
C96   O76   1.383211 S    
O85   H33   0.989351 S    
C67   C79   1.411443 A    
C50   F10   1.358881 S    
O8    C4    1.271859 A    
C86   C94   1.420387 A    
C1    C122  1.433875 S    
O50   C18   1.269155 A    
O74   H22   0.988423 S    
C142  C145  1.200355 T    
Zn1   O1    1.923550 S    
Zn13  O1    1.924266 S    
Zn2   O14   1.911508 S    
C76   C84   1.408806 A    
O49   C17   1.268942 A    
C11   C115  1.433757 S    
O9    C5    1.271865 A    
C12   C116  1.433744 S    
O39   C19   1.268604 A    
C129  C130  1.416118 A    
C39   C48   1.482800 S    
C63   C71   1.399627 A    
C52   C96   1.399817 A    
O13   C9    1.272120 A    
Zn1   O8    1.911575 S    
Zn2   O7    1.911489 S    
C133  C137  1.400189 A    
Zn3   O6    1.911492 S    
O18   C14   1.272215 A    
O31   C10   1.272560 A    
C5    C126  1.433874 S    
C49   C57   1.399045 A    
O6    C2    1.271771 A    
O70   H18   0.988424 S    
C38   C41   1.582520 S    
C51   C59   1.399051 A    
C28   C37   1.576638 S    
O60   H8    0.992769 S    
O72   H20   0.988424 S    
Zn14  O30   1.910301 S    
Zn15  O3    1.924266 S    
Zn11  O3    1.924541 S    
C66   F18   1.359456 S    
O41   C21   1.271274 A    
C14   C118  1.433756 S    
C59   C67   1.399627 A    
C132  O87   1.384352 S    
C60   C68   1.399627 A    
C111  C119  1.205405 T    
O62   H10   0.992673 S    
C109  C117  1.205396 T    
C29   F6    1.392230 S    
Zn8   O20   1.911426 S    
C112  C120  1.205399 T    
C31   F8    1.391993 S    
C97   C121  1.205275 T    
O58   H6    0.992962 S    
C6    C125  1.433863 S    
C105  C113  1.205396 T    
O75   H23   0.988424 S    
C131  C135  1.420601 A    
Zn8   O9    1.911571 S    
C32   O57   1.409208 S    
C87   C111  1.445378 S    
C83   C107  1.445376 S    
C139  C140  1.390741 A    
O7    C3    1.271776 A    
C67   F19   1.359457 S    
C70   C74   1.411444 A    
O80   H28   0.990427 S    
C102  C126  1.205284 T    
O19   C15   1.272211 A    
C78   O82   1.383110 S    
Zn9   O24   1.911326 S    
O86   H34   0.988213 S    
Zn10  O23   1.911379 S    
C35   C47   1.206986 T    
O82   H30   0.990425 S    
C91   O71   1.383210 S    
C27   F4    1.392035 S    
C71   F23   1.359457 S    
Zn15  O36   1.910360 S    
C72   F24   1.359457 S    
C73   O77   1.383110 S    
O42   C22   1.271235 A    
Zn4   O1    1.923565 S    
C103  C127  1.205281 T    
C86   C110  1.445378 S    
C16   C120  1.433744 S    
Zn9   O37   1.918643 S    
O12   C8    1.271859 A    
Zn11  O39   1.918643 S    
O33   C16   1.272484 A    
C69   C73   1.411440 A    
C82   C90   1.420390 A    
C55   C63   1.399048 A    
C72   C76   1.411438 A    
C53   C61   1.399048 A    
C58   C98   1.441019 S    
C52   C60   1.399047 A    
Zn5   O3    1.923550 S    
C64   C72   1.399627 A    
C28   F3    1.392391 S    
Zn6   O4    1.923567 S    
C141  C146  1.200497 T    
C28   O53   1.409222 S    
C74   C82   1.408807 A    
C41   C42   1.595695 S    
C42   O61   1.417387 S    
O67   H15   0.992086 S    
C62   C102  1.441015 S    
O28   C5    1.271804 A    
C51   F11   1.358881 S    
Zn3   O42   1.918204 S    
Zn6   O18   1.911508 S    
Zn7   O4    1.923548 S    
O21   C4    1.271799 A    
C19   C147  1.425426 S    
C80   C88   1.408808 A    
C81   C89   1.420389 A    
C2    C121  1.433861 S    
O88   H36   0.988213 S    
C84   C92   1.420390 A    
C25   C26   1.572195 S    
C21   C34   1.436521 S    
Zn2   O2    1.923567 S    
O81   H29   0.990426 S    
Zn14  O2    1.924543 S    
C110  C118  1.205403 T    
C27   C28   1.571779 S    
C23   C36   1.436428 S    
C73   C81   1.408804 A    
Zn13  O49   1.918719 S    
O87   H35   0.989349 S    
C139  F27   1.358688 S    
C61   C101  1.441006 S    
O61   H9    0.988173 S    
Zn12  O27   1.911379 S    
C41   O62   1.415164 S    
C76   O80   1.383110 S    
C43   O66   1.414597 S    
Zn3   O2    1.923548 S    
C24   C35   1.436370 S    
C25   C37   1.573652 S    
O54   H2    0.992973 S    
O46   C24   1.271244 A    
Zn4   O41   1.918196 S    
C129  C133  1.420601 A    
Zn16  O52   1.918580 S    
O73   H21   0.988422 S    
Zn8   O45   1.918196 S    
C77   C85   1.408806 A    
O27   C6    1.271719 A    
C53   C89   1.399818 A    
C136  C144  1.434381 S    
O36   C13   1.272479 A    
C134  C142  1.434378 S    
C13   C117  1.433745 S    
O24   C1    1.271804 A    
C37   C46   1.482839 S    
C51   C95   1.399819 A    
C49   C93   1.399817 A    
C135  C139  1.400188 A    
C25   F2    1.391891 S    
C98   C122  1.205282 T    
O43   C22   1.271204 A    
O14   C10   1.272215 A    
O47   C24   1.271147 A    
C22   C33   1.436462 S    
C17   C145  1.425427 S    
Zn5   O12   1.911575 S    
C31   O58   1.408765 S    
Zn6   O11   1.911489 S    
C69   F21   1.359456 S    
Zn9   O21   1.911324 S    
O53   H1    0.992511 S    
Zn14  O50   1.918580 S    
O35   C14   1.272560 A    
Zn12  O40   1.918779 S    
Zn9   O1    1.924541 S    
C82   C106  1.445377 S    
O52   C20   1.269157 A    
O68   H16   0.993541 S    
C57   C65   1.399628 A    
C74   O78   1.383112 S    
O44   C21   1.271176 A    
O22   C3    1.271726 A    
C26   C38   1.574692 S    
C32   C39   1.577094 S    
C20   C148  1.425355 S    
Zn7   O19   1.911512 S    
Zn13  O32   1.910360 S    
O64   H12   0.993266 S    
O15   C11   1.272211 A    
Zn14  O31   1.910308 S    
C70   F22   1.359457 S    
O51   C19   1.268944 A    
Zn4   O5    1.911571 S    
O20   C16   1.272125 A    
C65   F17   1.359456 S    
O10   C6    1.271771 A    
O23   C2    1.271719 A    
Zn11  O25   1.911324 S    
C81   C105  1.445366 S    
Zn10  O38   1.918779 S    
C84   C108  1.445366 S    
C88   C96   1.420390 A    
C59   C99   1.441016 S    
C134  C138  1.397279 A    
O56   H4    0.992971 S    
C60   C100  1.441007 S    
C50   C58   1.399048 A    
O17   C13   1.272120 A    
C54   C62   1.399052 A    
O45   C23   1.271231 A    
C26   O55   1.408756 S    
