data_mof_unit_28497.cif
_audit_creation_date              2012-12-10T16:57:46-0500
_audit_creation_method            fapswitch 2.2
_symmetry_space_group_name_H-M    P1
_symmetry_Int_Tables_number       1
_space_group_crystal_system       triclinic
_cell_length_a                    7.767234
_cell_length_b                    8.570525
_cell_length_c                    19.022351
_cell_angle_alpha                 90.830776
_cell_angle_beta                  86.335859
_cell_angle_gamma                 93.499201
_cell_volume                      1261.28810259

loop_
_atom_site_label
_atom_site_type_symbol
_atom_type_description
_atom_site_fract_x
_atom_site_fract_y
_atom_site_fract_z
_atom_type_partial_charge
C1    C     C_R   0.545669 0.794676 0.498167 0.953356
C2    C     C_R   0.454322 0.205319 0.501768 0.972104
C3    C     C_2   0.569775 0.958082 0.497055 -0.361352
C4    C     C_2   0.430200 0.041908 0.502771 -0.360900
C5    C     C_R   0.500766 0.494559 0.634918 0.908997
C6    C     C_R   0.497757 0.504229 0.365111 0.906853
C7    C     C_R   0.339845 0.482248 0.752444 0.401245
C8    C     C_R   0.634106 0.512681 0.241115 0.382587
C9    C     C_R   0.335766 0.521689 0.823143 -0.264829
C10   C     C_R   0.623610 0.554198 0.171344 -0.244916
C11   C     C_R   0.488490 0.549180 0.857111 0.007417
C12   C     C_R   0.472615 0.612479 0.148495 0.003773
C13   C     C_R   0.649416 0.528769 0.819993 0.128835
C14   C     C_R   0.330433 0.636594 0.196214 0.129253
C15   C     C_R   0.653424 0.510905 0.746426 -0.255078
C16   C     C_R   0.342750 0.597774 0.266529 -0.237133
C17   C     C_R   0.498873 0.493153 0.712013 -0.156739
C18   C     C_R   0.492293 0.534504 0.289637 -0.156180
C19   C     C_R   0.458695 0.620034 0.073264 0.296861
C20   C     C_R   0.472915 0.582533 0.932467 0.300710
H1    H     H_    0.212355 0.527779 0.852306 0.173008
H2    H     H_    0.730621 0.532430 0.133715 0.179280
H3    H     H_    0.776177 0.507037 0.716276 0.215521
H4    H     H_    0.234297 0.618119 0.303527 0.195181
H5    H     H_    0.701693 0.008877 0.491576 0.186559
H6    H     H_    0.298280 0.991114 0.508237 0.184625
H7    H     H_    0.013378 0.382742 0.447244 0.209986
H8    H     H_    0.986618 0.617239 0.552764 0.202914
N1    N     N_R   0.586637 0.684439 0.962946 -0.178909
N2    N     N_R   0.341848 0.521942 0.042703 -0.174394
N3    N     N_R   0.581084 0.701581 0.032516 -0.184761
N4    N     N_R   0.348319 0.504083 0.973320 -0.191671
N5    N     N_2   0.950330 0.457950 0.481240 -0.157551
N6    N     N_2   0.049670 0.542050 0.518760 -0.156815
O1    O     O_R   0.389250 0.738570 0.504600 -0.617410
O2    O     O_R   0.610750 0.261430 0.495400 -0.609067
O3    O     O_R   0.678400 0.711620 0.492580 -0.632574
O4    O     O_R   0.321600 0.288380 0.507420 -0.617100
O5    O     O_R   0.355380 0.513500 0.607880 -0.554028
O6    O     O_R   0.644620 0.486500 0.392120 -0.555162
O7    O     O_R   0.644530 0.486550 0.595850 -0.628135
O8    O     O_R   0.355470 0.513450 0.404150 -0.640461
Zn1   Zn    Zn3+2 0.306930 0.517990 0.508030 0.990898
Zn2   Zn    Zn3+2 0.693070 0.482010 0.491970 0.993191
Cl1   Cl    Cl    0.143893 0.408436 0.718805 -0.669315
Cl2   Cl    Cl    0.823323 0.425152 0.262782 -0.661482
C21   C     C_3   0.812442 0.508298 0.857744 -0.409490
C22   C     C_3   0.797079 0.353755 0.898643 -0.324987
C23   C     C_3   0.959503 0.327116 0.936635 -0.821643
H9    H     H_    0.068335 0.304527 0.897955 0.278289
H10   H     H_    0.993840 0.430003 0.970207 0.271365
H11   H     H_    0.935990 0.223092 0.970844 0.251767
H12   H     H_    0.686697 0.353305 0.938659 0.230764
H13   H     H_    0.773086 0.254393 0.861589 0.244560
H14   H     H_    0.924238 0.505920 0.819181 0.246561
H15   H     H_    0.841816 0.609231 0.892893 0.211877
C24   C     C_3   0.165170 0.702009 0.173900 -0.395170
C25   C     C_3   0.194060 0.873923 0.152421 -0.372210
C26   C     C_3   0.026484 0.938650 0.130953 -0.800893
H16   H     H_    0.977003 0.871488 0.085292 0.260368
H17   H     H_    0.926910 0.931721 0.175584 0.271884
H18   H     H_    0.050928 0.062993 0.115680 0.262392
H19   H     H_    0.242319 0.944350 0.197435 0.239833
H20   H     H_    0.291949 0.886313 0.107382 0.235636
H21   H     H_    0.112955 0.630697 0.130063 0.224089
H22   H     H_    0.063820 0.694460 0.217917 0.237816

loop_
_geom_bond_atom_site_label_1
_geom_bond_atom_site_label_2
_ccdc_geom_bond_type
C16   H4    S    
C2    C4    S    
C14   C24   S    
C15   C17   A    
N2    N4    A    
O1    Zn1   S    
C6    O6    A    
C2    O4    A    
O6    Zn2   S    
C4    H6    S    
C21   C22   S    
C1    O3    A    
C24   H22   S    
C23   H11   S    
C19   N3    A    
C13   C21   S    
O3    Zn2   S    
C15   H3    S    
N5    N6    D    
H8    N6    S    
O4    Zn1   S    
N1    N3    A    
C10   H2    S    
C22   H13   S    
C9    C11   A    
C9    H1    S    
C24   C25   S    
C10   C12   A    
C7    Cl1   S    
C12   C19   S    
C16   C18   A    
C22   C23   S    
C12   C14   A    
C14   C16   A    
C20   N1    A    
C13   C15   A    
C25   H20   S    
C22   H12   S    
C6    C18   S    
O7    Zn2   S    
C8    Cl2   S    
C11   C20   S    
O2    Zn2   S    
C11   C13   A    
C5    C17   S    
O8    Zn1   S    
C8    C18   A    
N5    Zn2   S    
C3    C4    D    
C26   H16   S    
C3    H5    S    
C1    O1    A    
C21   H14   S    
C23   H9    S    
C20   N4    A    
C26   H17   S    
C2    O2    A    
C25   H19   S    
C7    C9    A    
C5    O5    A    
C5    O7    A    
C26   H18   S    
O5    Zn1   S    
C1    C3    S    
C25   C26   S    
C19   N2    A    
C6    O8    A    
C8    C10   A    
H7    N5    S    
N6    Zn1   S    
C24   H21   S    
C21   H15   S    
C23   H10   S    
C7    C17   A    
