data_mof_unit_32006.cif
_audit_creation_date              2013-03-05T16:11:15-0500
_audit_creation_method            fapswitch 2.2
_symmetry_space_group_name_H-M    P1
_symmetry_Int_Tables_number       1
_space_group_crystal_system       triclinic
_cell_length_a                    6.94999
_cell_length_b                    20.523549
_cell_length_c                    24.500189
_cell_angle_alpha                 90.092282
_cell_angle_beta                  90.745764
_cell_angle_gamma                 89.780311
_cell_volume                      3494.34326854

loop_
_atom_site_label
_atom_site_type_symbol
_atom_site_description
_atom_site_fract_x
_atom_site_fract_y
_atom_site_fract_z
_atom_type_partial_charge
O1    O     O_R   0.507280 0.423750 0.460310 -0.586851
O2    O     O_R   0.171030 0.555650 0.437630 -0.588760
O3    O     O_R   0.004080 0.576250 0.539690 -0.595218
C1    C     C_R   0.339039 0.575716 0.421795 0.975090
O4    O     O_R   0.177330 0.422980 0.453960 -0.589495
O5    O     O_R   0.010420 0.442640 0.556140 -0.589339
C2    C     C_R   0.345566 0.399135 0.443056 0.927954
O6    O     O_R   0.500930 0.557360 0.443860 -0.587513
O7    O     O_3   0.340310 0.506600 0.533500 -0.276867
V1    V     V_3+5 0.064140 0.498780 0.493780 1.154422
O8    O     O_R   0.680890 0.444350 0.562370 -0.591213
C3    C     C_R   0.850653 0.424538 0.578239 0.975704
O9    O     O_R   0.674590 0.577020 0.546040 -0.595415
C4    C     C_R   0.843865 0.600419 0.557413 0.925329
V2    V     V_3+5 0.564550 0.501220 0.506220 1.146406
O10   O     O_3   0.838250 0.493400 0.466500 -0.266614
C5    C     C_R   0.965792 0.838532 0.911060 -0.091717
C6    C     C_R   0.851624 0.660869 0.590348 -0.151395
C7    C     C_R   0.901341 0.722906 0.908189 -0.175530
C8    C     C_R   0.933969 0.779721 0.937924 -0.162672
C9    C     C_R   0.965770 0.840242 0.853691 -0.253688
C10   C     C_R   0.928197 0.783134 0.822246 0.127733
C11   C     C_R   0.896272 0.724120 0.850922 0.179504
C12   C     C_R   0.915202 0.782577 0.763671 0.044061
C13   C     C_R   0.891096 0.722287 0.735304 0.065751
C14   C     C_R   0.843508 0.666730 0.765783 -0.218506
C15   C     C_R   0.850422 0.667223 0.822418 -0.228129
C16   C     C_R   0.912566 0.840385 0.732792 -0.274315
C17   C     C_R   0.872469 0.840156 0.676559 0.112816
C18   C     C_R   0.853642 0.779895 0.648607 0.103245
C19   C     C_R   0.889551 0.720603 0.676951 0.037487
C20   C     C_R   0.797729 0.777227 0.593175 -0.199365
C21   C     C_R   0.785911 0.718097 0.565732 -0.195691
C22   C     C_R   0.918887 0.662347 0.645396 0.047851
H1    H     H_    0.816071 0.622869 0.844132 0.139709
H2    H     H_    0.735236 0.717561 0.523702 0.121913
H3    H     H_    0.875431 0.678021 0.930109 0.123474
H4    H     H_    0.931513 0.778030 0.982112 0.111178
H5    H     H_    0.993303 0.886797 0.835134 0.100174
H6    H     H_    0.792500 0.622795 0.745923 0.139880
H7    H     H_    0.928633 0.887219 0.752115 0.133144
H8    H     H_    0.757853 0.820382 0.570487 0.131513
H9    H     H_    0.619362 0.211083 0.796733 0.133135
C23   C     C_R   0.730244 0.272676 0.733453 -0.182962
H10   H     H_    0.588497 0.289365 0.720821 0.120316
C24   C     C_R   0.894424 0.295478 0.706780 0.183275
C25   C     C_R   0.076415 0.272958 0.723994 -0.177393
H11   H     H_    0.204897 0.289878 0.703948 0.119082
C26   C     C_R   0.094012 0.228298 0.767231 -0.166612
H12   H     H_    0.235753 0.211582 0.779843 0.124268
C27   C     C_R   0.929829 0.205470 0.793884 0.171325
C28   C     C_R   0.747843 0.228021 0.776696 -0.148467
C29   C     C_1   0.876542 0.341455 0.661720 -0.027599
C30   C     C_1   0.947697 0.159290 0.838794 0.008690
C31   C     C_1   0.960930 0.120945 0.876471 -0.227106
C32   C     C_1   0.863339 0.379549 0.623862 -0.296916
H13   H     H_    0.699141 0.702302 0.296382 0.119965
C33   C     C_R   0.596881 0.767415 0.233382 -0.179924
H14   H     H_    0.740862 0.780178 0.220919 0.117790
C34   C     C_R   0.436161 0.795072 0.206709 0.183946
C35   C     C_R   0.251232 0.777424 0.223840 -0.178161
H15   H     H_    0.125100 0.798051 0.203878 0.119593
C36   C     C_R   0.227362 0.732944 0.266882 -0.179823
H16   H     H_    0.083380 0.720173 0.279340 0.117979
C37   C     C_R   0.388081 0.705281 0.293550 0.183513
C38   C     C_R   0.573011 0.722935 0.276425 -0.178640
C39   C     C_1   0.459960 0.841047 0.161787 -0.033936
C40   C     C_1   0.364280 0.659261 0.338440 -0.031729
C41   C     C_1   0.348906 0.621032 0.376169 -0.294240
C42   C     C_1   0.475333 0.879217 0.124015 -0.287896
C43   C     C_R   0.475846 0.163069 0.087734 -0.277448
C44   C     C_R   0.349252 0.338605 0.410392 -0.103742
C45   C     C_R   0.561454 0.277043 0.096064 -0.277036
C46   C     C_R   0.542753 0.221060 0.063736 0.362835
C47   C     C_R   0.426827 0.162634 0.143371 -0.292370
C48   C     C_R   0.446468 0.219278 0.176711 0.131641
C49   C     C_R   0.515359 0.276610 0.151616 0.126007
C50   C     C_R   0.403293 0.220981 0.234015 0.072126
C51   C     C_R   0.429448 0.280157 0.264762 0.057453
C52   C     C_R   0.498601 0.335457 0.237249 -0.202183
C53   C     C_R   0.539950 0.333560 0.182015 -0.190720
C54   C     C_R   0.335183 0.165561 0.261632 -0.198717
C55   C     C_R   0.293475 0.167467 0.316867 -0.239083
C56   C     C_R   0.316149 0.224584 0.347112 0.184238
C57   C     C_R   0.384856 0.282062 0.321936 0.109785
C58   C     C_R   0.267223 0.224560 0.402510 -0.177248
C59   C     C_R   0.281681 0.281155 0.433599 -0.159537
C60   C     C_R   0.402171 0.339088 0.355104 -0.244278
H17   H     H_    0.593050 0.377436 0.162853 0.136512
H18   H     H_    0.449908 0.385035 0.339102 0.104797
H19   H     H_    0.238168 0.280319 0.475904 0.111696
H20   H     H_    0.240863 0.123567 0.336098 0.133798
H21   H     H_    0.612547 0.321616 0.077605 0.170169
H22   H     H_    0.379714 0.116710 0.159570 0.119075
H23   H     H_    0.523364 0.381414 0.257304 0.131607
H24   H     H_    0.311523 0.119483 0.241674 0.131755
H25   H     H_    0.214017 0.180728 0.421678 0.117822
O11   O     O_R   0.323320 0.942780 0.056240 -0.594720
O12   O     O_R   0.647300 0.077050 0.046060 -0.590150
O13   O     O_R   0.813840 0.057330 0.943840 -0.568193
C61   C     C_R   0.479194 0.101114 0.056790 1.038979
O14   O     O_R   0.653250 0.944380 0.062400 -0.596714
O15   O     O_R   0.819830 0.923720 0.960300 -0.594012
C62   C     C_R   0.485212 0.924438 0.078321 0.961584
O16   O     O_R   0.317330 0.076390 0.039790 -0.577971
O17   O     O_3   0.483830 0.993470 0.966560 -0.268116
V3    V     V_3+5 0.760140 0.001210 0.006210 1.193216
O18   O     O_R   0.149290 0.922840 0.953850 -0.596344
C63   C     C_R   0.979862 0.898972 0.943316 0.912363
O19   O     O_R   0.143340 0.055500 0.937510 -0.581276
C64   C     C_R   0.973625 0.075615 0.921859 0.999010
V4    V     V_3+5 0.259690 0.998600 0.993650 1.194968
O20   O     O_3   0.986130 0.006520 0.033440 -0.278951
C65   C     C_3   0.059085 0.609277 0.664447 -0.472177
C66   C     C_3   0.263863 0.624494 0.645458 -0.184495
C67   C     C_3   0.406978 0.572813 0.665342 -0.865067
H26   H     H_    0.408738 0.570456 0.710638 0.243846
H27   H     H_    0.368007 0.524289 0.648488 0.268767
H28   H     H_    0.553713 0.585420 0.651740 0.238542
H29   H     H_    0.268550 0.627071 0.600244 0.219381
H30   H     H_    0.309203 0.672629 0.662005 0.188654
H31   H     H_    0.068651 0.604365 0.709125 0.205495
H32   H     H_    0.012688 0.560859 0.648918 0.176011
N1    N     N_R   0.593223 0.223995 0.006889 0.229195
O21   O     O_R   0.501691 0.189108 0.970615 -0.409030
O22   O     O_R   0.718947 0.266195 0.990347 -0.393837
C68   C     C_3   0.856448 0.905531 0.647776 -0.425573
C69   C     C_3   0.036078 0.919065 0.613867 -0.238349
C70   C     C_3   0.021893 0.985149 0.585630 -0.930554
H33   H     H_    0.894213 0.986682 0.557888 0.262024
H34   H     H_    0.010248 0.024791 0.616359 0.263436
H35   H     H_    0.153018 0.993369 0.561188 0.249208
H36   H     H_    0.165606 0.918647 0.641008 0.198858
H37   H     H_    0.055020 0.880748 0.582319 0.197504
H38   H     H_    0.723712 0.907657 0.622127 0.179338
H39   H     H_    0.840890 0.945609 0.678047 0.188677

loop_
_geom_bond_atom_site_label_1
_geom_bond_atom_site_label_2
_geom_bond_distance
_ccdc_geom_bond_type
C13   C19   1.429923 A    
C46   N1    1.442073 S    
C36   C37   1.405077 A    
C66   H30   1.112363 S    
C59   H19   1.083644 S    
C45   C46   1.399955 A    
C4    C6    1.479647 S    
C7    C11   1.403293 A    
C7    C8    1.391689 A    
C68   H39   1.112553 S    
C45   H21   1.084213 S    
H13   C38   1.083292 S    
C1    O6    1.296800 A    
C69   C70   1.525777 S    
C21   H2    1.084001 S    
C65   C66   1.536436 S    
C25   C26   1.405745 A    
O17   V4    1.704017 S    
O18   C63   1.299701 A    
C55   H20   1.084376 S    
C14   C15   1.387816 A    
C16   C17   1.402081 A    
C48   C50   1.439840 A    
O5    C3    1.297529 A    
C18   C19   1.421685 A    
C42   C62   1.457820 S    
H9    C28   1.083289 S    
C29   C32   1.216365 T    
O17   V3    2.147078 S    
C33   C34   1.405080 A    
C66   C67   1.527299 S    
C16   H7    1.076313 S    
C5    C8    1.395492 A    
C67   H26   1.110815 S    
C35   C36   1.407754 A    
C58   H25   1.083978 S    
O19   C64   1.301435 A    
V4    O20   2.153337 S    
C7    H3    1.083910 S    
C30   C31   1.216337 T    
O8    V2    1.969151 S    
C56   C57   1.419291 A    
C33   C38   1.407757 A    
V3    O20   1.702243 S    
C25   H11   1.083276 S    
C34   C39   1.462289 S    
C40   C41   1.219440 T    
C26   C27   1.404438 A    
O1    V2    1.984694 S    
C11   C15   1.395447 A    
O7    V1    2.147097 S    
C70   H35   1.110524 S    
C53   H17   1.084395 S    
C23   C28   1.405791 A    
C43   C61   1.479598 S    
O1    C2    1.299376 A    
O9    C4    1.299112 A    
C1    C41   1.457771 S    
C44   C60   1.408280 A    
C23   C24   1.404478 A    
C61   O16   1.299228 A    
C43   C47   1.409388 A    
O11   V4    1.960527 S    
C27   C28   1.404827 A    
C54   H24   1.076126 S    
C12   C13   1.427578 A    
C2    C44   1.476978 S    
O4    C2    1.296655 A    
C50   C51   1.438977 A    
C15   H1    1.084052 S    
C13   C14   1.406815 A    
C5    C9    1.406044 A    
O18   V4    1.985430 S    
C34   C35   1.406171 A    
O2    C1    1.303665 A    
C47   C48   1.425684 A    
C17   C18   1.418412 A    
C69   H37   1.110445 S    
C8    H4    1.083585 S    
C50   C54   1.410879 A    
C55   C56   1.394161 A    
C9    H5    1.077653 S    
C49   C53   1.394778 A    
C37   C40   1.462278 S    
C19   C22   1.438072 A    
O14   V3    1.961097 S    
C48   C49   1.416364 A    
C52   H23   1.076198 S    
O14   C62   1.303687 A    
C6    C22   1.421955 A    
C3    C32   1.452542 S    
O3    C4    1.296971 A    
C65   H32   1.110959 S    
O12   C61   1.296607 A    
O16   V4    1.993634 S    
C60   H18   1.077027 S    
C66   H29   1.109998 S    
O6    V2    1.959974 S    
C17   C68   1.519788 S    
C26   H12   1.083247 S    
C10   C12   1.436796 A    
C51   C52   1.410169 A    
C68   C69   1.535029 S    
O2    V1    1.960897 S    
C51   C57   1.439015 A    
C44   C59   1.395502 A    
C23   H10   1.083241 S    
N1    O22   1.301549 A    
C70   H33   1.111103 S    
C57   C60   1.428321 A    
C24   C25   1.404830 A    
O13   V3    1.955689 S    
C20   H8    1.079774 S    
C31   C64   1.452580 S    
C58   C59   1.391205 A    
C12   C16   1.408058 A    
C56   C58   1.403491 A    
C52   C53   1.387540 A    
C5    C63   1.472608 S    
O5    V1    1.955766 S    
C43   C46   1.411421 A    
O8    C3    1.301318 A    
C22   C65   1.528164 S    
O12   V3    1.999159 S    
C67   H28   1.108667 S    
O15   C63   1.294285 A    
C27   C30   1.457150 S    
C20   C21   1.388599 A    
C39   C42   1.219454 T    
O9    V2    1.985358 S    
C33   H14   1.083242 S    
O4    V1    1.999123 S    
O3    V1    1.992175 S    
V1    O10   1.702167 S    
C69   H36   1.112217 S    
C18   C20   1.408770 A    
C14   H6    1.082608 S    
O11   C62   1.296878 A    
C24   C29   1.457220 S    
C67   H27   1.110625 S    
C37   C38   1.406168 A    
O7    V2    1.706833 S    
C35   H15   1.083292 S    
C68   H38   1.110176 S    
C6    C21   1.393853 A    
O19   V4    1.969373 S    
C36   H16   1.083243 S    
C65   H31   1.100536 S    
O13   C64   1.297498 A    
C54   C55   1.388091 A    
C45   C49   1.402331 A    
C10   C11   1.420793 A    
O15   V3    1.991956 S    
C9    C10   1.424653 A    
V2    O10   2.153258 S    
C47   H22   1.077049 S    
N1    O21   1.301492 A    
C70   H34   1.111022 S    
