data_mof_unit_12720.cif
_audit_creation_date              2013-03-05T16:02:45-0500
_audit_creation_method            fapswitch 2.2
_symmetry_space_group_name_H-M    P1
_symmetry_Int_Tables_number       1
_space_group_crystal_system       triclinic
_cell_length_a                    23.608241
_cell_length_b                    11.711018
_cell_length_c                    10.446757
_cell_angle_alpha                 89.989003
_cell_angle_beta                  90.009721
_cell_angle_gamma                 89.963261
_cell_volume                      2888.28249187

loop_
_atom_site_label
_atom_site_type_symbol
_atom_site_description
_atom_site_fract_x
_atom_site_fract_y
_atom_site_fract_z
_atom_type_partial_charge
O1    O     O_R   0.500000 0.337200 0.605810 -0.568478
O2    O     O_R   0.500000 0.662800 0.394190 -0.572470
O3    O     O_R   0.500000 0.662800 0.605810 -0.568389
O4    O     O_R   0.500000 0.337200 0.394190 -0.572577
C1    C     C_R   0.499993 0.283290 0.500008 0.820650
C2    C     C_R   0.500007 0.716709 0.499988 0.820849
O5    O     O_R   0.417880 0.500000 0.605840 -0.576991
O6    O     O_R   0.582120 0.500000 0.394160 -0.569310
O7    O     O_R   0.582120 0.500000 0.605840 -0.576968
O8    O     O_R   0.417880 0.500000 0.394160 -0.569202
C3    C     C_R   0.390516 0.504017 0.500028 0.861572
C4    C     C_R   0.609479 0.495853 0.500051 0.861546
Cu1   Cu    Cu3+1 0.500000 0.500000 0.625300 0.969890
Cu2   Cu    Cu3+1 0.500000 0.500000 0.374700 0.977889
C5    C     C_R   0.879401 0.591889 0.473064 0.653769
C6    C     C_R   0.120576 0.406199 0.473327 0.654270
C7    C     C_R   0.882100 0.392077 0.512378 0.539180
C8    C     C_R   0.117904 0.606187 0.511418 0.538241
N1    N     N_R   0.852527 0.489929 0.488793 -0.414927
N2    N     N_R   0.147462 0.508213 0.488428 -0.415240
C9    C     C_R   0.941751 0.390458 0.500609 -0.056621
C10   C     C_R   0.058244 0.607757 0.499826 -0.056738
C11   C     C_R   0.938548 0.599982 0.490867 -0.084115
C12   C     C_R   0.061440 0.398189 0.491307 -0.084472
C13   C     C_R   0.970140 0.497126 0.494960 -0.096188
C14   C     C_R   0.029852 0.501066 0.494880 -0.095881
C15   C     C_R   0.973544 0.287037 0.499146 0.172342
C16   C     C_R   0.026446 0.711173 0.497836 0.171908
C17   C     C_R   0.966617 0.706686 0.503438 0.158335
C18   C     C_R   0.033376 0.291541 0.504560 0.157969
O9    O     O_2   0.848714 0.684112 0.438603 -0.523976
O10   O     O_2   0.151238 0.313838 0.439302 -0.523316
O11   O     O_2   0.853741 0.298640 0.551912 -0.592403
O12   O     O_2   0.146303 0.699832 0.550152 -0.591813
C19   C     C_R   0.238849 0.562350 0.391922 0.423515
C20   C     C_R   0.761054 0.436007 0.392386 0.422480
C21   C     C_R   0.236547 0.460658 0.595671 0.414264
C22   C     C_R   0.763519 0.537700 0.596085 0.414419
C23   C     C_R   0.298428 0.571038 0.400960 0.006730
C24   C     C_R   0.701453 0.427932 0.401257 0.006969
C25   C     C_R   0.296008 0.453253 0.596202 -0.011304
C26   C     C_R   0.704076 0.545783 0.596388 -0.011429
C27   C     C_R   0.327648 0.511003 0.500000 -0.173883
C28   C     C_R   0.672334 0.488376 0.500102 -0.173845
C29   C     C_R   0.208349 0.510727 0.491733 0.126571
C30   C     C_R   0.791641 0.487477 0.492181 0.126126
C31   C     C_1   0.500003 0.161960 0.500012 -0.177528
C32   C     C_1   0.499997 0.838040 0.499965 -0.177555
C33   C     C_1   0.500003 0.059717 0.499993 0.007505
C34   C     C_1   0.499997 0.940283 0.499968 0.007513
N3    N     N_1   0.500000 0.500000 0.186410 -0.140704
N4    N     N_1   0.500000 0.500000 0.813590 -0.143945
C35   C     C_1   0.500000 0.500000 0.072000 0.088369
C36   C     C_1   0.500000 0.500000 0.927999 0.077861
C37   C     C_3   0.944740 0.172017 0.481110 -0.782981
H1    H     H_    0.973580 0.106953 0.439738 0.209162
H2    H     H_    0.928402 0.140172 0.574135 0.258765
H3    H     H_    0.909833 0.178373 0.410614 0.247809
C38   C     C_3   0.055232 0.826125 0.479082 -0.782861
H4    H     H_    0.026348 0.891043 0.437523 0.209198
H5    H     H_    0.071668 0.858313 0.571867 0.258827
H6    H     H_    0.090063 0.819533 0.408448 0.247913
C39   C     C_3   0.933683 0.813836 0.538538 -0.761969
H7    H     H_    0.959883 0.875470 0.593304 0.209328
H8    H     H_    0.917455 0.856212 0.450803 0.253563
H9    H     H_    0.898191 0.793100 0.604269 0.263166
C40   C     C_3   0.066331 0.184531 0.540167 -0.761957
H10   H     H_    0.040162 0.123102 0.595310 0.209335
H11   H     H_    0.082511 0.141813 0.452623 0.253715
H12   H     H_    0.101860 0.205533 0.605718 0.263197
O13   O     O_3   0.211410 0.581313 0.276131 -0.561885
C41   C     C_3   0.198093 0.697936 0.258197 0.074572
H13   H     H_    0.229827 0.737079 0.193356 0.154911
H14   H     H_    0.196805 0.748423 0.348416 0.174499
C42   C     C_3   0.140997 0.707212 0.191242 -0.784108
H15   H     H_    0.129083 0.798430 0.180313 0.202915
H16   H     H_    0.143458 0.667814 0.094779 0.243396
H17   H     H_    0.107796 0.662702 0.247326 0.249738
O14   O     O_3   0.788495 0.416161 0.276791 -0.561876
C43   C     C_3   0.801789 0.299359 0.260160 0.074332
H18   H     H_    0.769950 0.259499 0.196109 0.154595
H19   H     H_    0.803225 0.249739 0.351002 0.174599
C44   C     C_3   0.858780 0.289455 0.192862 -0.782615
H20   H     H_    0.871177 0.198138 0.185344 0.202478
H21   H     H_    0.855838 0.325792 0.094785 0.242213
H22   H     H_    0.891878 0.336479 0.246877 0.250474
O15   O     O_3   0.204932 0.407056 0.689592 -0.564187
C45   C     C_3   0.196218 0.484431 0.791242 0.033631
H23   H     H_    0.173879 0.562722 0.757833 0.173916
H24   H     H_    0.237225 0.509097 0.836157 0.157413
C46   C     C_3   0.159624 0.427369 0.892455 -0.737256
H25   H     H_    0.180926 0.349157 0.928603 0.257390
H26   H     H_    0.152697 0.486754 0.973729 0.215312
H27   H     H_    0.117937 0.403771 0.850802 0.242964
O16   O     O_3   0.795244 0.590576 0.690348 -0.564448
C47   C     C_3   0.803383 0.512881 0.791996 0.033993
H28   H     H_    0.825079 0.433821 0.758582 0.174482
H29   H     H_    0.762177 0.489555 0.836949 0.157310
C48   C     C_3   0.840488 0.568693 0.893205 -0.736473
H30   H     H_    0.819859 0.647662 0.929363 0.257335
H31   H     H_    0.846918 0.509032 0.974485 0.215816
H32   H     H_    0.882383 0.590841 0.851533 0.242803
C49   C     C_3   0.328647 0.648184 0.306645 -0.767161
H33   H     H_    0.309146 0.734168 0.309050 0.193732
H34   H     H_    0.373360 0.665665 0.330431 0.235153
H35   H     H_    0.325840 0.612219 0.208529 0.248881
C50   C     C_3   0.671128 0.350871 0.307025 -0.766811
H36   H     H_    0.690297 0.264567 0.310217 0.193683
H37   H     H_    0.626279 0.334215 0.330278 0.235311
H38   H     H_    0.674324 0.386344 0.208697 0.249003
C51   C     C_3   0.324692 0.380342 0.697163 -0.731180
H39   H     H_    0.294433 0.326930 0.751962 0.256559
H40   H     H_    0.355026 0.320465 0.651324 0.222566
H41   H     H_    0.347143 0.435629 0.766915 0.229940
C52   C     C_3   0.675536 0.619047 0.697183 -0.731648
H42   H     H_    0.705917 0.672240 0.751914 0.256539
H43   H     H_    0.645344 0.679156 0.651199 0.222564
H44   H     H_    0.652947 0.564033 0.766990 0.229960

loop_
_geom_bond_atom_site_label_1
_geom_bond_atom_site_label_2
_geom_bond_distance
_ccdc_geom_bond_type
O15   C45   1.411124 S    
C39   H8    1.110224 S    
O16   C47   1.411300 S    
C50   H37   1.103826 S    
C51   H39   1.108999 S    
C37   H1    1.109295 S    
O3    C2    1.272960 A    
C17   C39   1.520734 S    
N1    C30   1.438146 S    
C31   C33   1.197366 T    
C35   C36   1.504351 S    
C5    N1    1.362434 A    
C1    C31   1.420901 S    
C2    C32   1.420905 S    
O1    C1    1.272996 A    
C11   C17   1.420914 A    
C16   C17   1.414687 A    
C12   C14   1.417008 A    
C22   C26   1.406480 A    
C41   C42   1.522310 S    
C15   C37   1.521036 S    
C52   H42   1.109048 S    
C47   C48   1.520913 S    
O7    Cu1   1.949373 S    
C51   H40   1.110609 S    
C44   H20   1.111357 S    
C52   H43   1.110626 S    
C47   H29   1.114424 S    
C22   O16   1.383726 S    
C50   H36   1.107628 S    
C20   C30   1.404341 A    
C51   H41   1.109772 S    
N2    C29   1.438178 S    
O3    Cu1   1.917356 S    
C6    N2    1.362375 A    
C41   H13   1.109383 S    
C5    C11   1.411901 A    
C9    C15   1.424568 A    
C39   H9    1.110392 S    
C19   O13   1.389821 S    
C38   H4    1.109302 S    
C6    C12   1.411879 A    
C10   C16   1.424624 A    
Cu1   Cu2   2.617957 S    
C15   C18   1.414671 A    
C21   C25   1.406400 A    
C25   C27   1.423373 A    
O2    C2    1.272961 A    
C7    O11   1.347973 S    
C43   C44   1.522527 S    
O7    C4    1.281065 A    
N4    C36   1.195201 T    
O5    C3    1.281068 A    
C38   H5    1.110146 S    
C40   H10   1.109761 S    
C20   C24   1.413380 A    
C41   H14   1.113107 S    
O8    Cu2   1.949375 S    
C46   H25   1.110704 S    
C43   H18   1.109527 S    
C23   C27   1.428123 A    
C13   C14   1.410492 A    
C7    C9    1.413727 A    
C39   H7    1.109736 S    
C40   H11   1.110235 S    
C19   C23   1.413436 A    
C42   H15   1.110349 S    
C46   H26   1.109693 S    
Cu1   N4    1.967021 S    
C42   H16   1.109922 S    
Cu2   N3    1.967020 S    
C45   C46   1.520436 S    
O5    Cu1   1.949306 S    
O6    C4    1.281781 A    
C52   H44   1.109811 S    
C47   H28   1.114008 S    
C48   H32   1.111504 S    
C49   H34   1.103693 S    
C3    C27   1.486406 S    
C8    O12   1.347944 S    
C24   C50   1.515582 S    
C43   H19   1.113184 S    
C48   H31   1.109868 S    
C45   H24   1.114038 S    
C37   H2    1.110155 S    
C25   C51   1.516169 S    
C50   H38   1.110555 S    
O1    Cu1   1.917434 S    
C21   C29   1.401777 A    
C19   C29   1.404187 A    
C16   C38   1.521049 S    
C9    C13   1.419221 A    
C38   H6    1.107607 S    
O6    Cu2   1.949304 S    
C44   H21   1.111510 S    
C8    C10   1.413755 A    
C21   O15   1.383635 S    
C18   C40   1.520738 S    
O4    C1    1.272926 A    
C20   O14   1.390024 S    
C5    O9    1.348949 S    
C6    O10   1.348904 S    
C48   H30   1.111197 S    
C40   H12   1.110453 S    
C26   C28   1.423376 A    
O13   C41   1.413720 S    
C4    C28   1.486407 S    
C46   H27   1.111100 S    
C32   C34   1.197367 T    
C7    N1    1.363884 A    
C49   H35   1.110220 S    
C8    N2    1.363901 A    
C11   C13   1.416986 A    
O4    Cu2   1.917356 S    
O2    Cu2   1.917434 S    
C42   H17   1.109032 S    
C12   C18   1.420931 A    
C22   C30   1.401758 A    
O8    C3    1.281787 A    
O14   C43   1.413975 S    
C26   C52   1.516165 S    
C24   C28   1.428226 A    
C44   H22   1.110312 S    
C45   H23   1.113458 S    
C33   C34   1.398700 S    
C10   C14   1.419222 A    
C37   H3    1.107579 S    
C49   H33   1.107236 S    
C23   C49   1.515493 S    
N3    C35   1.195207 T    
