data_mof_unit_11575.cif
_audit_creation_date              2013-03-05T15:57:38-0500
_audit_creation_method            fapswitch 2.2
_symmetry_space_group_name_H-M    P1
_symmetry_Int_Tables_number       1
_space_group_crystal_system       triclinic
_cell_length_a                    15.014883
_cell_length_b                    13.88561
_cell_length_c                    11.663733
_cell_angle_alpha                 90.705957
_cell_angle_beta                  87.773231
_cell_angle_gamma                 89.499192
_cell_volume                      2429.65694799

loop_
_atom_site_label
_atom_site_type_symbol
_atom_site_description
_atom_site_fract_x
_atom_site_fract_y
_atom_site_fract_z
_atom_type_partial_charge
O1    O     O_R   0.370260 0.582280 0.500020 -0.572366
O2    O     O_R   0.629740 0.417720 0.499980 -0.575321
O3    O     O_R   0.629740 0.582280 0.499980 -0.555983
O4    O     O_R   0.370260 0.417720 0.500020 -0.574437
C1    C     C_R   0.328875 0.500089 0.499516 0.768578
C2    C     C_R   0.670825 0.499544 0.498348 0.787604
O5    O     O_R   0.500010 0.582270 0.337200 -0.567976
O6    O     O_R   0.499990 0.417730 0.662800 -0.545582
O7    O     O_R   0.499990 0.582270 0.662800 -0.556879
O8    O     O_R   0.500010 0.417730 0.337200 -0.549341
C3    C     C_R   0.500197 0.499572 0.284218 0.822893
C4    C     C_R   0.499928 0.500473 0.715772 0.814944
Cu1   Cu    Cu3+1 0.500000 0.597420 0.500000 0.961498
Cu2   Cu    Cu3+1 0.500000 0.402580 0.500000 0.962821
C5    C     C_1   0.500060 0.499007 0.162486 -0.204161
C6    C     C_1   0.499913 0.501258 0.837499 -0.201228
C7    C     C_1   0.499970 0.499581 0.059896 -0.019056
C8    C     C_1   0.499914 0.500727 0.940090 -0.018271
C9    C     C_R   0.815597 0.448882 0.411212 -0.189716
C10   C     C_R   0.182092 0.542270 0.588275 -0.198448
C11   C     C_R   0.767051 0.498367 0.497968 -0.087401
C12   C     C_R   0.232032 0.499568 0.498090 -0.079760
C13   C     C_R   0.809866 0.546454 0.585154 -0.196777
C14   C     C_R   0.189650 0.453258 0.408705 -0.180708
C15   C     C_R   0.902554 0.541870 0.590114 -0.026284
C16   C     C_R   0.096343 0.454387 0.405345 -0.027259
C17   C     C_R   0.952559 0.497012 0.498352 -0.079056
C18   C     C_R   0.045959 0.497501 0.497953 -0.079761
C19   C     C_R   0.908851 0.451222 0.407451 -0.028150
C20   C     C_R   0.089256 0.541217 0.590352 -0.022962
C21   C     C_R   0.946058 0.581605 0.684578 0.405810
C22   C     C_R   0.052471 0.413015 0.311927 0.405026
C23   C     C_R   0.039424 0.582383 0.683974 0.400541
C24   C     C_R   0.958850 0.409479 0.314293 0.398932
H1    H     H_    0.780048 0.412071 0.344713 0.166176
H2    H     H_    0.215483 0.572398 0.659698 0.155885
H3    H     H_    0.770035 0.585445 0.650095 0.167413
H4    H     H_    0.230087 0.417188 0.342043 0.164084
C25   C     C_R   0.453229 0.795502 0.584862 0.356263
C26   C     C_R   0.549849 0.205610 0.417578 0.360538
C27   C     C_R   0.552252 0.791347 0.420291 0.363916
C28   C     C_R   0.447573 0.207985 0.578510 0.368501
N1    N     N_R   0.500000 0.743810 0.500000 -0.216546
N2    N     N_R   0.500000 0.256190 0.500000 -0.222878
C29   C     C_R   0.549821 0.894848 0.413779 -0.091459
C30   C     C_R   0.440748 0.105125 0.572973 -0.092012
C31   C     C_R   0.447865 0.898836 0.582475 -0.107977
C32   C     C_R   0.554774 0.102076 0.418812 -0.089731
C33   C     C_R   0.497775 0.948340 0.496605 -0.071577
C34   C     C_R   0.497868 0.051837 0.496124 -0.073356
C35   C     C_R   0.600246 0.946668 0.329758 0.220242
C36   C     C_R   0.379603 0.054109 0.643720 0.221155
C37   C     C_R   0.391783 0.954432 0.660419 0.224677
C38   C     C_R   0.611582 0.047313 0.341917 0.213303
O9    O     O_3   0.898475 0.623482 0.776611 -0.543784
C39   C     C_3   0.868081 0.550462 0.851718 -0.332439
H5    H     H_    0.916956 0.490329 0.860229 0.130573
H6    H     H_    0.804025 0.520607 0.823840 0.160398
H7    H     H_    0.855755 0.582811 0.938386 0.187068
O10   O     O_3   0.100028 0.371615 0.219613 -0.543440
C40   C     C_3   0.127319 0.444680 0.142747 -0.334791
H8    H     H_    0.191177 0.476555 0.168279 0.159438
H9    H     H_    0.076918 0.503414 0.134941 0.130936
H10   H     H_    0.138851 0.411778 0.056235 0.186800
O11   O     O_3   0.081622 0.631670 0.770139 -0.545644
C41   C     C_3   0.103926 0.566983 0.857255 -0.346521
H11   H     H_    0.124638 0.494087 0.824356 0.133822
H12   H     H_    0.047556 0.560835 0.920885 0.182293
H13   H     H_    0.161034 0.596895 0.903152 0.180415
O12   O     O_3   0.916815 0.358540 0.229351 -0.547303
C42   C     C_3   0.891219 0.422220 0.142767 -0.336750
H14   H     H_    0.946571 0.430619 0.078075 0.178725
H15   H     H_    0.868367 0.494285 0.176089 0.132095
H16   H     H_    0.834650 0.389950 0.097950 0.183508
N3    N     N_2   0.423948 0.746212 0.685129 -0.375063
H17   H     H_    0.454659 0.762316 0.760336 0.252211
C43   C     C_3   0.334460 0.709171 0.694404 -0.531530
H18   H     H_    0.296965 0.741837 0.769015 0.217366
H19   H     H_    0.339096 0.631369 0.712322 0.201759
H20   H     H_    0.297423 0.722566 0.615390 0.222891
N4    N     N_2   0.590323 0.258137 0.325982 -0.363040
H21   H     H_    0.658742 0.262989 0.324872 0.269260
C44   C     C_3   0.550121 0.247361 0.215212 -0.622227
H22   H     H_    0.558619 0.173435 0.179735 0.205867
H23   H     H_    0.581537 0.298293 0.153540 0.215003
H24   H     H_    0.477513 0.263433 0.223050 0.231122
N5    N     N_2   0.617182 0.735879 0.355880 -0.364050
H25   H     H_    0.608452 0.729811 0.268977 0.270539
C45   C     C_3   0.708619 0.745204 0.390524 -0.612839
H26   H     H_    0.737571 0.814837 0.363762 0.205710
H27   H     H_    0.749837 0.686145 0.350397 0.215188
H28   H     H_    0.712231 0.740424 0.485297 0.234689
N6    N     N_2   0.404298 0.262461 0.668804 -0.361338
H29   H     H_    0.336458 0.271969 0.664063 0.270594
C46   C     C_3   0.437630 0.248972 0.782705 -0.637907
H30   H     H_    0.421582 0.176564 0.815956 0.209535
H31   H     H_    0.406763 0.303612 0.842470 0.217109
H32   H     H_    0.511112 0.258031 0.781348 0.230015
N7    N     N_2   0.635908 0.898941 0.229131 -0.447611
H33   H     H_    0.700691 0.915610 0.205314 0.259194
C47   C     C_3   0.576707 0.898459 0.134225 -0.739157
H34   H     H_    0.606912 0.854776 0.062190 0.235206
H35   H     H_    0.565329 0.973035 0.104157 0.223093
H36   H     H_    0.511830 0.865916 0.160528 0.239889
N8    N     N_2   0.301746 0.101519 0.691475 -0.451705
H37   H     H_    0.280656 0.081702 0.772715 0.262955
C48   C     C_3   0.229531 0.108442 0.613383 -0.711449
H38   H     H_    0.174082 0.151666 0.654138 0.233455
H39   H     H_    0.204610 0.035460 0.592290 0.231435
H40   H     H_    0.252158 0.144784 0.533170 0.240563
N9    N     N_2   0.345054 0.910998 0.754220 -0.432378
H41   H     H_    0.276808 0.920165 0.755115 0.262071
C49   C     C_3   0.383150 0.927967 0.864917 -0.739372
H42   H     H_    0.349266 0.881940 0.930060 0.236898
H43   H     H_    0.374685 0.004445 0.892140 0.218169
H44   H     H_    0.455407 0.909704 0.861541 0.231838
N10   N     N_2   0.683354 0.092215 0.280256 -0.450785
H45   H     H_    0.691110 0.073655 0.194634 0.259022
C50   C     C_3   0.766216 0.092636 0.339395 -0.699731
H46   H     H_    0.816543 0.134710 0.289495 0.256366
H47   H     H_    0.791646 0.017849 0.348719 0.220306
H48   H     H_    0.756358 0.126970 0.425594 0.237083

loop_
_geom_bond_atom_site_label_1
_geom_bond_atom_site_label_2
_geom_bond_distance
_ccdc_geom_bond_type
C15   C21   1.411492 A    
O5    Cu1   1.907889 S    
C41   H12   1.108362 S    
O9    C39   1.415148 S    
C16   C22   1.413568 A    
N6    H29   1.029687 S    
C17   C19   1.415564 A    
C28   N6    1.422023 S    
C48   H39   1.111378 S    
N9    H41   1.031101 S    
N5    H25   1.029608 S    
O3    C2    1.298805 A    
N4    H21   1.029680 S    
C46   H32   1.111083 S    
C23   O11   1.385627 S    
C31   C33   1.415935 A    
C10   C20   1.393404 A    
C43   H18   1.108041 S    
C32   C38   1.422169 A    
N8    C48   1.446267 S    
C47   H34   1.110210 S    
O1    C1    1.304292 A    
C25   C31   1.437079 A    
C9    C11   1.394346 A    
C14   C16   1.403017 A    
N10   C50   1.445859 S    
C50   H48   1.111491 S    
C41   H13   1.109401 S    
C29   C35   1.421493 A    
C30   C36   1.411568 A    
C39   H5    1.114716 S    
C5    C7    1.196761 T    
C28   C30   1.433682 A    
C40   H9    1.114677 S    
C39   H7    1.109368 S    
O7    Cu1   1.913042 S    
C3    C5    1.419855 S    
C1    C12   1.454911 S    
C4    C6    1.419699 S    
C14   H4    1.082792 S    
C48   H38   1.110317 S    
C21   C23   1.401754 A    
O12   C42   1.412689 S    
C25   N3    1.419312 S    
C45   H27   1.110738 S    
C24   O12   1.385405 S    
O3    Cu1   1.957503 S    
C31   C37   1.429472 A    
C49   H44   1.111102 S    
C37   N9    1.420216 S    
C43   H19   1.104992 S    
C41   H11   1.115423 S    
C47   H35   1.111316 S    
Cu1   Cu2   2.705471 S    
C27   N1    1.372248 A    
O2    C2    1.297567 A    
C28   N2    1.369140 A    
N4    C44   1.453761 S    
C50   H47   1.111351 S    
C35   N7    1.424516 S    
C27   N5    1.422604 S    
O8    Cu2   1.913042 S    
C42   H15   1.115434 S    
C25   N1    1.381219 A    
C13   H3    1.083316 S    
C2    C11   1.444620 S    
C19   C24   1.411974 A    
C49   H43   1.109459 S    
O10   C40   1.414982 S    
C22   C24   1.406204 A    
C40   H10   1.109320 S    
O5    C3    1.297236 A    
N3    H17   1.029811 S    
C44   H22   1.106506 S    
C29   C33   1.417445 A    
O6    C4    1.297784 A    
C7    C8    1.397707 S    
N9    C49   1.449837 S    
C45   H28   1.111607 S    
N3    C43   1.443529 S    
C44   H23   1.110000 S    
C10   C12   1.391360 A    
C36   N8    1.427268 S    
O11   C41   1.412481 S    
C47   H36   1.111355 S    
C11   C13   1.390959 A    
C48   H40   1.111448 S    
C12   C14   1.395564 A    
O1    Cu1   1.961159 S    
C22   O10   1.384741 S    
C9    C19   1.399851 A    
Cu1   N1    2.032714 S    
C36   C37   1.411400 A    
Cu2   N2    2.032714 S    
C49   H42   1.110053 S    
C43   H20   1.111504 S    
C26   C32   1.439160 A    
O6    Cu2   1.907889 S    
C20   C23   1.411610 A    
N7    C47   1.446343 S    
C26   N4    1.420985 S    
O4    C1    1.297048 A    
C42   H16   1.109443 S    
C50   H46   1.110410 S    
C46   H31   1.109998 S    
C15   C17   1.417806 A    
N8    H37   1.028833 S    
C30   C34   1.413977 A    
C16   C18   1.417770 A    
N7    H33   1.030259 S    
C35   C38   1.415381 A    
C18   C20   1.413440 A    
C42   H14   1.108521 S    
C9    H1    1.083947 S    
N10   H45   1.030260 S    
N6    C46   1.451438 S    
C32   C34   1.412768 A    
C39   H6    1.109311 S    
C13   C15   1.396089 A    
O4    Cu2   1.957505 S    
C40   H8    1.109169 S    
O2    Cu2   1.961158 S    
O7    C4    1.299629 A    
O8    C3    1.300230 A    
C10   H2    1.071403 S    
C26   N2    1.376931 A    
C44   H24   1.110950 S    
C6    C8    1.196701 T    
C33   C34   1.437213 A    
C38   N10   1.424734 S    
C46   H30   1.107220 S    
N5    C45   1.452539 S    
C27   C29   1.440336 A    
C21   O9    1.385143 S    
C45   H26   1.107039 S    
C17   C18   1.402303 A    
