data_mof_unit_62440.cif
_audit_creation_date              2012-12-10T17:22:34-0500
_audit_creation_method            fapswitch 2.2
_symmetry_space_group_name_H-M    P1
_symmetry_Int_Tables_number       1
_space_group_crystal_system       triclinic
_cell_length_a                    21.680385
_cell_length_b                    21.680385
_cell_length_c                    30.440981
_cell_angle_alpha                 90.000412
_cell_angle_beta                  90.000409
_cell_angle_gamma                 89.99999
_cell_volume                      14308.4511213

loop_
_atom_site_label
_atom_site_type_symbol
_atom_type_description
_atom_site_fract_x
_atom_site_fract_y
_atom_site_fract_z
_atom_type_partial_charge
C1    C     C_R   0.118923 0.500000 0.500000 0.782263
C2    C     C_R   0.381001 0.500000 0.500000 0.775979
C3    C     C_R   0.055794 0.500105 0.843366 -0.172504
C4    C     C_R   0.499896 0.944206 0.156634 -0.172505
C5    C     C_R   0.055795 0.499894 0.156635 -0.172505
C6    C     C_R   0.500103 0.055796 0.156635 -0.172504
C7    C     C_R   0.944206 0.500104 0.156634 -0.172505
C8    C     C_R   0.000000 0.499999 0.366549 -0.220291
C9    C     C_R   0.499999 0.000000 0.366549 -0.220292
C10   C     C_R   1.000000 0.500000 0.633451 -0.220291
C11   C     C_R   0.500000 0.999999 0.633451 -0.220291
C12   C     C_R   0.500000 0.999999 0.866549 -0.220291
C13   C     C_R   0.500000 0.618999 0.500000 0.775979
C14   C     C_R   0.999999 0.500000 0.866549 -0.220292
C15   C     C_R   0.499999 0.000001 0.133451 -0.220291
C16   C     C_R   0.000001 0.500000 0.133451 -0.220291
C17   C     C_R   0.000001 0.499999 0.274209 -0.172920
C18   C     C_R   0.499999 0.000001 0.274209 -0.172919
C19   C     C_R   0.999999 0.500001 0.725791 -0.172919
C20   C     C_R   0.500001 0.999999 0.725791 -0.172919
C21   C     C_R   0.500001 0.999999 0.774209 -0.172919
C22   C     C_R   0.999999 0.500001 0.774209 -0.172919
C23   C     C_R   0.499999 0.000001 0.225791 -0.172919
C24   C     C_R   0.618999 0.500000 0.500000 0.775979
C25   C     C_R   0.000001 0.499999 0.225791 -0.172919
C26   C     C_R   1.000000 0.881001 1.000000 0.775979
C27   C     C_R   0.881001 0.000000 1.000000 0.775979
C28   C     C_R   1.000000 0.118999 0.000000 0.775979
C29   C     C_R   0.118999 0.000000 0.000000 0.775979
C30   C     C_R   0.314115 0.500000 0.500000 -0.015040
C31   C     C_R   0.500000 0.685885 0.500000 -0.015040
C32   C     C_R   0.685885 0.500000 0.500000 -0.015041
C33   C     C_R   0.500000 0.881077 0.500000 0.782263
C34   C     C_R   0.500000 0.314115 0.500000 -0.015041
C35   C     C_R   0.814115 0.000000 1.000000 -0.015040
C36   C     C_R   1.000000 0.185884 0.000000 -0.015040
C37   C     C_R   0.185885 0.000000 0.000000 -0.015041
C38   C     C_R   1.000000 0.814115 1.000000 -0.015041
C39   C     C_R   0.282030 0.539459 0.528339 -0.166248
C40   C     C_R   0.539459 0.717971 0.528339 -0.166249
C41   C     C_R   0.717971 0.460541 0.528339 -0.166249
C42   C     C_R   0.460541 0.282030 0.528339 -0.166248
C43   C     C_R   0.282029 0.460541 0.471660 -0.166249
C44   C     C_R   0.881077 0.500000 0.500000 0.782263
C45   C     C_R   0.539459 0.282029 0.471661 -0.166249
C46   C     C_R   0.717970 0.539459 0.471661 -0.166248
C47   C     C_R   0.460540 0.717970 0.471661 -0.166248
C48   C     C_R   0.782030 0.039460 0.028339 -0.166248
C49   C     C_R   0.039459 0.217971 0.028340 -0.166249
C50   C     C_R   0.217971 0.960541 0.028339 -0.166249
C51   C     C_R   0.960541 0.782030 0.028339 -0.166248
C52   C     C_R   0.782029 0.960541 0.971660 -0.166249
C53   C     C_R   0.039459 0.782029 0.971661 -0.166249
C54   C     C_R   0.217970 0.039459 0.971661 -0.166248
C55   C     C_R   0.500000 0.118923 0.500000 0.782263
C56   C     C_R   0.960540 0.217970 0.971661 -0.166248
C57   C     C_R   0.000000 0.500000 0.414904 0.836253
C58   C     C_R   0.500000 0.000000 0.414904 0.836253
C59   C     C_R   1.000000 0.500000 0.585096 0.836254
C60   C     C_R   0.500000 1.000000 0.585096 0.836254
C61   C     C_R   0.500000 1.000000 0.914904 0.836253
C62   C     C_R   1.000000 0.500000 0.914904 0.836253
C63   C     C_R   0.500000 0.000000 0.085096 0.836254
C64   C     C_R   0.000000 0.500000 0.085096 0.836254
C65   C     C_R   0.185818 0.500000 0.500000 -0.013600
C66   C     C_R   0.618923 0.000000 1.000000 0.782263
C67   C     C_R   0.500000 0.814182 0.500000 -0.013600
C68   C     C_R   0.814182 0.500000 0.500000 -0.013600
C69   C     C_R   0.500000 0.185818 0.500000 -0.013600
C70   C     C_R   0.685818 0.000000 1.000000 -0.013600
C71   C     C_R   1.000000 0.314182 0.000000 -0.013600
C72   C     C_R   0.314182 0.000000 0.000000 -0.013600
C73   C     C_R   1.000000 0.685818 1.000000 -0.013600
C74   C     C_R   0.217910 0.540212 0.527798 -0.164365
C75   C     C_R   0.540211 0.782090 0.527799 -0.164364
C76   C     C_R   0.782090 0.459789 0.527798 -0.164364
C77   C     C_R   1.000000 0.381077 0.000000 0.782263
C78   C     C_R   0.459788 0.217910 0.527798 -0.164365
C79   C     C_R   0.217910 0.459788 0.472201 -0.164364
C80   C     C_R   0.540211 0.217910 0.472202 -0.164364
C81   C     C_R   0.782090 0.540212 0.472202 -0.164365
C82   C     C_R   0.459788 0.782090 0.472202 -0.164365
C83   C     C_R   0.717910 0.040212 0.027798 -0.164365
C84   C     C_R   0.040211 0.282090 0.027799 -0.164364
C85   C     C_R   0.282090 0.959789 0.027798 -0.164364
C86   C     C_R   0.959788 0.717910 0.027798 -0.164365
C87   C     C_R   0.717910 0.959788 0.972201 -0.164364
C88   C     C_R   0.381077 0.000000 0.000000 0.782263
C89   C     C_R   0.040211 0.717910 0.972202 -0.164365
C90   C     C_R   0.282090 0.040212 0.972202 -0.164365
C91   C     C_R   0.959788 0.282090 0.972202 -0.164365
C92   C     C_R   0.000099 0.443295 0.297593 0.414422
C93   C     C_R   0.443295 0.999904 0.297593 0.414423
C94   C     C_R   0.999903 0.556703 0.297593 0.414425
C95   C     C_R   0.556703 0.000098 0.297593 0.414426
C96   C     C_R   0.999902 0.443297 0.702407 0.414426
C97   C     C_R   0.443297 0.000100 0.702407 0.414427
C98   C     C_R   0.000095 0.556705 0.702407 0.414422
C99   C     C_R   1.000000 0.618923 1.000000 0.782263
C100  C     C_R   0.556705 0.999898 0.702407 0.414423
C101  C     C_R   0.499908 0.056703 0.797593 0.414426
C102  C     C_R   0.943295 0.499904 0.797593 0.414422
C103  C     C_R   0.500094 0.943295 0.797593 0.414422
C104  C     C_R   0.056703 0.500098 0.797593 0.414426
C105  C     C_R   0.499903 0.943297 0.202407 0.414426
C106  C     C_R   0.056705 0.499901 0.202407 0.414425
C107  C     C_R   0.500095 0.056705 0.202407 0.414422
C108  C     C_R   0.943297 0.500097 0.202407 0.414425
C109  C     C_R   0.000106 0.444204 0.343365 -0.172505
C110  C     C_R   0.500000 0.381001 0.500000 0.775979
C111  C     C_R   0.444204 0.999897 0.343365 -0.172505
C112  C     C_R   0.999896 0.555794 0.343366 -0.172504
C113  C     C_R   0.555794 0.000105 0.343366 -0.172504
C114  C     C_R   0.999896 0.444206 0.656634 -0.172505
C115  C     C_R   0.444206 0.000107 0.656634 -0.172505
C116  C     C_R   0.000103 0.555795 0.656635 -0.172505
C117  C     C_R   0.555795 0.999891 0.656635 -0.172504
C118  C     C_R   0.499900 0.055794 0.843366 -0.172504
C119  C     C_R   0.944204 0.499896 0.843365 -0.172504
C120  C     C_R   0.500101 0.944204 0.843365 -0.172504
Cu1   Cu    Cu3+1 0.000000 0.438210 0.500000 0.976070
Cu2   Cu    Cu3+1 0.500000 0.500000 0.455940 0.978621
Cu3   Cu    Cu3+1 0.000000 0.000000 0.044060 0.978621
Cu4   Cu    Cu3+1 0.000000 0.000000 0.955940 0.978621
Cu5   Cu    Cu3+1 0.438210 0.000000 0.500000 0.976070
Cu6   Cu    Cu3+1 0.000000 0.561790 0.500000 0.976070
Cu7   Cu    Cu3+1 0.561790 0.000000 0.500000 0.976070
Cu8   Cu    Cu3+1 0.500000 0.938210 0.000000 0.976070
Cu9   Cu    Cu3+1 0.938210 0.500000 0.000000 0.976070
Cu10  Cu    Cu3+1 0.500000 0.061790 0.000000 0.976070
Cu11  Cu    Cu3+1 0.061790 0.500000 0.000000 0.976070
Cu12  Cu    Cu3+1 0.500000 0.500000 0.544060 0.978621
H1    H     H_    0.000191 0.400646 0.360810 0.193533
H2    H     H_    0.900646 0.499811 0.860810 0.193533
H3    H     H_    0.500183 0.900646 0.860810 0.193533
H4    H     H_    0.099353 0.500190 0.860810 0.193533
H5    H     H_    0.499812 0.900647 0.139190 0.193533
H6    H     H_    0.099354 0.499809 0.139190 0.193533
H7    H     H_    0.500187 0.099354 0.139190 0.193533
H8    H     H_    0.900647 0.500190 0.139190 0.193534
H9    H     H_    0.193351 0.571272 0.549515 0.146452
H10   H     H_    0.571272 0.806650 0.549515 0.146451
H11   H     H_    0.806650 0.428728 0.549515 0.146452
H12   H     H_    0.400646 0.999812 0.360810 0.193533
H13   H     H_    0.428728 0.193352 0.549514 0.146452
H14   H     H_    0.193350 0.428728 0.450485 0.146451
H15   H     H_    0.571272 0.193350 0.450485 0.146452
H16   H     H_    0.806648 0.571272 0.450486 0.146452
H17   H     H_    0.428727 0.806648 0.450485 0.146452
H18   H     H_    0.693351 0.071272 0.049515 0.146451
H19   H     H_    0.071272 0.306650 0.049515 0.146451
H20   H     H_    0.306650 0.928728 0.049515 0.146452
H21   H     H_    0.928728 0.693352 0.049514 0.146452
H22   H     H_    0.693350 0.928728 0.950485 0.146451
H23   H     H_    0.999810 0.599353 0.360810 0.193533
H24   H     H_    0.071272 0.693350 0.950485 0.146452
H25   H     H_    0.306648 0.071272 0.950486 0.146452
H26   H     H_    0.928727 0.306648 0.950485 0.146452
H27   H     H_    0.306596 0.570279 0.550225 0.146489
H28   H     H_    0.570278 0.693405 0.550226 0.146489
H29   H     H_    0.693405 0.429722 0.550226 0.146489
H30   H     H_    0.429722 0.306596 0.550225 0.146490
H31   H     H_    0.306595 0.429722 0.449774 0.146489
H32   H     H_    0.570278 0.306595 0.449774 0.146489
H33   H     H_    0.693404 0.570278 0.449775 0.146490
H34   H     H_    0.599352 0.000189 0.360810 0.193533
H35   H     H_    0.429721 0.693404 0.449775 0.146489
H36   H     H_    0.806596 0.070279 0.050225 0.146489
H37   H     H_    0.070278 0.193405 0.050226 0.146489
H38   H     H_    0.193405 0.929722 0.050226 0.146489
H39   H     H_    0.929722 0.806596 0.050225 0.146490
H40   H     H_    0.806595 0.929722 0.949774 0.146489
H41   H     H_    0.070278 0.806595 0.949774 0.146489
H42   H     H_    0.193404 0.070278 0.949775 0.146490
H43   H     H_    0.929721 0.193404 0.949775 0.146489
H44   H     H_    0.000112 0.390571 0.245231 0.340323
H45   H     H_    0.999811 0.400647 0.639190 0.193533
H46   H     H_    0.390571 0.999892 0.245231 0.340324
H47   H     H_    0.999891 0.609427 0.245231 0.340324
H48   H     H_    0.609426 0.000112 0.245231 0.340324
H49   H     H_    0.999889 0.390574 0.754769 0.340324
H50   H     H_    0.390574 0.000116 0.754769 0.340323
H51   H     H_    0.000107 0.609429 0.754769 0.340324
H52   H     H_    0.609429 0.999880 0.754769 0.340324
H53   H     H_    0.499900 0.109426 0.745231 0.340323
H54   H     H_    0.890571 0.499892 0.745231 0.340323
H55   H     H_    0.500104 0.890571 0.745231 0.340324
H56   H     H_    0.400647 0.000196 0.639190 0.193533
H57   H     H_    0.109426 0.500112 0.745231 0.340324
H58   H     H_    0.499889 0.890574 0.254769 0.340324
H59   H     H_    0.109429 0.499887 0.254769 0.340323
H60   H     H_    0.500106 0.109429 0.254769 0.340324
H61   H     H_    0.890573 0.500109 0.254769 0.340323
H62   H     H_    0.000187 0.599354 0.639190 0.193533
H63   H     H_    0.599354 0.999803 0.639190 0.193533
H64   H     H_    0.499818 0.099353 0.860810 0.193533
O1    O     O_R   0.090160 0.447820 0.500030 -0.582613
O2    O     O_R   0.947820 0.409840 0.000030 -0.582613
O3    O     O_R   0.409840 0.052180 0.000030 -0.582613
O4    O     O_R   0.052180 0.590160 0.000030 -0.582613
O5    O     O_R   0.590160 0.052180 0.999970 -0.582613
O6    O     O_R   0.947820 0.590160 0.999970 -0.582613
O7    O     O_R   0.409840 0.947820 0.999970 -0.582613
O8    O     O_R   0.052180 0.409840 0.999970 -0.582613
O9    O     O_R   0.999980 0.447820 0.435750 -0.586920
O10   O     O_R   0.447820 0.000020 0.435750 -0.586920
O11   O     O_R   0.000020 0.552180 0.435750 -0.586920
O12   O     O_R   0.447820 0.909840 0.500030 -0.582612
O13   O     O_R   0.552180 0.999980 0.435750 -0.586920
O14   O     O_R   0.999980 0.552180 0.564250 -0.586921
O15   O     O_R   0.447820 0.999980 0.564250 -0.586921
O16   O     O_R   0.000020 0.447820 0.564250 -0.586921
O17   O     O_R   0.552180 0.000020 0.564250 -0.586921
O18   O     O_R   0.499980 0.947820 0.935750 -0.586920
O19   O     O_R   0.947820 0.500020 0.935750 -0.586920
O20   O     O_R   0.500020 0.052180 0.935750 -0.586920
O21   O     O_R   0.052180 0.499980 0.935750 -0.586920
O22   O     O_R   0.499980 0.052180 0.064250 -0.586921
O23   O     O_R   0.909840 0.552180 0.500030 -0.582613
O24   O     O_R   0.947820 0.499980 0.064250 -0.586921
O25   O     O_R   0.500020 0.947820 0.064250 -0.586921
O26   O     O_R   0.052180 0.500020 0.064250 -0.586921
O27   O     O_R   0.499980 0.409740 0.537200 -0.581943
O28   O     O_R   0.409740 0.500020 0.537200 -0.581943
O29   O     O_R   0.500020 0.590260 0.537200 -0.581943
O30   O     O_R   0.590260 0.499980 0.537200 -0.581943
O31   O     O_R   0.499980 0.590260 0.462800 -0.581943
O32   O     O_R   0.409740 0.499980 0.462800 -0.581943
O33   O     O_R   0.500020 0.409740 0.462800 -0.581943
O34   O     O_R   0.552180 0.090160 0.500030 -0.582613
O35   O     O_R   0.590260 0.500020 0.462800 -0.581943
O36   O     O_R   0.999980 0.909740 0.037200 -0.581943
O37   O     O_R   0.909740 0.000020 0.037200 -0.581943
O38   O     O_R   0.000020 0.090260 0.037200 -0.581943
O39   O     O_R   0.090260 0.999980 0.037200 -0.581943
O40   O     O_R   0.999980 0.090260 0.962800 -0.581943
O41   O     O_R   0.909740 0.999980 0.962800 -0.581943
O42   O     O_R   0.000020 0.909740 0.962800 -0.581943
O43   O     O_R   0.090260 0.000020 0.962800 -0.581943
O44   O     O_3   0.000189 0.386054 0.277527 -0.705641
O45   O     O_R   0.090160 0.552180 0.499970 -0.582613
O46   O     O_3   0.386054 0.999815 0.277527 -0.705642
O47   O     O_3   0.999813 0.613944 0.277528 -0.705641
O48   O     O_3   0.613944 0.000187 0.277528 -0.705641
O49   O     O_3   0.999813 0.386056 0.722472 -0.705641
O50   O     O_3   0.386056 0.000193 0.722472 -0.705641
O51   O     O_3   0.000184 0.613946 0.722473 -0.705641
O52   O     O_3   0.613946 0.999804 0.722473 -0.705642
O53   O     O_3   0.499823 0.113944 0.777528 -0.705640
O54   O     O_3   0.886054 0.499814 0.777527 -0.705641
O55   O     O_3   0.500180 0.886054 0.777527 -0.705641
O56   O     O_R   0.447820 0.090160 0.499970 -0.582613
O57   O     O_3   0.113944 0.500188 0.777528 -0.705642
O58   O     O_3   0.499814 0.886056 0.222472 -0.705641
O59   O     O_3   0.113946 0.499811 0.222473 -0.705641
O60   O     O_3   0.500183 0.113946 0.222473 -0.705641
O61   O     O_3   0.886056 0.500186 0.222472 -0.705641
O62   O     O_R   0.909840 0.447820 0.499970 -0.582613
O63   O     O_R   0.552180 0.909840 0.499970 -0.582613
O64   O     O_R   0.590160 0.947820 0.000030 -0.582612

loop_
_geom_bond_atom_site_label_1
_geom_bond_atom_site_label_2
_ccdc_geom_bond_type
C3    C104  A    
C9    C111  A    
C33   O12   A    
C115  H56   S    
C46   H33   S    
C41   H29   S    
Cu12  O27   S    
C62   O19   A    
C63   O25   A    
C103  C120  A    
C34   C42   A    
Cu1   O9    S    
C60   O17   A    
C24   O35   A    
C52   H40   S    
C72   C85   A    
Cu5   O15   S    
C53   H41   S    
C5    H6    S    
C58   O10   A    
C84   H19   S    
Cu6   O23   S    
Cu9   Cu11  S    
Cu2   O35   S    
C17   C92   A    
C27   O41   A    
C19   C96   A    
C65   C79   A    
C101  C118  A    
Cu8   O64   S    
C63   O22   A    
C110  O33   A    
C86   H21   S    
C95   C113  A    
C54   C90   A    
Cu9   O24   S    
C66   O64   A    
C93   O46   S    
C8    C112  A    
C13   O29   A    
C7    H8    S    
H49   O49   S    
C92   C109  A    
C47   C82   A    
C60   O15   A    
Cu11  O26   S    
C70   C87   A    
C43   C79   A    
C14   C62   S    
C57   O9    A    
Cu5   O10   S    
C22   C104  A    
C31   C40   A    
C9    C58   S    
Cu1   O16   S    
C94   C112  A    
C6    H7    S    
Cu10  O22   S    
C13   C31   S    
C29   O39   A    
C91   H26   S    
Cu5   O56   S    
C50   C85   A    
C29   O43   A    
C6    C15   A    
C12   C120  A    
C66   O5    A    
C73   C89   A    
Cu7   O13   S    
C80   H15   S    
Cu3   O37   S    
C20   C97   A    
C35   C48   A    
C103  O55   S    
H60   O60   S    
C112  H23   S    
C20   C100  A    
C99   O4    A    
C30   C39   A    
C1    C65   S    
C6    C107  A    
Cu10  O20   S    
C61   O20   A    
C97   C115  A    
C11   C115  A    
C77   O2    A    
Cu9   O2    S    
C78   H13   S    
C59   O14   A    
C95   O48   S    
C83   H18   S    
C21   C101  A    
C81   H16   S    
C4    H5    S    
C88   O3    A    
C31   C47   A    
C18   C95   A    
H52   O52   S    
C55   O34   A    
C96   C114  A    
C69   C78   A    
C44   O23   A    
C105  O58   S    
C24   O30   A    
C110  O27   A    
C51   C86   A    
Cu2   Cu12  S    
C72   C88   S    
C19   C98   A    
C40   H28   S    
C25   C106  A    
C79   H14   S    
C5    C106  A    
H48   O48   S    
Cu8   O18   S    
C73   C86   A    
C1    O1    A    
C119  H2    S    
C64   O24   A    
C56   H43   S    
C109  H1    S    
C18   C23   S    
C62   O21   A    
C70   C83   A    
Cu3   Cu4   S    
C19   C22   S    
C12   C61   S    
C10   C114  A    
Cu6   O14   S    
C97   O50   S    
Cu4   O43   S    
C27   O37   A    
Cu7   O17   S    
C89   H24   S    
C38   C51   A    
C27   C35   S    
C44   O62   A    
Cu7   O34   S    
H59   O59   S    
C104  O57   S    
Cu8   O7    S    
C21   C103  A    
Cu9   O19   S    
Cu3   O38   S    
C94   O47   S    
C24   C32   S    
C40   C75   A    
C117  H63   S    
C75   H10   S    
Cu12  O30   S    
C8    C57   S    
C46   C81   A    
C47   H35   S    
C26   O42   A    
C98   C116  A    
C48   H36   S    
Cu6   O11   S    
C32   C41   A    
C114  H45   S    
C23   C107  A    
C33   O63   A    
Cu6   O45   S    
C2    O28   A    
C87   H22   S    
C64   O26   A    
C50   H38   S    
C34   C45   A    
H51   O51   S    
C92   O44   S    
Cu11  O8    S    
Cu10  O5    S    
Cu1   O1    S    
C55   C69   S    
C3    C14   A    
C1    O45   A    
C111  H12   S    
C28   O40   A    
Cu3   O39   S    
Cu9   O6    S    
C108  O61   S    
C7    C16   A    
H44   O44   S    
C74   H9    S    
C93   C111  A    
H61   O61   S    
C42   C78   A    
C99   O6    A    
C53   C89   A    
C34   C110  S    
C12   C118  A    
C30   C43   A    
C44   C68   S    
C100  O52   S    
C67   C75   A    
C61   O18   A    
C68   C81   A    
C11   C60   S    
C11   C117  A    
C77   O8    A    
C96   O49   S    
C113  H34   S    
C118  H64   S    
C59   O16   A    
C33   C67   S    
H58   O58   S    
C71   C84   A    
C58   O13   A    
C49   C84   A    
C73   C99   S    
Cu2   O33   S    
C57   O11   A    
Cu3   O36   S    
C39   H27   S    
Cu12  O28   S    
C32   C46   A    
C106  O59   S    
C45   H32   S    
C52   C87   A    
C101  O53   S    
C71   C77   S    
C17   C25   S    
Cu8   Cu10  S    
Cu8   O25   S    
C13   O31   A    
C26   C38   S    
C42   H30   S    
C100  C117  A    
C68   C76   A    
C37   C54   A    
C4    C105  A    
Cu1   O62   S    
Cu5   O12   S    
C22   C102  A    
C48   C83   A    
Cu11  O21   S    
C2    C30   S    
C120  H3    S    
C26   O36   A    
C54   H42   S    
C4    C15   A    
C51   H39   S    
C10   C59   S    
C2    O32   A    
C85   H20   S    
C116  H62   S    
C98   O51   S    
C5    C16   A    
C23   C105  A    
C8    C109  A    
C36   C49   A    
C41   C76   A    
C49   H37   S    
Cu4   O41   S    
C66   C70   S    
C38   C53   A    
Cu4   O42   S    
C90   H25   S    
Cu2   O31   S    
C37   C50   A    
C36   C56   A    
C102  O54   S    
C107  O60   S    
Cu11  O4    S    
C45   C80   A    
Cu7   O63   S    
C39   C74   A    
C88   O7    A    
H55   O55   S    
Cu2   O32   S    
C10   C116  A    
H47   O47   S    
C9    C113  A    
H54   O54   S    
C82   H17   S    
C65   C74   A    
H53   O53   S    
Cu4   O40   S    
C76   H11   S    
Cu1   Cu6   S    
C71   C91   A    
C20   C21   S    
C28   C36   S    
C67   C82   A    
C14   C119  A    
C29   C37   S    
C35   C52   A    
Cu5   Cu7   S    
C18   C93   A    
C15   C63   S    
C55   O56   A    
C69   C80   A    
H57   O57   S    
C17   C94   A    
C16   C64   S    
C3    H4    S    
C72   C90   A    
H50   O50   S    
Cu12  O29   S    
C7    C108  A    
C56   C91   A    
C102  C119  A    
Cu10  O3    S    
C25   C108  A    
C28   O38   A    
H46   O46   S    
C43   H31   S    
