data_mof_unit_25711.cif
_audit_creation_date              2012-12-10T16:42:54-0500
_audit_creation_method            fapswitch 2.2
_symmetry_space_group_name_H-M    P1
_symmetry_Int_Tables_number       1
_space_group_crystal_system       triclinic
_cell_length_a                    7.49281
_cell_length_b                    8.593257
_cell_length_c                    12.964074
_cell_angle_alpha                 88.097938
_cell_angle_beta                  79.024159
_cell_angle_gamma                 102.771244
_cell_volume                      796.709723143

loop_
_atom_site_label
_atom_site_type_symbol
_atom_type_description
_atom_site_fract_x
_atom_site_fract_y
_atom_site_fract_z
_atom_type_partial_charge
C1    C     C_R   0.454592 0.199990 0.493351 0.794836
C2    C     C_R   0.731450 0.540865 0.119368 -0.132874
C3    C     C_R   0.606689 0.520080 0.858657 -0.252251
C4    C     C_R   0.392949 0.477631 0.141661 -0.208489
C5    C     C_R   0.589641 0.515674 0.967199 0.170580
C6    C     C_R   0.409950 0.481381 0.033150 0.163024
C7    C     C_2   0.433500 0.035630 0.464902 0.093259
C8    C     C_2   0.581228 0.971239 0.454126 0.112660
C9    C     C_R   0.549290 0.801357 0.485530 0.782975
C10   C     C_R   0.466235 0.495642 0.701351 0.780786
C11   C     C_R   0.533719 0.504142 0.298700 0.895002
C12   C     C_R   0.553162 0.507401 0.185031 -0.011947
C13   C     C_R   0.446565 0.491072 0.815190 -0.043255
C14   C     C_R   0.250070 0.451685 0.989593 -0.195266
C15   C     C_R   0.749541 0.545273 0.010751 -0.209831
C16   C     C_R   0.268229 0.456866 0.880919 -0.190215
Cu1   Cu    Cu3+1 0.686350 0.517570 0.488220 1.051889
Cu2   Cu    Cu3+1 0.313650 0.482430 0.511780 1.035225
H1    H     H_    0.254947 0.451334 0.192056 0.159004
H2    H     H_    0.992192 0.272254 0.352439 0.369252
H3    H     H_    0.744715 0.546617 0.808286 0.156020
H4    H     H_    0.856942 0.564607 0.151762 0.168078
H5    H     H_    0.142755 0.433337 0.848520 0.158352
H6    H     H_    0.111710 0.424442 0.039411 0.151103
H7    H     H_    0.887896 0.572236 0.960959 0.138647
H8    H     H_    0.935135 0.382847 0.587692 0.232320
H9    H     H_    0.063873 0.612445 0.410177 0.280751
H10   H     H_    0.235811 0.081079 0.238186 0.389028
N1    N     N_2   0.033570 0.455950 0.529530 -0.206367
N2    N     N_2   0.966430 0.544050 0.470470 -0.193086
O1    O     O_R   0.621060 0.286250 0.492350 -0.573544
O2    O     O_2   0.080567 0.912918 0.453506 -0.221162
O3    O     O_3   0.271007 0.127997 0.302255 -0.499491
O4    O     O_2   0.859936 0.931183 0.298446 -0.240399
O5    O     O_2   0.716631 0.154904 0.271897 -0.305780
O6    O     O_3   0.937179 0.180102 0.405463 -0.454331
O7    O     O_R   0.378940 0.713750 0.507650 -0.569076
O8    O     O_R   0.306310 0.256580 0.512240 -0.522440
O9    O     O_R   0.693690 0.743420 0.487760 -0.506486
O10   O     O_R   0.631800 0.512400 0.642670 -0.600164
O11   O     O_R   0.368200 0.487600 0.357330 -0.579306
O12   O     O_R   0.317060 0.482730 0.662570 -0.598051
O13   O     O_R   0.682940 0.517270 0.337430 -0.578931
O14   O     O_2   0.321174 0.840298 0.318932 -0.331491
S1    S     S_3+6 0.270233 0.971647 0.384052 0.073192
S2    S     S_3+6 0.776799 0.058468 0.352349 0.068251

loop_
_geom_bond_atom_site_label_1
_geom_bond_atom_site_label_2
_ccdc_geom_bond_type
C2    H4    S    
C11   C12   S    
Cu1   O13   S    
O6    S2    S    
N1    N2    D    
Cu1   N2    S    
C10   O12   A    
O3    S1    S    
O2    S1    D    
O5    S2    D    
C3    C13   A    
C1    O1    A    
C5    C15   A    
C2    C12   A    
C9    O7    A    
Cu1   Cu2   S    
Cu2   O8    S    
C7    C8    D    
Cu2   N1    S    
C1    C7    S    
H9    N2    S    
C11   O13   A    
C2    C15   A    
C15   H7    S    
C1    O8    A    
O4    S2    D    
C7    S1    S    
C10   O10   A    
Cu2   O7    S    
H10   O3    S    
C11   O11   A    
C16   H5    S    
C8    S2    S    
Cu2   O12   S    
C5    C6    A    
Cu1   O1    S    
C14   C16   A    
C3    H3    S    
C6    C14   A    
H2    O6    S    
C9    O9    A    
O14   S1    D    
H8    N1    S    
C4    C6    A    
Cu1   O9    S    
C13   C16   A    
C14   H6    S    
C4    C12   A    
C4    H1    S    
C10   C13   S    
Cu2   O11   S    
C8    C9    S    
C3    C5    A    
Cu1   O10   S    
