data_mof_unit_38788.cif
_audit_creation_date              2012-10-26T20:30:05-0400
_audit_creation_method            fapswitch 2.2
_symmetry_space_group_name_H-M    P1
_symmetry_Int_Tables_number       1
_space_group_crystal_system       triclinic
_cell_length_a                    12.950095
_cell_length_b                    19.527887
_cell_length_c                    18.302685
_cell_angle_alpha                 88.540429
_cell_angle_beta                  96.627701
_cell_angle_gamma                 92.497806
_cell_volume                      4592.25438136

loop_
_atom_site_label
_atom_site_type_symbol
_atom_type_description
_atom_site_fract_x
_atom_site_fract_y
_atom_site_fract_z
_atom_type_partial_charge
C1    C     C_R   0.503359 0.367530 0.501528 0.544395
C2    C     C_R   0.509820 0.291591 0.504815 -0.018276
C3    C     C_R   0.582615 0.963077 0.527907 0.251324
C4    C     C_R   0.406032 0.036053 0.471501 0.255051
C5    C     C_R   0.587285 0.034953 0.525818 -0.136795
C6    C     C_R   0.402235 0.964595 0.473462 -0.096484
C7    C     C_R   0.500181 0.071594 0.497857 0.000365
C8    C     C_R   0.489389 0.928187 0.501412 0.026831
C9    C     C_R   0.418119 0.469230 0.716433 0.391196
C10   C     C_R   0.581676 0.530970 0.283508 0.391051
C11   C     C_R   0.414071 0.472047 0.792863 -0.082159
C12   C     C_R   0.496540 0.632468 0.498476 0.545494
C13   C     C_R   0.585603 0.528212 0.207062 -0.082131
C14   C     C_R   0.495730 0.502556 0.839146 -0.044743
C15   C     C_R   0.504013 0.497559 0.160826 -0.044705
C16   C     C_R   0.300674 0.501469 0.486072 0.584783
C17   C     C_R   0.699303 0.498437 0.513927 0.585536
C18   C     C_R   0.578811 0.532440 0.805963 -0.172123
C19   C     C_R   0.421166 0.467430 0.194090 -0.171919
C20   C     C_R   0.579957 0.531911 0.729084 0.100297
C21   C     C_R   0.420198 0.467860 0.270988 0.100514
C22   C     C_R   0.539239 0.557529 0.963814 -0.107207
C23   C     C_R   0.484232 0.852762 0.498852 0.043783
C24   C     C_R   0.460411 0.442604 0.036134 -0.107165
C25   C     C_R   0.542643 0.555967 0.040882 -0.117535
C26   C     C_R   0.456994 0.444171 0.959064 -0.117558
C27   C     C_R   0.503184 0.498504 0.078425 0.031972
C28   C     C_R   0.496464 0.501632 0.921530 0.031931
C29   C     C_R   0.811677 0.492877 0.521718 0.058788
C30   C     C_R   0.188255 0.506882 0.478261 0.058449
C31   C     C_R   0.030680 0.559742 0.424362 -0.126082
C32   C     C_R   0.969167 0.439843 0.575512 -0.126405
C33   C     C_R   0.138269 0.552570 0.426431 0.227324
C34   C     C_R   0.508261 0.147053 0.500719 -0.014571
C35   C     C_R   0.861551 0.447003 0.573395 0.227641
C36   C     C_R   0.131830 0.469463 0.527516 -0.168365
C37   C     C_R   0.868129 0.530296 0.472497 -0.167838
C38   C     C_R   0.025386 0.477084 0.525927 -0.002954
C39   C     C_R   0.974528 0.522590 0.474033 -0.002967
C40   C     C_R   0.489304 0.748121 0.428893 -0.036069
C41   C     C_R   0.506524 0.251819 0.570905 -0.036151
C42   C     C_R   0.487995 0.820388 0.431361 -0.022954
C43   C     C_R   0.504123 0.179464 0.568122 -0.026469
C44   C     C_R   0.671463 0.566779 0.701711 0.080637
C45   C     C_R   0.477558 0.813053 0.563468 0.006175
C46   C     C_R   0.767943 0.535581 0.711647 -0.061362
C47   C     C_R   0.857137 0.570666 0.691410 -0.109575
C48   C     C_R   0.850907 0.637444 0.662417 -0.116878
C49   C     C_R   0.756256 0.670038 0.656103 -0.131309
C50   C     C_R   0.667557 0.635309 0.677432 -0.078300
C51   C     C_R   0.329227 0.432438 0.298513 0.080616
C52   C     C_R   0.232351 0.463133 0.288946 -0.061789
C53   C     C_R   0.143721 0.427554 0.309458 -0.110003
C54   C     C_R   0.150893 0.360751 0.338270 -0.115928
C55   C     C_R   0.245913 0.328628 0.344130 -0.130794
C56   C     C_R   0.519389 0.186678 0.436639 -0.028942
C57   C     C_R   0.334046 0.363863 0.322547 -0.077912
C58   C     C_R   0.482536 0.716451 0.355605 0.051569
C59   C     C_R   0.567911 0.720608 0.314646 -0.080941
C60   C     C_R   0.556397 0.699104 0.241740 -0.097120
C61   C     C_R   0.460101 0.672699 0.209707 -0.108735
C62   C     C_R   0.375192 0.667805 0.250465 -0.103154
C63   C     C_R   0.386034 0.690473 0.322846 -0.053397
C64   C     C_R   0.514597 0.283450 0.644313 0.051138
C65   C     C_R   0.611641 0.309228 0.676382 -0.052984
C66   C     C_R   0.623713 0.331958 0.748757 -0.104082
C67   C     C_R   0.478878 0.741838 0.560686 -0.158243
C68   C     C_R   0.539515 0.327375 0.790199 -0.109346
C69   C     C_R   0.442683 0.301240 0.758856 -0.096054
C70   C     C_R   0.429914 0.279689 0.685958 -0.081301
C71   C     C_R   0.488884 0.862082 0.362541 0.033620
C72   C     C_R   0.396146 0.870791 0.316069 -0.087615
C73   C     C_R   0.397891 0.906332 0.248956 -0.094357
C74   C     C_R   0.492195 0.932686 0.227686 -0.088754
C75   C     C_R   0.584711 0.924316 0.273942 -0.108069
C76   C     C_R   0.583111 0.889671 0.341582 -0.086389
C77   C     C_R   0.499027 0.137644 0.636499 0.041615
C78   C     C_R   0.520579 0.257964 0.439535 -0.157808
C79   C     C_R   0.402938 0.110804 0.654863 -0.090917
C80   C     C_R   0.397158 0.076247 0.722158 -0.106635
C81   C     C_R   0.487345 0.067337 0.770730 -0.089539
C82   C     C_R   0.583545 0.092775 0.751983 -0.100932
C83   C     C_R   0.589484 0.128114 0.685148 -0.085769
C84   C     C_R   0.465672 0.844116 0.634687 0.052649
C85   C     C_R   0.375664 0.879083 0.643610 -0.090638
C86   C     C_R   0.360765 0.903551 0.712548 -0.102785
C87   C     C_R   0.435944 0.893913 0.772706 -0.101428
C88   C     C_R   0.526252 0.859815 0.764014 -0.113352
C89   C     C_R   0.488851 0.708345 0.495190 -0.016648
C90   C     C_R   0.540896 0.834529 0.695352 -0.072117
C91   C     C_R   0.532416 0.155258 0.365861 0.045854
C92   C     C_R   0.458297 0.164724 0.304531 -0.083221
C93   C     C_R   0.473955 0.138751 0.236372 -0.104677
C94   C     C_R   0.564193 0.104093 0.228879 -0.100720
C95   C     C_R   0.638309 0.094636 0.289724 -0.105373
C96   C     C_R   0.622369 0.119787 0.358148 -0.079452
Cu1   Cu    Cu3+1 0.499970 0.500000 0.573360 0.987329
Cu2   Cu    Cu3+1 0.500030 0.500000 0.426640 0.987521
H1    H     H_    0.828805 0.565299 0.432702 0.149037
H2    H     H_    0.425121 0.399593 0.928999 0.088779
H3    H     H_    0.991204 0.594824 0.384771 0.097943
H4    H     H_    0.008600 0.404695 0.615049 0.097121
H5    H     H_    0.468804 0.712407 0.610323 0.126551
H6    H     H_    0.533045 0.287302 0.390239 0.131646
H7    H     H_    0.658726 0.062660 0.546189 0.092324
H8    H     H_    0.330674 0.937063 0.453034 0.128665
H9    H     H_    0.367462 0.409631 0.637880 0.359413
H10   H     H_    0.632369 0.590485 0.362148 0.359854
H11   H     H_    0.773812 0.484205 0.735029 0.126201
H12   H     H_    0.171196 0.434520 0.567355 0.148489
H13   H     H_    0.931018 0.546057 0.698151 0.118097
H14   H     H_    0.919809 0.664397 0.646362 0.117331
H15   H     H_    0.752014 0.722598 0.636093 0.119921
H16   H     H_    0.596656 0.662166 0.677143 0.103229
H17   H     H_    0.225753 0.514509 0.265667 0.127176
H18   H     H_    0.069543 0.451793 0.303053 0.118226
H19   H     H_    0.082428 0.333412 0.354529 0.116695
H20   H     H_    0.250878 0.276056 0.364008 0.107257
H21   H     H_    0.405261 0.337390 0.322522 0.103187
H22   H     H_    0.850671 0.379769 0.652656 0.299625
H23   H     H_    0.347726 0.448185 0.815952 0.116398
H24   H     H_    0.148912 0.619411 0.346785 0.299714
H25   H     H_    0.642445 0.741770 0.338693 0.104777
H26   H     H_    0.622120 0.702780 0.210106 0.107675
H27   H     H_    0.451296 0.655951 0.153355 0.106892
H28   H     H_    0.300536 0.647698 0.225537 0.102638
H29   H     H_    0.318912 0.689967 0.352875 0.145256
H30   H     H_    0.678210 0.309660 0.645779 0.146141
H31   H     H_    0.698762 0.351913 0.773136 0.102663
H32   H     H_    0.549267 0.344198 0.846534 0.107017
H33   H     H_    0.377492 0.297851 0.791003 0.107285
H34   H     H_    0.651815 0.552211 0.183931 0.116503
H35   H     H_    0.354909 0.258850 0.662425 0.102149
H36   H     H_    0.323016 0.849396 0.331543 0.094919
H37   H     H_    0.326339 0.912788 0.213081 0.102349
H38   H     H_    0.493591 0.959419 0.175274 0.096148
H39   H     H_    0.657760 0.944280 0.257148 0.095319
H40   H     H_    0.655249 0.882883 0.376788 0.123361
H41   H     H_    0.332549 0.118165 0.617918 0.112716
H42   H     H_    0.322661 0.056829 0.736908 0.094899
H43   H     H_    0.482679 0.040869 0.822972 0.095905
H44   H     H_    0.653300 0.085802 0.789608 0.099272
H45   H     H_    0.644340 0.555910 0.839914 0.101308
H46   H     H_    0.664038 0.148834 0.671635 0.093770
H47   H     H_    0.316022 0.885842 0.597728 0.100984
H48   H     H_    0.290509 0.929504 0.719457 0.098961
H49   H     H_    0.424089 0.912731 0.826089 0.094468
H50   H     H_    0.584367 0.852333 0.810650 0.099149
H51   H     H_    0.610361 0.807167 0.689481 0.110467
H52   H     H_    0.388884 0.192449 0.309513 0.098534
H53   H     H_    0.416654 0.146076 0.189212 0.100289
H54   H     H_    0.576770 0.084629 0.175920 0.094080
H55   H     H_    0.708482 0.068200 0.283774 0.098066
H56   H     H_    0.355727 0.443784 0.160207 0.101334
H57   H     H_    0.681118 0.113072 0.404608 0.103540
H58   H     H_    0.726654 0.958235 0.570969 0.314761
H59   H     H_    0.327060 0.118530 0.448282 0.323977
H60   H     H_    0.568964 0.603210 0.937241 0.100287
H61   H     H_    0.430724 0.396906 0.062696 0.100375
H62   H     H_    0.574533 0.600547 0.070933 0.088706
N1    N     N_R   0.499990 0.500020 0.683620 -0.226142
N2    N     N_R   0.500010 0.499980 0.316380 -0.226155
O1    O     O_R   0.499960 0.400180 0.561970 -0.514293
O2    O     O_3   0.661797 0.567146 0.322771 -0.722202
O3    O     O_3   0.803600 0.408529 0.619436 -0.728457
O4    O     O_3   0.196088 0.590870 0.380182 -0.728713
O5    O     O_3   0.667830 0.925959 0.554493 -0.710721
O6    O     O_3   0.316209 0.068282 0.444385 -0.712260
O7    O     O_R   0.500040 0.599820 0.438030 -0.514193
O8    O     O_R   0.500010 0.400190 0.438070 -0.513592
O9    O     O_R   0.499990 0.599810 0.561930 -0.513449
O10   O     O_R   0.348980 0.499990 0.551890 -0.504397
O11   O     O_R   0.651020 0.500010 0.448110 -0.504458
O12   O     O_R   0.349030 0.499990 0.427990 -0.454439
O13   O     O_R   0.650970 0.500010 0.572010 -0.454396
O14   O     O_3   0.337970 0.433114 0.677136 -0.722435

loop_
_geom_bond_atom_site_label_1
_geom_bond_atom_site_label_2
_ccdc_geom_bond_type
C66   C68   A    
C87   C88   A    
C34   C56   A    
C93   C94   A    
C23   C45   A    
C17   C29   S    
C73   C74   A    
C14   C18   A    
C49   H15   S    
C95   C96   A    
C24   C27   A    
C21   C51   S    
C82   H44   S    
Cu1   Cu2   S    
C24   H61   S    
C3    O5    S    
C5    H7    S    
C53   C54   A    
C15   C19   A    
H10   O2    S    
C23   C42   A    
C87   H49   S    
Cu1   O13   S    
C31   H3    S    
C18   H45   S    
C19   C21   A    
C85   H47   S    
C4    C7    A    
C83   H46   S    
Cu2   O12   S    
C11   C14   A    
C96   H57   S    
H9    O14   S    
C77   C83   A    
C2    C41   A    
C94   H54   S    
C1    O8    A    
C67   C89   A    
C8    C23   S    
C56   C78   A    
C9    O14   S    
C1    C2    S    
C60   H26   S    
C92   C93   A    
C44   C50   A    
C20   C44   S    
C91   C96   A    
C46   C47   A    
Cu2   O7    S    
C15   C27   S    
C56   C91   S    
C73   H37   S    
C44   C46   A    
C68   C69   A    
Cu1   O1    S    
C22   C25   A    
C74   H38   S    
C45   C67   A    
C70   H35   S    
C31   C33   A    
C51   C57   A    
C32   C38   A    
C40   C89   A    
C61   C62   A    
Cu1   O10   S    
C53   H18   S    
C57   H21   S    
C66   H31   S    
C40   C42   A    
C59   C60   A    
C10   N2    A    
C22   C28   A    
C41   C43   A    
C11   H23   S    
C84   C90   A    
C90   H51   S    
C86   H48   S    
H59   O6    S    
Cu2   N2    S    
C17   O11   A    
H22   O3    S    
C81   C82   A    
C12   O9    A    
C77   C79   A    
C59   H25   S    
C38   C39   A    
C40   C58   S    
C74   C75   A    
C67   H5    S    
C51   C52   A    
C65   H30   S    
C12   C89   S    
C84   C85   A    
C4    C6    A    
C3    C8    A    
C75   H39   S    
C91   C92   A    
C5    C7    A    
Cu2   O11   S    
C86   C87   A    
C72   C73   A    
C6    C8    A    
C22   H60   S    
H58   O5    S    
C58   C59   A    
C85   C86   A    
C78   H6    S    
C82   C83   A    
C4    O6    S    
C60   C61   A    
C50   H16   S    
C9    N1    A    
C75   C76   A    
C32   C35   A    
C62   C63   A    
C2    C78   A    
C16   O10   A    
C72   H36   S    
C47   C48   A    
C69   H33   S    
C81   H43   S    
C25   H62   S    
C6    H8    S    
C94   C95   A    
C68   H32   S    
C9    C11   A    
C48   C49   A    
C48   H14   S    
C88   C90   A    
C65   C66   A    
C64   C70   A    
C55   C57   A    
C92   H52   S    
C7    C34   S    
C32   H4    S    
C93   H53   S    
C45   C84   S    
C43   C77   S    
C37   H1    S    
C52   C53   A    
C33   O4    S    
C62   H28   S    
C52   H17   S    
C16   O12   A    
C58   C63   A    
C54   C55   A    
C10   O2    S    
C21   N2    A    
C30   C33   A    
C34   C43   A    
C24   C26   A    
C80   C81   A    
C3    C5    A    
C10   C13   A    
Cu1   O9    S    
C12   O7    A    
C76   H40   S    
C25   C27   A    
C29   C35   A    
C26   C28   A    
C79   H41   S    
C30   C36   A    
C14   C28   S    
C64   C65   A    
C13   C15   A    
C71   C72   A    
C37   C39   A    
C80   H42   S    
C36   H12   S    
C88   H50   S    
C71   C76   A    
C47   H13   S    
C20   N1    A    
C36   C38   A    
C42   C71   S    
C35   O3    S    
C13   H34   S    
C31   C39   A    
C18   C20   A    
H24   O4    S    
C69   C70   A    
C79   C80   A    
Cu2   O8    S    
C1    O1    A    
C49   C50   A    
C54   H19   S    
C46   H11   S    
C29   C37   A    
C19   H56   S    
C61   H27   S    
C41   C64   S    
C95   H55   S    
C16   C30   S    
C63   H29   S    
C17   O13   A    
Cu1   N1    S    
C26   H2    S    
C55   H20   S    
