data_mof_unit_16303.cif
_audit_creation_date              2012-12-10T19:42:54-0500
_audit_creation_method            fapswitch 2.2
_symmetry_space_group_name_H-M    P1
_symmetry_Int_Tables_number       1
_space_group_crystal_system       triclinic
_cell_length_a                    11.01991
_cell_length_b                    13.157666
_cell_length_c                    11.949503
_cell_angle_alpha                 99.28679
_cell_angle_beta                  95.683311
_cell_angle_gamma                 97.351107
_cell_volume                      1683.14477175

loop_
_atom_site_label
_atom_site_type_symbol
_atom_type_description
_atom_site_fract_x
_atom_site_fract_y
_atom_site_fract_z
_atom_type_partial_charge
C1    C     C_R   0.500000 0.299077 0.478591 0.869421
C2    C     C_R   0.496994 0.700232 0.520480 0.936446
C3    C     C_R   0.870545 0.487272 0.503485 -0.278568
C4    C     C_R   0.127260 0.504773 0.495284 -0.189501
C5    C     C_R   0.953743 0.517723 0.604795 -0.039933
C6    C     C_R   0.043692 0.460657 0.396313 -0.077413
C7    C     C_R   0.487509 0.813218 0.530184 -0.333552
C8    C     C_R   0.490038 0.183497 0.466539 -0.373570
C9    C     C_R   0.420025 0.013156 0.349668 0.461042
C10   C     C_R   0.493760 0.980546 0.650003 0.425605
C11   C     C_R   0.472512 0.117813 0.358631 0.261219
C12   C     C_R   0.529210 0.882395 0.634038 0.228765
C13   C     C_R   0.490853 0.136484 0.564647 0.469049
C14   C     C_R   0.428150 0.853168 0.438008 0.442543
C15   C     C_R   0.473089 0.027400 0.553994 -0.248206
C16   C     C_R   0.438250 0.963514 0.445597 -0.196740
C17   C     C_R   0.382970 0.388715 0.025772 0.465452
C18   C     C_R   0.598088 0.619501 0.975397 0.455250
C19   C     C_R   0.393752 0.406219 0.145694 -0.038517
C20   C     C_R   0.601529 0.596549 0.856797 -0.077844
C21   C     C_R   0.547241 0.553740 0.158690 0.488773
C22   C     C_R   0.444601 0.450317 0.840009 0.577560
C23   C     C_R   0.262484 0.502990 0.498262 0.862307
C24   C     C_R   0.736650 0.493722 0.501410 0.888131
C25   C     C_R   0.533468 0.545252 0.034022 -0.242314
C26   C     C_R   0.453329 0.459229 0.965187 -0.260060
C27   C     C_R   0.132628 0.532356 0.123017 -0.303444
C28   C     C_R   0.902819 0.321925 0.799189 -0.228358
C29   C     C_R   0.118849 0.538851 0.238618 0.468624
C30   C     C_R   0.930496 0.366760 0.704322 0.484519
C31   C     C_R   0.085482 0.447427 0.282461 -0.045798
C32   C     C_R   0.923668 0.473627 0.706540 0.015817
C33   C     C_R   0.069633 0.349087 0.210427 0.455396
C34   C     C_R   0.899576 0.535661 0.807081 0.516480
C35   C     C_R   0.074666 0.345384 0.093510 -0.221034
C36   C     C_R   0.860126 0.486852 0.896276 -0.271859
C37   C     C_R   0.106091 0.436666 0.050610 -0.184033
C38   C     C_R   0.859322 0.380167 0.890651 -0.311869
C39   C     C_R   0.915292 0.449388 0.401263 0.444716
C40   C     C_R   0.079830 0.540938 0.597173 0.497435
Cu1   Cu    Cu3+1 0.509250 0.507730 0.615930 1.078059
Cu2   Cu    Cu3+1 0.490750 0.492270 0.384070 1.042656
H1    H     H_    0.110591 0.433720 0.960818 0.256184
H2    H     H_    0.831001 0.343175 0.959896 0.179457
H3    H     H_    0.657411 0.647873 0.814834 0.234996
H4    H     H_    0.334521 0.359163 0.189987 0.152199
H5    H     H_    0.160683 0.601627 0.088719 0.142998
H6    H     H_    0.911997 0.241268 0.800971 0.165140
H7    H     H_    0.053979 0.271463 0.035597 0.194609
H8    H     H_    0.834110 0.531638 0.971786 0.171322
N1    N     N_R   0.523180 0.519350 0.790130 -0.284481
N2    N     N_R   0.476820 0.480650 0.209870 -0.288381
O1    O     O_R   0.506570 0.354460 0.582000 -0.512567
O2    O     O_R   0.493430 0.645540 0.418000 -0.530122
O3    O     O_R   0.490940 0.341410 0.386200 -0.545586
O4    O     O_R   0.509060 0.658590 0.613800 -0.535447
O5    O     O_R   0.327460 0.506540 0.597900 -0.478740
O6    O     O_R   0.672540 0.493460 0.402100 -0.494955
O7    O     O_R   0.311830 0.493480 0.402100 -0.614949
O8    O     O_R   0.688170 0.506520 0.597900 -0.606341
S1    S     S_3+6 0.322728 0.352102 0.755096 0.106430
O9    O     O_2   0.342728 0.248240 0.783343 -0.256632
O10   O     O_2   0.203799 0.378786 0.794161 -0.271962
O11   O     O_3   0.293624 0.327195 0.612416 -0.515620
H9    H     H_    0.229252 0.265103 0.594156 0.356100
S2    S     S_3+6 0.668849 0.654822 0.240731 -0.014762
O12   O     O_2   0.782356 0.640999 0.184319 -0.430471
O13   O     O_2   0.638037 0.760794 0.231221 -0.282260
O14   O     O_3   0.713091 0.667414 0.380910 -0.514061
H10   H     H_    0.780351 0.727343 0.399638 0.351555
O15   O     O_3   0.289013 0.311441 0.971304 -0.534884
C41   C     C_3   0.304018 0.213280 0.000333 -0.168027
H11   H     H_    0.275519 0.206031 0.085291 0.127263
H12   H     H_    0.399697 0.196529 0.994128 0.207182
H13   H     H_    0.241474 0.152509 0.938369 0.168367
O16   O     O_3   0.628827 0.723313 0.026274 -0.495425
C42   C     C_3   0.749841 0.765471 0.011758 -0.013155
H14   H     H_    0.752171 0.797888 0.932580 0.219123
H15   H     H_    0.813795 0.707915 0.012280 0.125830
H16   H     H_    0.784729 0.830528 0.083547 0.194687
O17   O     O_3   0.144943 0.633696 0.311568 -0.570343
C43   C     C_3   0.045669 0.689966 0.299390 -0.254094
H17   H     H_    0.964517 0.652162 0.332989 0.187793
H18   H     H_    0.022807 0.700285 0.209503 0.168319
H19   H     H_    0.072259 0.768762 0.351862 0.199654
O18   O     O_3   0.981609 0.311791 0.616221 -0.570562
C44   C     C_3   0.893150 0.230595 0.553540 -0.279939
H20   H     H_    0.807295 0.259681 0.523820 0.175231
H21   H     H_    0.873342 0.167428 0.603361 0.134795
H22   H     H_    0.931450 0.196361 0.476103 0.232390
O19   O     O_3   0.031693 0.257722 0.248656 -0.531867
C45   C     C_3   0.128987 0.234474 0.321671 -0.299884
H23   H     H_    0.140687 0.285905 0.406172 0.185629
H24   H     H_    0.217479 0.239220 0.284079 0.129997
H25   H     H_    0.105412 0.153514 0.336084 0.171626
O20   O     O_3   0.914215 0.642826 0.817059 -0.568124
C46   C     C_3   0.015966 0.686616 0.900199 -0.350772
H26   H     H_    0.100181 0.651526 0.883654 0.216308
H27   H     H_    0.997226 0.677026 0.987533 0.135211
H28   H     H_    0.036274 0.771193 0.899116 0.185719
O21   O     O_3   0.836191 0.375956 0.321081 -0.517981
C47   C     C_3   0.808342 0.411008 0.217374 -0.071359
H29   H     H_    0.820194 0.349008 0.146851 0.158049
H30   H     H_    0.865738 0.483931 0.208311 0.126744
H31   H     H_    0.709968 0.420423 0.206166 0.202915
O22   O     O_3   0.157873 0.587076 0.694801 -0.549172
C48   C     C_3   0.194166 0.692488 0.687442 -0.302207
H32   H     H_    0.113319 0.735197 0.684270 0.173966
H33   H     H_    0.244536 0.700879 0.612474 0.155191
H34   H     H_    0.257912 0.729615 0.765081 0.194304
O23   O     O_3   0.331878 0.789384 0.366254 -0.569796
C49   C     C_3   0.364106 0.753832 0.256862 0.020104
H35   H     H_    0.445558 0.800226 0.234805 0.227257
H36   H     H_    0.286336 0.758421 0.192417 0.147735
H37   H     H_    0.375847 0.670890 0.247213 0.165876
O24   O     O_3   0.512817 0.196777 0.672020 -0.471005
C50   C     C_3   0.639923 0.216909 0.708324 -0.142599
H38   H     H_    0.687201 0.147395 0.688984 0.116069
H39   H     H_    0.652193 0.241317 0.802387 0.199321
H40   H     H_    0.682692 0.281813 0.670291 0.126322
S3    S     S_3+6 0.627465 0.854324 0.746796 -0.010639
O25   O     O_2   0.547101 0.803009 0.822163 -0.280694
O26   O     O_2   0.716007 0.784247 0.702104 -0.322176
O27   O     O_3   0.709257 0.964283 0.824352 -0.499476
H41   H     H_    0.763019 0.992654 0.771586 0.330675
S4    S     S_3+6 0.560158 0.148365 0.248330 0.017810
O28   O     O_2   0.510460 0.230294 0.191548 -0.354596
O29   O     O_2   0.690525 0.187927 0.300718 -0.254035
O30   O     O_3   0.560603 0.042315 0.148628 -0.457666
H42   H     H_    0.606373 0.068048 0.088966 0.384296
O31   O     O_3   0.371095 0.957591 0.243552 -0.534359
C51   C     C_3   0.255323 0.986893 0.213454 -0.298211
H43   H     H_    0.265250 0.068717 0.199264 0.159686
H44   H     H_    0.192081 0.975171 0.278937 0.148430
H45   H     H_    0.212462 0.936712 0.131867 0.175804
O32   O     O_3   0.495471 0.034212 0.759800 -0.493662
C52   C     C_3   0.384247 0.999909 0.800532 -0.138298
H46   H     H_    0.361758 0.913548 0.786639 0.129619
H47   H     H_    0.306792 0.033109 0.760003 0.154742
H48   H     H_    0.394035 0.027011 0.894038 0.178664

loop_
_geom_bond_atom_site_label_1
_geom_bond_atom_site_label_2
_ccdc_geom_bond_type
S2    O13   D    
C44   H20   S    
O21   C47   S    
C21   S2    S    
C27   C29   A    
C1    C8    S    
Cu1   Cu2   S    
C2    C7    S    
Cu2   O6    S    
C49   H36   S    
C46   H26   S    
C19   H4    S    
C42   H14   S    
C23   O7    A    
C52   H47   S    
S4    O28   D    
C17   C26   A    
C35   C37   A    
C9    C16   A    
C34   O20   S    
C20   N1    A    
C10   C15   A    
C50   H39   S    
S2    O14   S    
O22   C48   S    
C15   C16   A    
O24   C50   S    
C47   H31   S    
S1    O10   D    
C1    O1    A    
S3    O27   S    
C17   C19   A    
C19   N2    A    
C7    C14   A    
C12   S3    S    
C4    C40   A    
C51   H43   S    
C35   H7    S    
S4    O29   D    
C48   H32   S    
C31   C33   A    
C30   O18   S    
C18   C20   A    
C20   H3    S    
C5    C32   S    
C42   H15   S    
C6    C31   S    
C3    C39   A    
C48   H33   S    
C3    C24   S    
S1    O9    D    
C18   C25   A    
C41   H13   S    
C49   H35   S    
C46   H27   S    
C39   O21   S    
C9    O31   S    
C7    C12   A    
C52   H48   S    
C8    C11   A    
C11   S4    S    
O16   C42   S    
C4    C6    A    
C2    O2    A    
C50   H40   S    
O19   C45   S    
C4    C23   S    
O18   C44   S    
C41   H11   S    
S4    O30   S    
C25   C26   A    
C45   H25   S    
O17   C43   S    
C32   C34   A    
C37   H1    S    
S1    O11   S    
Cu1   O4    S    
C38   H2    S    
Cu2   O3    S    
C28   C38   A    
C24   O8    A    
O20   C46   S    
C45   H24   S    
C47   H30   S    
C14   O23   S    
C9    C11   A    
Cu1   O1    S    
S3    O25   D    
C10   C12   A    
C51   H44   S    
C41   H12   S    
C29   O17   S    
C17   O15   S    
C43   H18   S    
C13   C15   A    
C48   H34   S    
C14   C16   A    
C5    C40   A    
O31   C51   S    
C46   H28   S    
C36   H8    S    
C40   O22   S    
O30   H42   S    
C42   H16   S    
C27   H5    S    
C23   O5    A    
C21   C25   A    
C28   H6    S    
C18   O16   S    
O23   C49   S    
Cu1   O8    S    
C10   O32   S    
O32   C52   S    
C3    C5    A    
Cu2   O7    S    
C43   H19   S    
C52   H46   S    
O11   H9    S    
C33   O19   S    
C1    O3    A    
Cu1   O5    S    
O15   C41   S    
C29   C31   A    
C2    O4    A    
C50   H38   S    
Cu2   O2    S    
C22   S1    S    
C30   C32   A    
C27   C37   A    
C51   H45   S    
C28   C30   A    
C45   H23   S    
C33   C35   A    
S2    O12   D    
C34   C36   A    
C49   H37   S    
C47   H29   S    
O14   H10   S    
S3    O26   D    
C13   O24   S    
C36   C38   A    
C8    C13   A    
C24   O6    A    
C43   H17   S    
C22   C26   A    
C44   H22   S    
C44   H21   S    
C6    C39   A    
O27   H41   S    
Cu1   N1    S    
C21   N2    A    
Cu2   N2    S    
C22   N1    A    
