data_mof_unit_5369.cif
_audit_creation_date              2012-12-11T14:15:50-0500
_audit_creation_method            fapswitch 2.2
_symmetry_space_group_name_H-M    P1
_symmetry_Int_Tables_number       1
_space_group_crystal_system       triclinic
_cell_length_a                    11.152804
_cell_length_b                    12.708335
_cell_length_c                    23.510337
_cell_angle_alpha                 90.545769
_cell_angle_beta                  96.577171
_cell_angle_gamma                 68.623748
_cell_volume                      3080.67857625

loop_
_atom_site_label
_atom_site_type_symbol
_atom_type_description
_atom_site_fract_x
_atom_site_fract_y
_atom_site_fract_z
_atom_type_partial_charge
C1    C     C_R   0.149662 0.616712 0.428880 0.546371
C2    C     C_2   0.180047 0.233390 0.226502 -0.120099
C3    C     C_2   0.156008 0.164910 0.262938 -0.120795
C4    C     C_R   0.749952 0.603911 0.403894 0.544729
C5    C     C_1   0.133027 0.198443 0.320732 -0.045003
C6    C     C_1   0.209610 0.197968 0.169599 -0.044533
C7    C     C_1   0.116582 0.231713 0.368518 -0.000534
C8    C     C_1   0.167147 0.750167 0.123760 -0.002083
C9    C     C_2   0.142455 0.689293 0.228148 -0.124062
C10   C     C_2   0.236903 0.676253 0.271430 -0.125877
C11   C     C_1   0.218438 0.652524 0.329139 -0.047336
C12   C     C_R   0.664405 0.556266 0.310478 -0.128695
C13   C     C_1   0.154907 0.721141 0.170875 -0.045845
C14   C     C_1   0.194387 0.634871 0.376152 -0.002237
C15   C     C_1   0.629199 0.755028 0.865093 -0.004344
C16   C     C_R   0.101308 0.282166 0.423419 0.546654
C17   C     C_2   0.701627 0.700190 0.762149 -0.132112
C18   C     C_2   0.611443 0.707088 0.717964 -0.128425
C19   C     C_1   0.649805 0.671216 0.662271 -0.055835
C20   C     C_1   0.665226 0.731959 0.818530 -0.049475
C21   C     C_1   0.689261 0.640291 0.616984 -0.010847
C22   C     C_R   0.194574 0.191590 0.857503 0.044169
C23   C     C_R   0.714213 0.727584 0.317810 -0.126862
C24   C     C_R   0.101762 0.242879 0.644575 0.000698
C25   C     C_R   0.991747 0.196997 0.718821 -0.009166
C26   C     C_R   0.001573 0.212089 0.660827 -0.130822
C27   C     C_R   0.188746 0.263966 0.686314 -0.122465
C28   C     C_R   0.146331 0.614788 0.591912 0.543415
C29   C     C_R   0.179411 0.251647 0.743661 -0.003562
C30   C     C_R   0.086105 0.211020 0.760731 0.025207
C31   C     C_R   0.094335 0.181755 0.818636 -0.176044
C32   C     C_R   0.269159 0.253033 0.841747 0.244946
C33   C     C_R   0.262538 0.280833 0.784089 -0.130160
C34   C     C_R   0.705294 0.735659 0.258244 0.040128
C35   C     C_R   0.128020 0.739783 0.854828 0.015116
C36   C     C_R   0.175378 0.628604 0.652447 0.017835
C37   C     C_R   0.311475 0.571476 0.742633 -0.148979
C38   C     C_R   0.294733 0.564548 0.683284 -0.144784
C39   C     C_R   0.071862 0.695892 0.681050 -0.119097
C40   C     C_R   0.749621 0.602325 0.566002 0.544231
C41   C     C_R   0.087159 0.702458 0.739671 0.039688
C42   C     C_R   0.208319 0.641340 0.770796 0.045014
C43   C     C_R   0.226488 0.657442 0.828915 -0.117531
C44   C     C_R   0.004550 0.791969 0.824965 -0.138904
C45   C     C_R   0.684717 0.648608 0.225709 0.041108
C46   C     C_R   0.983949 0.772754 0.767246 -0.157959
C47   C     C_R   0.265606 0.110204 0.069380 0.546959
C48   C     C_R   0.600913 0.774525 0.080983 0.542260
C49   C     C_R   0.189476 0.787881 0.069805 0.545569
C50   C     C_R   0.239942 0.118231 0.908984 0.575393
C51   C     C_R   0.573978 0.776306 0.918175 0.543355
C52   C     C_R   0.098617 0.281712 0.586246 0.542936
C53   C     C_R   0.164017 0.785402 0.907884 0.544734
C54   C     C_R   0.670429 0.752819 0.138816 0.006285
C55   C     C_R   0.699068 0.635037 0.344091 0.008376
C56   C     C_R   0.679720 0.653174 0.166959 -0.117603
C57   C     C_R   0.661026 0.561197 0.251729 -0.143096
C58   C     C_R   0.872342 0.184213 0.733814 0.022431
C59   C     C_R   0.874107 0.080650 0.754856 -0.105320
C60   C     C_R   0.759063 0.070735 0.767804 -0.104241
C61   C     C_R   0.642131 0.163351 0.759357 -0.094076
C62   C     C_R   0.639627 0.266307 0.737929 -0.113748
C63   C     C_R   0.754183 0.276856 0.725155 -0.087367
C64   C     C_R   0.694636 0.838771 0.170477 -0.131873
C65   C     C_R   0.716294 0.828345 0.230313 -0.139144
C66   C     C_1   0.235176 0.162950 0.122869 0.002131
Cr1   Cr    Cr6+3 0.189770 0.415650 0.511620 1.028683
Cr2   Cr    Cr6+3 0.930400 0.667320 0.496770 1.022323
Cr3   Cr    Cr6+3 0.879870 0.417010 0.491650 1.024749
Cr4   Cr    Cr6+3 0.149500 0.973980 0.985330 1.029475
Cr5   Cr    Cr6+3 0.457000 0.976510 0.994660 1.057351
Cr6   Cr    Cr6+3 0.411170 0.724270 0.995270 1.030136
H1    H     H_    0.665309 0.584349 0.143111 0.135605
H2    H     H_    0.688717 0.916240 0.149439 0.136441
H3    H     H_    0.927343 0.853074 0.845253 0.131095
H4    H     H_    0.404843 0.524060 0.766329 0.101826
H5    H     H_    0.890131 0.818014 0.743393 0.106646
H6    H     H_    0.373866 0.509585 0.661612 0.119856
H7    H     H_    0.977365 0.742346 0.657842 0.135932
H8    H     H_    0.640428 0.496373 0.226690 0.112294
H9    H     H_    0.732625 0.895767 0.254595 0.113625
H10   H     H_    0.650251 0.485135 0.329660 0.144226
H11   H     H_    0.738944 0.789724 0.343482 0.125209
H12   H     H_    0.052665 0.679760 0.235908 0.142476
H13   H     H_    0.156507 0.082483 0.249953 0.138316
H14   H     H_    0.180407 0.315473 0.239683 0.138995
H15   H     H_    0.326343 0.686795 0.264027 0.141833
H16   H     H_    0.398135 0.320670 0.864063 0.314364
H17   H     H_    0.964187 0.008316 0.761186 0.120460
H18   H     H_    0.759660 0.991453 0.784239 0.107648
H19   H     H_    0.553475 0.155138 0.769272 0.119839
H20   H     H_    0.548924 0.337784 0.731086 0.094427
H21   H     H_    0.750948 0.357189 0.708508 0.118902
H22   H     H_    0.509052 0.738956 0.723487 0.142136
H23   H     H_    0.803865 0.665758 0.756628 0.142971
H24   H     H_    0.032913 0.140282 0.832441 0.141530
H25   H     H_    0.326426 0.320346 0.770560 0.085751
H26   H     H_    0.927682 0.204754 0.628523 0.130708
H27   H     H_    0.261229 0.295238 0.674385 0.136347
H28   H     H_    0.321787 0.614685 0.852222 0.133950
O1    O     O_R   0.196340 0.303200 0.448500 -0.504445
O2    O     O_R   0.555390 0.700940 0.062700 -0.520442
O3    O     O_R   0.295020 0.731920 0.049950 -0.492258
O4    O     O_R   0.199310 0.519670 0.454880 -0.492094
O5    O     O_R   0.094290 0.884230 0.921550 -0.516643
O6    O     O_R   0.168980 0.069410 0.926940 -0.520139
O7    O     O_R   0.358400 0.089990 0.927950 -0.449661
O8    O     O_R   0.544850 0.873850 0.939920 -0.494768
O9    O     O_R   0.536020 0.701900 0.936430 -0.510334
O10   O     O_R   0.277070 0.732810 0.932890 -0.505936
O11   O     O_3   0.339220 0.891590 0.991750 -0.254828
O12   O     O_R   0.811960 0.658090 0.547150 -0.498434
O13   O     O_R   0.045660 0.691380 0.441680 -0.508138
O14   O     O_R   0.811930 0.659460 0.430950 -0.503151
O15   O     O_R   0.757900 0.507620 0.421760 -0.518051
O16   O     O_R   0.988630 0.322990 0.439840 -0.494731
O17   O     O_R   0.196380 0.301720 0.573850 -0.519569
O18   O     O_R   0.199350 0.518300 0.571080 -0.502479
O19   O     O_R   0.045700 0.689900 0.567030 -0.521847
O20   O     O_3   0.353579 0.277861 0.882611 -0.678382
O21   O     O_R   0.757930 0.506140 0.547110 -0.509058
O22   O     O_R   0.988670 0.321620 0.556040 -0.502211
O23   O     O_3   0.000020 0.499990 0.500010 -0.249311
O24   O     O_R   0.113660 0.883270 0.047820 -0.506835
O25   O     O_R   0.186930 0.068530 0.043990 -0.496679
O26   O     O_R   0.377770 0.089040 0.054220 -0.503009
O27   O     O_R   0.562800 0.872960 0.056970 -0.501490

loop_
_geom_bond_atom_site_label_1
_geom_bond_atom_site_label_2
_ccdc_geom_bond_type
C53   O10   A    
C24   C52   S    
Cr3   O16   S    
C8    C13   T    
Cr5   O7    S    
C3    H13   S    
C41   C42   A    
C4    O15   A    
C24   C27   A    
C39   C41   A    
C48   C54   S    
C40   O21   A    
C27   H27   S    
C37   C38   A    
C22   C32   A    
C4    O14   A    
C19   C21   T    
C24   C26   A    
Cr2   O19   S    
C59   H17   S    
C30   C31   A    
C11   C14   T    
C35   C53   S    
Cr3   O23   S    
C31   H24   S    
C29   C33   A    
C58   C63   A    
C17   C20   S    
C27   C29   A    
C34   C65   A    
C18   C19   S    
Cr2   O12   S    
C37   C42   A    
C9    C13   S    
C52   O22   A    
C45   C56   A    
C51   O8    A    
Cr5   O11   S    
C41   C46   A    
Cr5   O26   S    
C17   H23   S    
C15   C51   S    
H16   O20   S    
C29   C30   A    
C35   C43   A    
C9    C10   D    
C47   C66   S    
Cr2   O13   S    
C22   C50   S    
C52   O17   A    
Cr6   O11   S    
C59   C60   A    
C51   O9    A    
Cr5   O8    S    
C57   H8    S    
Cr5   O27   S    
C2    C6    S    
C1    O13   A    
C32   O20   S    
C16   O16   A    
Cr2   O23   S    
C44   C46   A    
Cr1   O4    S    
C47   O25   A    
Cr6   O10   S    
C15   C20   T    
C45   C57   A    
C54   C56   A    
C10   H15   S    
C22   C31   A    
C43   H28   S    
Cr6   O2    S    
C40   O12   A    
Cr4   O6    S    
C5    C7    T    
C38   H6    S    
C58   C59   A    
C49   O24   A    
Cr4   O5    S    
C62   H20   S    
C60   C61   A    
C39   H7    S    
C44   H3    S    
C62   C63   A    
Cr4   O24   S    
C65   H9    S    
Cr3   O21   S    
C23   C34   A    
C48   O2    A    
C17   C18   D    
C12   H10   S    
C34   C45   A    
C35   C44   A    
Cr1   O17   S    
C1    O4    A    
C23   H11   S    
C26   H26   S    
C12   C57   A    
Cr4   O25   S    
C7    C16   S    
C37   H4    S    
C4    C55   S    
C50   O7    A    
C18   H22   S    
C42   C43   A    
Cr1   O1    S    
C47   O26   A    
C25   C30   A    
Cr6   O9    S    
Cr3   O15   S    
C56   H1    S    
C36   C39   A    
C3    C5    S    
C28   O19   A    
Cr1   O23   S    
C49   O3    A    
C46   H5    S    
C23   C55   A    
Cr6   O3    S    
C60   H18   S    
C63   H21   S    
Cr4   O11   S    
C64   C65   A    
C36   C38   A    
C2    C3    D    
C25   C26   A    
C28   O18   A    
C32   C33   A    
C48   O27   A    
C21   C40   S    
C54   C64   A    
Cr3   O22   S    
C2    H14   S    
C33   H25   S    
C61   C62   A    
Cr1   O18   S    
C12   C55   A    
C10   C11   S    
C9    H12   S    
C53   O5    A    
C16   O1    A    
C6    C66   T    
C28   C36   S    
C25   C58   S    
C50   O6    A    
C64   H2    S    
C1    C14   S    
C8    C49   S    
C61   H19   S    
Cr2   O14   S    
