data_mof_unit_64073.cif
_audit_creation_date              2012-12-11T18:29:00-0500
_audit_creation_method            fapswitch 2.2
_symmetry_space_group_name_H-M    P1
_symmetry_Int_Tables_number       1
_space_group_crystal_system       triclinic
_cell_length_a                    8.247449
_cell_length_b                    14.295239
_cell_length_c                    17.339025
_cell_angle_alpha                 96.730547
_cell_angle_beta                  96.773345
_cell_angle_gamma                 91.664631
_cell_volume                      2014.09420066

loop_
_atom_site_label
_atom_site_type_symbol
_atom_type_description
_atom_site_fract_x
_atom_site_fract_y
_atom_site_fract_z
_atom_type_partial_charge
Ba1   Ba    Ba6+2 0.833220 0.541860 0.459910 1.543076
Ba2   Ba    Ba6+2 0.356600 0.458220 0.540090 1.412651
C1    C     C_3   0.616735 0.849425 0.184914 -0.322418
C2    C     C_3   0.551663 0.769229 0.224686 0.800415
C3    C     C_3   0.466671 0.301555 0.306004 0.241834
C4    C     C_3   0.443066 0.268292 0.218644 0.309687
C5    C     C_3   0.162694 0.257865 0.767624 1.252831
C6    C     C_3   0.210489 0.228386 0.848466 -0.224180
C7    C     C_3   0.608498 0.217964 0.722252 0.187367
C8    C     C_3   0.604382 0.123199 0.754184 1.104354
C9    C     C_2   0.252788 0.518082 0.275394 -0.262550
C10   C     C_3   0.328078 0.581828 0.224339 -0.154692
C11   C     C_2   0.280914 0.551772 0.138413 0.623420
C12   C     C_3   0.071574 0.756310 0.241617 0.184737
C13   C     C_2   0.141510 0.499150 0.113569 0.011150
C14   C     C_2   0.052790 0.458022 0.174164 -0.201697
C15   C     C_1   0.115247 0.468128 0.249566 0.058865
C16   C     C_R   0.889947 0.467575 0.863421 0.486938
C17   C     C_R   0.833681 0.450501 0.783670 -0.007829
C18   C     C_R   0.072658 0.533676 0.751500 0.005960
C19   C     C_R   0.130091 0.551414 0.832119 -0.188009
C20   C     C_R   0.042214 0.515177 0.888620 -0.052615
C21   C     C_2   0.079748 0.477379 0.028118 -0.015494
C22   C     C_2   0.103576 0.536035 0.973646 0.040536
C23   C     C_3   0.033972 0.785989 0.160129 0.397374
C24   C     C_R   0.929282 0.478456 0.728159 0.373542
C25   C     C_R   0.705689 0.937791 0.542575 0.049510
C26   C     C_R   0.511507 0.800171 0.498039 0.043475
C27   C     C_R   0.360396 0.765499 0.457806 -0.251245
C28   C     C_R   0.249563 0.826253 0.425347 -0.038038
C29   C     C_R   0.295278 0.920689 0.425330 -0.116755
C30   C     C_R   0.448861 0.956463 0.462129 0.046403
C31   C     C_R   0.557010 0.897397 0.501397 0.011133
C32   C     C_R   0.639894 0.091632 0.502895 -0.043098
C33   C     C_R   0.748958 0.033494 0.542446 0.079717
C34   C     C_3   0.211239 0.749840 0.623979 0.361426
C35   C     C_R   0.682023 0.188474 0.505915 0.053815
C36   C     C_R   0.826710 0.226330 0.550015 -0.181719
C37   C     C_R   0.941927 0.167840 0.581530 0.052353
C38   C     C_R   0.901868 0.071664 0.579761 -0.035001
C39   C     C_R   0.491898 0.051666 0.462120 -0.049266
C40   C     C_3   0.233776 0.856684 0.641599 1.053562
C41   C     C_3   0.009821 0.243578 0.368719 0.691397
C42   C     C_3   0.966286 0.138730 0.346851 0.904574
C43   C     C_3   0.754116 0.685815 0.691809 0.816546
C44   C     C_3   0.796941 0.724644 0.777726 1.227349
H1    H     H_    0.239480 0.888580 0.586697 0.425983
H2    H     H_    0.868297 0.672412 0.665669 -0.126431
H3    H     H_    0.863640 0.672119 0.809823 -0.365704
H4    H     H_    0.532107 0.908425 0.188020 0.113291
H5    H     H_    0.346010 0.318999 0.324901 -0.006490
H6    H     H_    0.549200 0.365707 0.316509 0.091516
H7    H     H_    0.160523 0.155949 0.850961 0.145405
H8    H     H_    0.725364 0.226631 0.697999 0.055135
H9    H     H_    0.491522 0.114253 0.782077 0.018364
H10   H     H_    0.170120 0.603034 0.991057 0.210790
H11   H     H_    0.939585 0.416616 0.155400 0.147225
H12   H     H_    0.302992 0.523834 0.336551 0.074663
H13   H     H_    0.990850 0.026791 0.605687 0.131739
H14   H     H_    0.789475 0.896267 0.575408 0.124547
H15   H     H_    0.406549 0.094101 0.430951 0.125556
H16   H     H_    0.104269 0.732720 0.578847 -0.073571
O1    O     O_2   0.840370 0.437300 0.310630 -0.429282
O2    O     O_3   0.663892 0.752066 0.653829 -0.577347
O3    O     O_3   0.976428 0.806797 0.292666 -0.570591
O4    O     O_2   0.349330 0.562730 0.689420 -0.364406
O5    O     O_3   0.077250 0.556050 0.591680 -0.431977
O6    O     O_3   0.592420 0.389760 0.648620 -0.407957
O7    O     O_3   0.186463 0.712890 0.692998 -0.561305
O8    O     O_3   0.628930 0.385070 0.464840 -0.396911
O9    O     O_3   0.173020 0.339310 0.611190 -0.397062
O10   O     O_2   0.270614 0.168492 0.564948 -0.490404
O11   O     O_3   0.221580 0.192832 0.711106 -0.646327
O12   O     O_3   0.112450 0.444030 0.408320 -0.474665
O13   O     O_3   0.560770 0.615000 0.535160 -0.426716
O14   O     O_2   0.387340 0.269270 0.471720 -0.494428
O15   O     O_3   0.534993 0.228994 0.345472 -0.653498
O16   O     O_2   0.499567 0.464359 0.783567 -0.341104
O17   O     O_3   0.590097 0.290090 0.782618 -0.579434
O18   O     O_3   0.597270 0.610320 0.351390 -0.452842
O19   O     O_2   0.637748 0.506599 0.218269 -0.412913
O20   O     O_3   0.999232 0.287521 0.300839 -0.646882
O21   O     O_3   0.649946 0.690639 0.215276 -0.561793
O22   O     O_2   0.802370 0.730760 0.528330 -0.485235
O23   O     O_3   0.016680 0.660770 0.388810 -0.484297
O24   O     O_2   0.915728 0.830531 0.436731 -0.442439
P1    P     P_3+3 0.017810 0.410420 0.324030 1.093557
P2    P     P_3+3 0.635890 0.718430 0.552520 1.113028
P3    P     P_3+3 0.040740 0.782056 0.387472 1.025356
P4    P     P_3+3 0.171880 0.589650 0.675980 1.162897
P5    P     P_3+3 0.149923 0.217671 0.616568 1.111482
P6    P     P_3+3 0.553768 0.595812 0.250230 1.145906
P7    P     P_3+3 0.562746 0.266369 0.446090 1.037253
P8    P     P_3+3 0.627777 0.399288 0.750324 1.273847
F1    F     F_    0.550276 0.800211 0.303401 -0.722255
F2    F     F_    0.377235 0.880389 0.690763 -0.597128
F3    F     F_    0.103693 0.892568 0.677318 -0.652523
F4    F     F_    0.904004 0.282503 0.417339 -0.764602
H17   H     H_    0.134844 0.252105 0.398729 0.044569
H18   H     H_    0.837617 0.128445 0.319037 0.026883
F5    F     F_    0.984288 0.092953 0.412965 -0.748672
F6    F     F_    0.068361 0.099944 0.294969 -0.717543
F7    F     F_    0.662521 0.602629 0.687017 -0.696782
H19   H     H_    0.738436 0.876190 0.214467 0.154302
F8    F     F_    0.894749 0.806113 0.784300 -0.589986
F9    F     F_    0.655781 0.744546 0.811264 -0.586629
H20   H     H_    0.425377 0.751765 0.196071 0.031725
H21   H     H_    0.355945 0.206140 0.206090 0.108612
F10   F     F_    0.382110 0.339464 0.177677 -0.704392
H22   H     H_    0.562023 0.248267 0.198910 0.090096
H23   H     H_    0.625603 0.824961 0.122416 0.119415
F11   F     F_    0.139222 0.744791 0.111142 -0.708192
F12   F     F_    0.230531 0.346967 0.766239 -0.713262
F13   F     F_    0.994603 0.260030 0.755541 -0.767956
H24   H     H_    0.345479 0.229977 0.862122 0.099874
H25   H     H_    0.160609 0.277672 0.893331 0.110286
H26   H     H_    0.508090 0.218094 0.673960 0.022229
F14   F     F_    0.738901 0.118264 0.809079 -0.610770
F15   F     F_    0.606245 0.050927 0.694085 -0.681545
H27   H     H_    0.041751 0.679499 0.238193 0.041579
F16   F     F_    0.791312 0.443074 0.915872 -0.662666
H28   H     H_    0.011056 0.410983 0.010371 0.161731
F17   F     F_    0.378145 0.581859 0.087258 -0.668576
H29   H     H_    0.241871 0.593792 0.850767 0.179549
F18   F     F_    0.877166 0.457029 0.650917 -0.672389
H30   H     H_    0.324041 0.691903 0.456412 0.051024
H31   H     H_    0.203664 0.771537 0.261384 0.011701
H32   H     H_    0.209531 0.966514 0.398109 0.170157
H33   H     H_    0.856789 0.300973 0.553580 0.174772
H34   H     H_    0.906900 0.763065 0.135540 0.080526
H35   H     H_    0.048633 0.863841 0.162944 0.092266
H36   H     H_    0.321993 0.721053 0.601858 -0.112347

loop_
_geom_bond_atom_site_label_1
_geom_bond_atom_site_label_2
_ccdc_geom_bond_type
C1    H19   S    
Ba1   P1    S    
C32   C35   A    
C7    H26   S    
C34   C40   S    
C41   F4    S    
C39   H15   S    
O7    P4    S    
C5    C6    S    
O4    P4    D    
C43   C44   S    
C25   C31   A    
Ba1   O22   S    
O3    P3    S    
O21   P6    S    
C44   H3    S    
C35   C36   A    
C40   F2    S    
Ba1   O12   S    
C5    F13   S    
C26   C27   A    
C41   H17   S    
Ba1   Ba2   S    
Ba2   O6    S    
C25   H14   S    
C34   H36   S    
C36   C37   A    
C11   F17   S    
O20   P1    S    
C44   F8    S    
C32   C33   A    
C7    O17   S    
Ba2   P4    S    
C17   C24   A    
C8    F15   S    
C43   F7    S    
C23   F11   S    
O19   P6    D    
C1    H23   S    
C14   C15   D    
C26   P2    S    
C21   C22   D    
C3    H6    S    
O12   P1    S    
C9    H12   S    
C7    C8    S    
C6    H24   S    
C40   H1    S    
Ba1   P2    S    
C13   C21   S    
C38   H13   S    
C16   C20   A    
C19   C20   A    
C4    H22   S    
C32   C39   A    
C29   H32   S    
C28   P3    S    
C34   H16   S    
C23   H34   S    
Ba1   O1    S    
C37   P5    S    
C1    H4    S    
C21   H28   S    
Ba1   O23   S    
C2    H20   S    
Ba1   O13   S    
C36   H33   S    
O8    P7    S    
O11   P5    S    
O17   P8    S    
C5    O11   S    
Ba2   O5    S    
C40   F3    S    
C37   C38   A    
O10   P5    D    
O23   P3    S    
C16   C17   A    
C25   C33   A    
C18   P4    S    
O5    P4    S    
O6    P8    S    
C12   H31   S    
C24   F18   S    
O18   P6    S    
C41   C42   S    
C27   C28   A    
C8    F14   S    
O14   P7    D    
C2    F1    S    
C29   C30   A    
C28   C29   A    
C30   C39   A    
C35   P7    S    
Ba2   O9    S    
C10   C11   S    
C8    H9    S    
C17   P8    S    
C26   C31   A    
C12   H27   S    
C11   C13   D    
C4    F10   S    
C20   C22   S    
C3    O15   S    
C1    C2    S    
C23   H35   S    
Ba2   O14   S    
C34   O7    S    
C43   H2    S    
C41   O20   S    
C9    C15   D    
C42   F6    S    
O1    P1    D    
C15   P1    S    
C10   P6    S    
O22   P2    D    
Ba2   O4    S    
O24   P3    D    
Ba2   O12   S    
C6    H7    S    
C42   F5    S    
C22   H10   S    
C43   O2    S    
Ba1   O8    S    
C30   C31   A    
C5    F12   S    
C19   H29   S    
C33   C38   A    
C42   H18   S    
C3    C4    S    
C2    O21   S    
C18   C24   A    
O16   P8    D    
C44   F9    S    
O15   P7    S    
Ba1   O5    S    
C12   O3    S    
C14   H11   S    
C12   C23   S    
C6    H25   S    
C16   F16   S    
O13   P2    S    
O9    P5    S    
C18   C19   A    
Ba1   O18   S    
C4    H21   S    
C3    H5    S    
C27   H30   S    
C7    H8    S    
Ba2   O8    S    
O2    P2    S    
Ba2   O13   S    
C13   C14   S    
C9    C10   S    
