data_mof_unit_31932.cif
_audit_creation_date              2012-12-10T19:46:55-0500
_audit_creation_method            fapswitch 2.2
_symmetry_space_group_name_H-M    P1
_symmetry_Int_Tables_number       1
_space_group_crystal_system       triclinic
_cell_length_a                    10.933358
_cell_length_b                    10.971798
_cell_length_c                    13.147786
_cell_angle_alpha                 90.349312
_cell_angle_beta                  91.205894
_cell_angle_gamma                 90.325066
_cell_volume                      1576.78477604

loop_
_atom_site_label
_atom_site_type_symbol
_atom_type_description
_atom_site_fract_x
_atom_site_fract_y
_atom_site_fract_z
_atom_type_partial_charge
C1    C     C_R   0.497982 0.259448 0.499361 0.851046
C2    C     C_R   0.504133 0.740485 0.500838 0.840672
C3    C     C_R   0.872984 0.495191 0.502940 -0.098897
C4    C     C_R   0.127092 0.503601 0.495952 -0.097646
C5    C     C_R   0.942769 0.488747 0.594252 0.015595
C6    C     C_R   0.057336 0.506686 0.404110 0.017356
C7    C     C_R   0.275967 0.154031 0.185543 -0.108314
C8    C     C_R   0.715755 0.807971 0.809445 -0.118285
C9    C     C_R   0.313014 0.110317 0.280690 -0.231173
C10   C     C_R   0.684743 0.862713 0.716964 -0.168605
C11   C     C_R   0.436907 0.114424 0.310787 0.033733
C12   C     C_R   0.561589 0.882601 0.690441 0.023684
C13   C     C_R   0.523794 0.162806 0.244281 0.429962
C14   C     C_R   0.469294 0.847321 0.757584 0.417042
C15   C     C_R   0.485152 0.209415 0.150433 -0.199091
C16   C     C_R   0.501268 0.792122 0.849815 -0.180914
C17   C     C_R   0.361823 0.204569 0.120714 -0.174995
C18   C     C_R   0.624212 0.772243 0.875686 -0.204002
C19   C     C_R   0.478616 0.933105 0.412010 -0.224398
C20   C     C_R   0.528512 0.067013 0.589077 -0.195717
C21   C     C_R   0.505284 0.873010 0.502661 -0.073561
C22   C     C_R   0.500060 0.127023 0.498108 -0.077175
C23   C     C_R   0.259523 0.502862 0.498506 0.844007
C24   C     C_R   0.740457 0.495980 0.501235 0.845362
C25   C     C_R   0.530766 0.940565 0.592416 0.060056
C26   C     C_R   0.474398 0.059096 0.408520 0.070063
C27   C     C_1   0.499905 0.500644 0.173639 0.157070
C28   C     C_1   0.499491 0.499683 0.826352 0.165595
C29   C     C_1   0.499467 0.500765 0.050681 -0.088819
C30   C     C_1   0.499145 0.500221 0.949345 -0.121260
C31   C     C_R   0.199368 0.618612 0.158831 0.496963
C32   C     C_R   0.795832 0.330820 0.816802 0.502131
C33   C     C_R   0.163444 0.614270 0.261891 -0.233137
C34   C     C_R   0.836734 0.355690 0.718693 -0.139780
C35   C     C_R   0.109251 0.508169 0.300717 0.084227
C36   C     C_R   0.889998 0.468518 0.695509 0.048185
C37   C     C_R   0.088233 0.407794 0.235889 -0.138622
C38   C     C_R   0.904736 0.557054 0.771989 -0.147919
C39   C     C_R   0.120070 0.413201 0.133873 -0.231462
C40   C     C_R   0.864604 0.534093 0.870048 -0.188690
C41   C     C_R   0.174968 0.517809 0.095756 -0.146446
C42   C     C_R   0.810799 0.422209 0.893018 -0.239474
C43   C     C_R   0.930907 0.503606 0.409426 -0.207680
C44   C     C_R   0.068970 0.495801 0.589486 -0.204618
Cu1   Cu    Cu3+1 0.499990 0.499990 0.592680 1.009105
Cu2   Cu    Cu3+1 0.500010 0.500010 0.407320 0.997773
H1    H     H_    0.198545 0.520856 0.016214 0.158813
H2    H     H_    0.783622 0.408216 0.970629 0.129978
H3    H     H_    0.551117 0.249246 0.100381 0.145280
H4    H     H_    0.430510 0.763722 0.900956 0.186343
H5    H     H_    0.459058 0.881455 0.343496 0.139773
H6    H     H_    0.549187 0.118643 0.658000 0.172220
H7    H     H_    0.173840 0.693340 0.311021 0.117018
H8    H     H_    0.828876 0.285619 0.660408 0.142069
H9    H     H_    0.043725 0.326507 0.263832 0.159784
H10   H     H_    0.948920 0.643161 0.755780 0.153861
H11   H     H_    0.100699 0.336676 0.083675 0.156797
H12   H     H_    0.876945 0.602591 0.929033 0.157177
H13   H     H_    0.877279 0.507413 0.339123 0.173977
H14   H     H_    0.122332 0.490797 0.659857 0.171954
H15   H     H_    0.332997 0.239633 0.047325 0.153391
H16   H     H_    0.648679 0.730150 0.947436 0.154947
H17   H     H_    0.180673 0.148300 0.162114 0.147267
H18   H     H_    0.810871 0.795426 0.830618 0.147598
H19   H     H_    0.245560 0.071138 0.330261 0.151656
H20   H     H_    0.756526 0.890179 0.666242 0.154458
N1    N     N_1   0.500030 0.500030 0.268070 -0.140280
N2    N     N_1   0.499970 0.499970 0.731930 -0.130071
O1    O     O_R   0.499980 0.319630 0.578260 -0.592360
O2    O     O_R   0.500020 0.680370 0.421740 -0.606831
O3    O     O_R   0.500000 0.319650 0.421740 -0.554114
O4    O     O_R   0.500000 0.680350 0.578260 -0.558770
O5    O     O_R   0.319630 0.500000 0.578260 -0.575166
O6    O     O_R   0.680370 0.500000 0.421740 -0.570178
O7    O     O_R   0.319650 0.500020 0.421740 -0.584431
O8    O     O_R   0.680350 0.499980 0.578260 -0.581727
Cl1   Cl    Cl    0.681060 0.165381 0.276001 -0.670906
Cl2   Cl    Cl    0.313464 0.870170 0.727704 -0.645311
O9    O     O_3   0.248564 0.721306 0.113194 -0.583490
C45   C     C_3   0.328014 0.787444 0.179355 0.044440
H21   H     H_    0.380864 0.726998 0.231723 0.150216
H22   H     H_    0.274310 0.853646 0.224211 0.156844
C46   C     C_3   0.419845 0.857271 0.116355 -0.758122
H23   H     H_    0.371536 0.915506 0.059782 0.267171
H24   H     H_    0.478614 0.915902 0.166115 0.211113
H25   H     H_    0.479602 0.792034 0.076475 0.233513
O10   O     O_3   0.750992 0.213587 0.833493 -0.590344
C47   C     C_3   0.677945 0.204999 0.920351 0.026751
H26   H     H_    0.605140 0.275265 0.919135 0.145423
H27   H     H_    0.735535 0.212534 0.990892 0.171344
C48   C     C_3   0.616391 0.080890 0.920765 -0.730262
H28   H     H_    0.687393 0.009740 0.928266 0.263393
H29   H     H_    0.554062 0.072848 0.985727 0.207365
H30   H     H_    0.562401 0.067334 0.849238 0.251487

loop_
_geom_bond_atom_site_label_1
_geom_bond_atom_site_label_2
_ccdc_geom_bond_type
O10   C47   S    
C27   C29   S    
C47   H27   S    
C39   C41   A    
Cu1   Cu2   S    
C15   H3    S    
C3    C43   A    
C1    O3    A    
C2    C21   S    
Cu1   O8    S    
Cu1   O5    S    
C35   C37   A    
C16   H4    S    
C20   C25   A    
C39   H11   S    
C5    C36   S    
C6    C35   S    
C7    C9    A    
C19   C26   A    
C17   H15   S    
C7    C17   A    
C31   C33   A    
C43   H13   S    
C40   C42   A    
C1    C22   S    
C1    O1    A    
Cu1   O4    S    
C3    C24   S    
C23   O5    A    
C45   C46   S    
C2    O4    A    
Cu2   O7    S    
C10   H20   S    
C33   H7    S    
C13   Cl1   S    
C40   H12   S    
Cu1   O1    S    
C45   H22   S    
C23   O7    A    
C48   H28   S    
C4    C23   S    
C18   H16   S    
C4    C44   A    
C11   C26   S    
C32   O10   S    
C8    C18   A    
C32   C34   A    
C29   C30   T    
C48   H29   S    
C46   H23   S    
C47   C48   S    
Cu1   N2    S    
C41   H1    S    
C16   C18   A    
C42   H2    S    
C9    C11   A    
C7    H17   S    
Cu2   O3    S    
C10   C12   A    
C8    H18   S    
C4    C6    A    
C46   H24   S    
C5    C44   A    
C20   C22   A    
C34   H8    S    
C6    C43   A    
C13   C15   A    
C14   C16   A    
Cu2   O6    S    
C15   C17   A    
C21   C25   A    
C31   C41   A    
C28   N2    T    
C8    C10   A    
C24   O8    A    
C12   C14   A    
C45   H21   S    
C3    C5    A    
C31   O9    S    
C12   C25   S    
C36   C38   A    
Cu2   N1    S    
C37   C39   A    
C48   H30   S    
C38   C40   A    
C11   C13   A    
C24   O6    A    
C44   H14   S    
C28   C30   S    
C33   C35   A    
C34   C36   A    
C14   Cl2   S    
C9    H19   S    
Cu2   O2    S    
C27   N1    T    
O9    C45   S    
C37   H9    S    
C19   H5    S    
C46   H25   S    
C38   H10   S    
C47   H26   S    
C20   H6    S    
C22   C26   A    
C32   C42   A    
C2    O2    A    
C19   C21   A    
