data_mof_unit_13603.cif
_audit_creation_date              2013-03-05T16:33:41-0500
_audit_creation_method            fapswitch 2.2
_symmetry_space_group_name_H-M    P1
_symmetry_Int_Tables_number       1
_space_group_crystal_system       triclinic
_cell_length_a                    9.075103
_cell_length_b                    10.863034
_cell_length_c                    9.562378
_cell_angle_alpha                 90.111549
_cell_angle_beta                  90.006346
_cell_angle_gamma                 90.097271
_cell_volume                      942.686216867

loop_
_atom_site_label
_atom_site_type_symbol
_atom_site_description
_atom_site_fract_x
_atom_site_fract_y
_atom_site_fract_z
_atom_type_partial_charge
O1    O     O_R   0.500000 0.319640 0.618810 -0.567543
O2    O     O_R   0.500020 0.319680 0.381230 -0.595973
C1    C     C_R   0.499079 0.262782 0.499762 0.799338
O3    O     O_R   0.288380 0.499980 0.618770 -0.575790
O4    O     O_R   0.288400 0.500020 0.381190 -0.589278
C2    C     C_R   0.220730 0.500026 0.499979 0.860810
Cu1   Cu    Cu3+1 0.499990 0.499980 0.640670 0.984831
Cu2   Cu    Cu3+1 0.500010 0.500020 0.359330 0.952992
O5    O     O_R   0.499980 0.680320 0.618770 -0.555507
O6    O     O_R   0.500000 0.680360 0.381190 -0.581063
O7    O     O_R   0.711600 0.499980 0.618810 -0.588294
O8    O     O_R   0.711620 0.500020 0.381230 -0.584289
C3    C     C_R   0.499883 0.737277 0.499954 0.816673
C4    C     C_R   0.779264 0.500113 0.500031 0.835213
C5    C     C_1   0.065559 0.500120 0.499999 -0.179445
C6    C     C_1   0.934427 0.500156 0.500037 -0.188972
C7    C     C_R   0.494547 0.062581 0.620850 0.002381
C8    C     C_R   0.496203 0.130206 0.498069 -0.078758
C9    C     C_R   0.495777 0.064345 0.370704 -0.205791
H1    H     H_    0.496644 0.111892 0.271382 0.163028
C10   C     C_R   0.496119 0.935230 0.370818 -0.189614
H2    H     H_    0.496506 0.887355 0.271343 0.188230
C11   C     C_R   0.497668 0.869954 0.498437 -0.082758
C12   C     C_R   0.496199 0.938361 0.621147 0.016896
C13   C     C_3   0.503878 0.930258 0.777234 0.141320
C14   C     C_3   0.501241 0.073279 0.776371 -0.013949
H3    H     H_    0.609793 0.891576 0.814936 0.062541
H4    H     H_    0.605189 0.117518 0.812624 0.129166
C15   C     C_R   0.628835 0.509724 0.073629 0.241764
N1    N     N_R   0.500920 0.500930 0.147930 -0.183676
C16   C     C_R   0.374093 0.479383 0.074057 -0.059735
H5    H     H_    0.271461 0.463512 0.128241 0.141822
C17   C     C_R   0.374072 0.479468 0.925743 0.010282
H6    H     H_    0.271423 0.463710 0.871461 0.143441
N2    N     N_R   0.500930 0.500890 0.852020 -0.177954
C18   C     C_R   0.628981 0.509035 0.926423 0.236695
C19   C     C_3   0.737443 0.612051 0.920482 -0.462305
C20   C     C_3   0.736189 0.613671 0.079249 -0.463413
H7    H     H_    0.844857 0.582323 0.876013 0.200386
H8    H     H_    0.690565 0.696297 0.872813 0.219598
H9    H     H_    0.843208 0.585636 0.125827 0.197629
H10   H     H_    0.687553 0.698955 0.124148 0.222786
N3    N     N_R   0.374068 0.871509 0.839611 0.158939
O9    O     O_R   0.251879 0.859112 0.769459 -0.367597
O10   O     O_R   0.386367 0.818207 0.960744 -0.389162
N4    N     N_2   0.368917 0.129700 0.833049 -0.376774
H11   H     H_    0.269886 0.097737 0.794280 0.295302
C21   C     C_3   0.370252 0.150821 0.982290 -0.641549
H12   H     H_    0.271063 0.204229 0.012681 0.209424
H13   H     H_    0.469419 0.204721 0.012703 0.213148
H14   H     H_    0.369331 0.061871 0.039178 0.254555

loop_
_geom_bond_atom_site_label_1
_geom_bond_atom_site_label_2
_geom_bond_distance
_ccdc_geom_bond_type
C15   C20   1.491007 S    
O4    Cu2   1.931749 S    
C11   C12   1.387758 A    
C16   C17   1.418237 A    
C20   H10   1.112362 S    
C15   N1    1.364389 A    
C13   H3    1.110103 S    
C14   H4    1.112996 S    
N2    C18   1.365165 A    
N1    C16   1.369953 A    
Cu2   O8    1.931745 S    
Cu2   N1    2.021549 S    
C13   N3    1.466265 S    
C21   H13   1.111217 S    
C7    C8    1.386239 A    
C2    C5    1.408198 S    
Cu1   Cu2   2.690279 S    
C19   H7    1.111732 S    
C16   H5    1.079618 S    
C10   H2    1.083220 S    
Cu1   O7    1.931750 S    
N3    O10   1.300855 A    
C15   C18   1.407642 A    
C19   C20   1.518304 S    
C20   H9    1.111670 S    
O3    Cu1   1.931744 S    
C7    C14   1.492688 S    
Cu2   O6    1.969755 S    
C21   H12   1.110172 S    
C17   N2    1.369821 A    
O8    C4    1.291214 A    
C17   H6    1.079599 S    
C19   H8    1.108690 S    
N4    C21   1.445035 S    
C10   C11   1.412670 A    
N3    O9    1.302584 A    
O4    C2    1.291341 A    
O7    C4    1.291236 A    
C4    C6    1.408114 S    
C7    C12   1.349525 A    
C14   N4    1.453544 S    
C5    C6    1.190036 T    
C12   C13   1.496949 S    
C3    C11   1.441556 S    
C1    C8    1.440431 S    
O3    C2    1.291158 A    
C8    C9    1.411305 A    
Cu1   O5    1.970607 S    
O5    C3    1.294773 A    
N4    H11   1.031527 S    
C18   C19   1.490266 S    
O2    C1    1.292098 A    
C9    C10   1.402594 A    
C13   C14   1.553900 S    
O1    Cu1   1.969755 S    
Cu1   N2    2.021031 S    
C21   H14   1.109809 S    
O2    Cu2   1.970605 S    
C9    H1    1.082026 S    
O1    C1    1.294112 A    
O6    C3    1.292008 A    
