data_mof_unit_68314.cif
_audit_creation_date              2012-12-11T17:41:23-0500
_audit_creation_method            fapswitch 2.2
_symmetry_space_group_name_H-M    P1
_symmetry_Int_Tables_number       1
_space_group_crystal_system       triclinic
_cell_length_a                    8.178258
_cell_length_b                    12.664652
_cell_length_c                    14.195604
_cell_angle_alpha                 92.785019
_cell_angle_beta                  90.650975
_cell_angle_gamma                 98.334313
_cell_volume                      1452.80879037

loop_
_atom_site_label
_atom_site_type_symbol
_atom_type_description
_atom_site_fract_x
_atom_site_fract_y
_atom_site_fract_z
_atom_type_partial_charge
Ba1   Ba    Ba6+2 0.855630 0.555280 0.454520 1.636128
Ba2   Ba    Ba6+2 0.334200 0.444810 0.545490 1.634334
C1    C     C_3   0.616483 0.949746 0.172441 0.448775
C2    C     C_R   0.183011 0.498599 0.195867 0.042235
C3    C     C_R   0.337786 0.550960 0.226053 -0.304110
C4    C     C_3   0.137817 0.804396 0.194103 0.324387
C5    C     C_R   0.450375 0.598249 0.162388 0.022756
C6    C     C_R   0.405478 0.601278 0.067528 -0.117383
C7    C     C_R   0.248567 0.552352 0.034689 -0.013014
C8    C     C_R   0.137361 0.496972 0.098015 -0.025934
C9    C     C_R   0.052725 0.502146 0.901878 -0.024276
C10   C     C_R   0.941548 0.446703 0.965203 -0.003017
C11   C     C_R   0.007523 0.500004 0.803922 0.042966
C12   C     C_3   0.648942 0.856842 0.230555 0.398574
C13   C     C_R   0.854030 0.445576 0.773454 -0.293409
C14   C     C_R   0.740632 0.399242 0.837246 0.014072
C15   C     C_R   0.784879 0.397356 0.932312 -0.148141
C16   C     C_3   0.118393 0.841596 0.094772 -0.298773
C17   C     C_R   0.204295 0.556535 0.938810 -0.033155
C18   C     C_R   0.763766 0.176601 0.536779 -0.275721
C19   C     C_R   0.430234 0.813092 0.460128 -0.281259
C20   C     C_R   0.406646 0.994831 0.426737 -0.108224
C21   C     C_R   0.341937 0.887292 0.421709 -0.010390
C22   C     C_R   0.576718 0.846203 0.511803 0.069407
C23   C     C_3   0.475387 0.310375 0.257742 0.299657
C24   C     C_R   0.641445 0.956861 0.521487 -0.056011
C25   C     C_R   0.555787 0.031468 0.476515 -0.064671
C26   C     C_R   0.619358 0.141272 0.484569 0.042959
C27   C     C_R   0.853068 0.104517 0.577144 -0.010679
C28   C     C_3   0.226182 0.762601 0.655949 0.284033
C29   C     C_R   0.789771 0.995605 0.572820 -0.092312
C30   C     C_3   0.243177 0.882321 0.677214 -0.351376
C31   C     C_3   0.971197 0.237026 0.344863 0.283426
C32   C     C_3   0.961264 0.117614 0.324128 -0.342520
C33   C     C_3   0.714140 0.673149 0.738212 0.300619
C34   C     C_3   0.455309 0.288141 0.151632 -0.376417
C35   C     C_3   0.730174 0.696810 0.844349 -0.380938
C36   C     C_3   0.047124 0.196061 0.805914 0.359807
C37   C     C_3   0.062155 0.159715 0.905840 -0.357385
C38   C     C_3   0.542663 0.141817 0.765289 0.326305
C39   C     C_3   0.590731 0.052558 0.822920 -0.378852
C40   C     C_R   0.985628 0.442798 0.061138 -0.033778
F1    F     F_    0.508747 0.912968 0.098418 -0.725208
H1    H     H_    0.735542 0.887347 0.289831 -0.016694
H2    H     H_    0.831593 0.650896 0.711770 0.011399
H3    H     H_    0.612591 0.605860 0.723970 0.066469
H4    H     H_    0.561638 0.009202 0.217428 -0.014495
H5    H     H_    0.837335 0.759788 0.860908 0.131189
H6    H     H_    0.748659 0.623923 0.880771 0.059041
H7    H     H_    0.615928 0.724763 0.871129 0.135527
H8    H     H_    0.529814 0.821787 0.260793 -0.108725
H9    H     H_    0.357883 0.331955 0.285606 0.016686
H10   H     H_    0.576286 0.378362 0.271216 0.059154
H11   H     H_    0.350069 0.223557 0.135798 0.135627
H12   H     H_    0.330401 0.905134 0.737390 0.115641
H13   H     H_    0.431095 0.361189 0.117081 0.056758
H14   H     H_    0.570000 0.263090 0.122515 0.122062
H15   H     H_    0.733863 0.988657 0.142927 0.026477
H16   H     H_    0.159130 0.783050 0.042594 0.088864
H17   H     H_    0.128273 0.273752 0.800825 0.093334
H18   H     H_    0.916904 0.207049 0.792765 -0.071784
H19   H     H_    0.192643 0.152060 0.922729 0.158366
H20   H     H_    0.020443 0.219024 0.956881 0.066761
H21   H     H_    0.984491 0.081101 0.912996 0.115151
H22   H     H_    0.655516 0.179199 0.729939 -0.052443
H23   H     H_    0.290642 0.925907 0.615186 0.079924
H24   H     H_    0.451254 0.107154 0.709665 0.082138
H25   H     H_    0.685836 0.086063 0.876892 0.121633
H26   H     H_    0.641617 0.992968 0.776054 0.087308
H27   H     H_    0.055634 0.727263 0.200007 0.085735
H28   H     H_    0.481274 0.012491 0.859481 0.154625
H29   H     H_    0.374178 0.550664 0.299558 0.072934
H30   H     H_    0.493614 0.640589 0.019450 0.087898
H31   H     H_    0.696421 0.358609 0.980516 0.070791
H32   H     H_    0.818504 0.444534 0.699719 0.069590
H33   H     H_    0.899560 0.397247 0.106278 0.097592
H34   H     H_    0.121010 0.905200 0.695556 0.143480
H35   H     H_    0.290424 0.602038 0.893682 0.100190
H36   H     H_    0.335528 0.048738 0.393797 0.103027
H37   H     H_    0.859786 0.942959 0.608168 0.104095
H38   H     H_    0.812334 0.260892 0.541296 0.063378
H39   H     H_    0.267978 0.791944 0.204727 0.003543
H40   H     H_    0.379046 0.729267 0.454919 0.069635
H41   H     H_    0.987270 0.848786 0.079491 0.132270
H42   H     H_    0.194256 0.920761 0.087453 0.172045
H43   H     H_    0.347545 0.740799 0.636645 0.005683
H44   H     H_    0.137027 0.741840 0.596144 0.077045
H45   H     H_    0.849306 0.255912 0.366084 -0.001255
H46   H     H_    0.062085 0.260265 0.403312 0.083305
H47   H     H_    0.869083 0.091742 0.267037 0.083670
H48   H     H_    0.923605 0.073710 0.387634 0.086621
H49   H     H_    0.083694 0.098386 0.301771 0.142979
O1    O     O_2   0.887370 0.460630 0.272300 -0.466085
O2    O     O_2   0.194614 0.110869 0.568154 -0.482482
O3    O     O_3   0.095693 0.118875 0.741841 -0.600661
O4    O     O_3   0.129410 0.451380 0.388510 -0.495132
O5    O     O_3   0.575400 0.626570 0.547370 -0.491587
O6    O     O_2   0.344320 0.238700 0.455090 -0.467295
O7    O     O_3   0.513886 0.218399 0.298933 -0.649643
O8    O     O_2   0.401638 0.408051 0.835788 -0.496067
O9    O     O_3   0.469867 0.212987 0.825265 -0.589659
O10   O     O_3   0.670210 0.653170 0.329170 -0.478241
O11   O     O_2   0.788190 0.589405 0.164783 -0.498431
O12   O     O_3   0.680221 0.765165 0.695863 -0.641287
O13   O     O_3   0.017060 0.289047 0.262623 -0.640264
O14   O     O_3   0.721842 0.784172 0.172454 -0.589600
O15   O     O_2   0.845380 0.761330 0.544970 -0.471450
O16   O     O_3   0.088930 0.704860 0.376040 -0.490450
O17   O     O_2   0.003742 0.889284 0.435591 -0.481735
O18   O     O_3   0.094723 0.881895 0.259780 -0.606639
O19   O     O_2   0.302330 0.539400 0.727760 -0.469549
O20   O     O_3   0.060300 0.548700 0.611500 -0.496582
O21   O     O_3   0.519500 0.346920 0.670840 -0.469959
O22   O     O_3   0.172243 0.711084 0.737224 -0.636265
O23   O     O_3   0.614310 0.373510 0.452640 -0.479396
O24   O     O_3   0.100780 0.295230 0.623970 -0.486942
P1    P     P_3+3 0.054400 0.427280 0.286870 0.969799
P2    P     P_3+3 0.668300 0.742890 0.573060 0.970715
P3    P     P_3+3 0.132916 0.842831 0.373709 0.947551
P4    P     P_3+3 0.135310 0.572810 0.713130 0.970873
P5    P     P_3+3 0.060201 0.155972 0.626972 0.949092
P6    P     P_3+3 0.657640 0.654130 0.206376 0.976908
P7    P     P_3+3 0.526758 0.241643 0.421533 0.932991
P8    P     P_3+3 0.532682 0.344118 0.793426 0.959738

loop_
_geom_bond_atom_site_label_1
_geom_bond_atom_site_label_2
_ccdc_geom_bond_type
C13   H32   S    
C4    H39   S    
C8    C40   A    
C9    C11   A    
Ba1   O16   S    
C26   P7    S    
C5    C6    A    
C37   H21   S    
Ba2   O20   S    
C24   C25   A    
C12   H1    S    
C33   C35   S    
C31   H45   S    
C22   C24   A    
C20   H36   S    
C3    H29   S    
Ba1   O20   S    
C21   P3    S    
C36   C37   S    
Ba2   O21   S    
O11   P6    D    
C13   C14   A    
Ba1   Ba2   S    
C1    H4    S    
O5    P2    S    
C32   H48   S    
C10   C40   A    
C38   O9    S    
Ba2   O24   S    
C23   O7    S    
C19   H40   S    
Ba2   O5    S    
C14   C15   A    
C38   H24   S    
C27   P5    S    
C36   O3    S    
C16   H41   S    
C3    C5    A    
C28   H43   S    
C7    C8    A    
C30   H12   S    
C39   H28   S    
C36   H18   S    
O3    P5    S    
C30   H34   S    
C24   C29   A    
C18   H38   S    
C4    O18   S    
O16   P3    S    
O13   P1    S    
O1    P1    D    
C1    F1    S    
C7    C17   A    
C39   H25   S    
O12   P2    S    
C18   C27   A    
O6    P7    D    
C4    C16   S    
Ba2   O19   S    
C16   H42   S    
O23   P7    S    
O24   P5    S    
O9    P8    S    
O4    P1    S    
C29   H37   S    
C31   O13   S    
C34   H14   S    
Ba1   O5    S    
O20   P4    S    
Ba2   P4    S    
C6    C7    A    
C18   C26   A    
O19   P4    D    
O8    P8    D    
C10   C15   A    
C17   H35   S    
C32   H47   S    
C1    H15   S    
C34   H13   S    
C31   H46   S    
C35   H6    S    
Ba2   O23   S    
C12   H8    S    
C9    C17   A    
O14   P6    S    
C31   C32   S    
Ba1   P1    S    
C35   H5    S    
C1    C12   S    
Ba1   O15   S    
C36   H17   S    
C38   C39   S    
C33   O12   S    
C20   C25   A    
C19   C21   A    
C15   H31   S    
C2    P1    S    
C5    P6    S    
C2    C8    A    
C33   H2    S    
C11   P4    S    
O17   P3    D    
C30   H23   S    
C28   O22   S    
O7    P7    S    
C4    H27   S    
C37   H19   S    
O15   P2    D    
C40   H33   S    
C23   H10   S    
C2    C3    A    
O18   P3    S    
C9    C10   A    
C37   H20   S    
C22   P2    S    
C38   H22   S    
C11   C13   A    
C14   P8    S    
C23   H9    S    
C27   C29   A    
C28   C30   S    
C35   H7    S    
C33   H3    S    
O21   P8    S    
Ba1   O4    S    
Ba2   O4    S    
C6    H30   S    
Ba1   P2    S    
C32   H49   S    
C34   H11   S    
C23   C34   S    
O2    P5    D    
C16   H16   S    
C12   O14   S    
Ba2   O6    S    
Ba1   O1    S    
C19   C22   A    
C25   C26   A    
C20   C21   A    
Ba1   O23   S    
C28   H44   S    
O10   P6    S    
C39   H26   S    
Ba1   O10   S    
O22   P4    S    
