data_mof_unit_20988.cif
_audit_creation_date              2012-12-10T19:58:43-0500
_audit_creation_method            fapswitch 2.2
_symmetry_space_group_name_H-M    P1
_symmetry_Int_Tables_number       1
_space_group_crystal_system       triclinic
_cell_length_a                    14.969653
_cell_length_b                    14.099335
_cell_length_c                    18.824639
_cell_angle_alpha                 91.996786
_cell_angle_beta                  89.252492
_cell_angle_gamma                 89.879228
_cell_volume                      3970.40527125

loop_
_atom_site_label
_atom_site_type_symbol
_atom_type_description
_atom_site_fract_x
_atom_site_fract_y
_atom_site_fract_z
_atom_type_partial_charge
C1    C     C_R   0.327609 0.500124 0.499459 0.920452
C2    C     C_R   0.672378 0.500007 0.499473 0.972242
C3    C     C_R   0.190112 0.577187 0.463254 -0.292031
C4    C     C_R   0.812255 0.425089 0.459314 -0.307108
C5    C     C_R   0.814819 0.579132 0.520942 -0.242936
C6    C     C_R   0.183018 0.423595 0.517884 -0.277685
C7    C     C_R   0.232069 0.500531 0.494114 -0.176894
C8    C     C_R   0.768049 0.500603 0.494310 -0.158906
C9    C     C_R   0.048485 0.501335 0.481679 -0.115208
C10   C     C_R   0.951883 0.504361 0.480496 -0.123606
C11   C     C_R   0.439276 0.102406 0.458971 0.468529
C12   C     C_R   0.563148 0.893534 0.459364 0.473293
C13   C     C_R   0.561841 0.106280 0.540804 0.442749
C14   C     C_R   0.437954 0.897770 0.541288 0.465196
C15   C     C_R   0.440514 0.202269 0.459321 0.523427
C16   C     C_R   0.561401 0.793732 0.459655 0.526400
C17   C     C_R   0.559937 0.206073 0.540553 0.490427
C18   C     C_R   0.439130 0.797893 0.540724 0.484533
C19   C     C_R   0.500556 0.053106 0.500035 -0.134702
C20   C     C_R   0.500585 0.946892 0.500270 -0.145048
C21   C     C_R   0.503687 0.497862 0.364451 0.897482
C22   C     C_R   0.501601 0.501764 0.634935 0.986529
C23   C     C_R   0.462643 0.470477 0.759436 0.354353
C24   C     C_R   0.507185 0.566357 0.243568 0.426770
C25   C     C_R   0.577661 0.412042 0.261611 0.426374
C26   C     C_R   0.606726 0.542106 0.730499 0.410749
C27   C     C_R   0.488550 0.465290 0.830018 -0.234974
C28   C     C_R   0.538817 0.562920 0.173577 -0.188688
C29   C     C_R   0.612717 0.413496 0.192342 -0.246631
C30   C     C_R   0.633467 0.531057 0.800510 -0.247207
C31   C     C_R   0.574519 0.493635 0.850198 0.094417
C32   C     C_R   0.590889 0.486241 0.147495 0.134412
C33   C     C_R   0.522979 0.506065 0.709593 -0.220770
C34   C     C_R   0.527080 0.491156 0.288315 -0.261257
C35   C     C_R   0.631854 0.563672 0.963099 0.296513
C36   C     C_R   0.591154 0.393799 0.031157 0.339362
C37   C     C_R   0.645390 0.557603 0.036305 0.311238
C38   C     C_R   0.591163 0.395678 0.956566 0.321833
C39   C     C_R   0.613140 0.477525 0.071012 -0.210607
C40   C     C_R   0.602781 0.483326 0.923722 -0.212826
C41   C     C_R   0.098605 0.577197 0.454889 0.477230
C42   C     C_R   0.903789 0.428008 0.448879 0.508230
C43   C     C_R   0.906989 0.580204 0.516659 0.463310
C44   C     C_R   0.090866 0.424545 0.513738 0.475322
H1    H     H_    0.442416 0.437020 0.868680 0.189678
H2    H     H_    0.520352 0.619346 0.138961 0.176171
H3    H     H_    0.654088 0.356242 0.171769 0.133621
H4    H     H_    0.700860 0.549651 0.815907 0.171363
H5    H     H_    0.228409 0.636698 0.444465 0.194416
H6    H     H_    0.775442 0.364859 0.438237 0.185606
H7    H     H_    0.780115 0.638817 0.546519 0.192655
H8    H     H_    0.215847 0.363754 0.541155 0.200610
N1    N     N_R   0.500000 0.252470 0.500000 -0.263975
N2    N     N_R   0.500000 0.747530 0.500000 -0.269020
O1    O     O_R   0.369060 0.579480 0.500010 -0.584814
O2    O     O_R   0.630940 0.420520 0.499990 -0.592367
O3    O     O_R   0.630940 0.579480 0.499990 -0.586688
O4    O     O_R   0.369060 0.420520 0.500010 -0.574521
O5    O     O_R   0.500020 0.579510 0.398180 -0.553879
O6    O     O_R   0.499980 0.420490 0.601820 -0.556689
O7    O     O_R   0.499980 0.579510 0.601820 -0.607336
O8    O     O_R   0.500020 0.420490 0.398180 -0.539006
Zn1   Zn    Zn3+2 0.500000 0.606140 0.500000 1.048787
Zn2   Zn    Zn3+2 0.500000 0.393860 0.500000 1.077336
O9    O     O_3   0.380612 0.435665 0.738109 -0.631218
C45   C     C_3   0.314455 0.504029 0.756461 0.075961
H9    H     H_    0.330929 0.573795 0.733321 0.149684
H10   H     H_    0.307987 0.513077 0.815350 0.139868
C46   C     C_3   0.224923 0.470524 0.726860 -0.301405
H11   H     H_    0.229757 0.464376 0.667928 0.214131
H12   H     H_    0.208773 0.399457 0.747287 0.232577
C47   C     C_3   0.149903 0.539596 0.748241 -1.008861
H13   H     H_    0.142939 0.545610 0.807040 0.271973
H14   H     H_    0.085785 0.513517 0.726108 0.249325
H15   H     H_    0.164087 0.610756 0.727391 0.277952
O10   O     O_3   0.459384 0.645410 0.267947 -0.595032
C48   C     C_3   0.366974 0.624202 0.270728 0.115286
H16   H     H_    0.336062 0.671972 0.312380 0.179024
H17   H     H_    0.352492 0.550291 0.286805 0.103857
C49   C     C_3   0.323219 0.643063 0.199408 -0.362696
H18   H     H_    0.340325 0.715836 0.182946 0.243989
H19   H     H_    0.348870 0.591413 0.158096 0.210844
C50   C     C_3   0.221858 0.633824 0.204549 -0.961911
H20   H     H_    0.203049 0.561529 0.220940 0.262614
H21   H     H_    0.192150 0.646380 0.151951 0.269795
H22   H     H_    0.194379 0.687205 0.243761 0.270811
O11   O     O_3   0.580621 0.329815 0.300452 -0.582222
C51   C     C_3   0.667096 0.290056 0.302702 0.064232
H23   H     H_    0.717800 0.345716 0.314786 0.109788
H24   H     H_    0.683685 0.251940 0.251567 0.137737
C52   C     C_3   0.667936 0.217425 0.361164 -0.322200
H25   H     H_    0.655067 0.254216 0.413348 0.227578
H26   H     H_    0.613667 0.164917 0.351749 0.251119
C53   C     C_3   0.756850 0.164624 0.363552 -0.849586
H27   H     H_    0.770880 0.126732 0.311881 0.261558
H28   H     H_    0.753747 0.111756 0.405878 0.311218
H29   H     H_    0.812063 0.214693 0.375662 0.271692
O12   O     O_3   0.666337 0.574999 0.679909 -0.643753
C54   C     C_3   0.691154 0.670299 0.696184 0.048405
H30   H     H_    0.758774 0.681424 0.673127 0.157130
H31   H     H_    0.696814 0.687610 0.754093 0.135858
C55   C     C_3   0.626244 0.739221 0.662538 -0.364955
H32   H     H_    0.623936 0.723409 0.604439 0.250612
H33   H     H_    0.558227 0.729993 0.685598 0.238377
C56   C     C_3   0.654886 0.842164 0.674981 -0.883780
H34   H     H_    0.657190 0.860347 0.732812 0.255088
H35   H     H_    0.606016 0.889776 0.650157 0.298645
H36   H     H_    0.721779 0.853926 0.650655 0.279775
O13   O     O_3   0.643603 0.649377 0.930504 -0.645770
C57   C     C_3   0.564134 0.703158 0.938339 0.120518
H37   H     H_    0.553735 0.726488 0.994989 0.168836
H38   H     H_    0.504963 0.661417 0.920081 0.128989
C58   C     C_3   0.572052 0.790790 0.893212 -0.352052
H39   H     H_    0.628990 0.834981 0.912108 0.228039
H40   H     H_    0.585248 0.768117 0.836928 0.226584
C59   C     C_3   0.486680 0.850145 0.897143 -0.946431
H41   H     H_    0.429804 0.808536 0.875195 0.269255
H42   H     H_    0.495651 0.914479 0.865432 0.276971
H43   H     H_    0.471045 0.872599 0.953071 0.261753
O14   O     O_3   0.553822 0.316905 0.064908 -0.598522
C60   C     C_3   0.610060 0.235807 0.058119 0.147004
H44   H     H_    0.635049 0.219191 0.111517 0.127687
H45   H     H_    0.670390 0.245222 0.023790 0.092070
C61   C     C_3   0.555837 0.150171 0.031278 -0.275448
H46   H     H_    0.502308 0.134993 0.070731 0.231115
H47   H     H_    0.523466 0.165803 0.980314 0.258487
C62   C     C_3   0.614788 0.062323 0.020120 -0.990653
H48   H     H_    0.666925 0.074818 0.978984 0.260561
H49   H     H_    0.573314 0.001234 0.001991 0.276610
H50   H     H_    0.647313 0.044374 0.070642 0.275554
O15   O     O_3   0.676434 0.635107 0.076094 -0.625726
C63   C     C_3   0.767543 0.651790 0.059618 0.157439
H51   H     H_    0.783502 0.725138 0.078793 0.164323
H52   H     H_    0.782167 0.649195 0.001454 0.162796
C64   C     C_3   0.828828 0.582756 0.097277 -0.396561
H53   H     H_    0.818643 0.591373 0.155711 0.242416
H54   H     H_    0.812256 0.508417 0.081009 0.207836
C65   C     C_3   0.926657 0.600887 0.078395 -0.974633
H55   H     H_    0.938471 0.587974 0.020482 0.265307
H56   H     H_    0.970203 0.552294 0.107579 0.275952
H57   H     H_    0.945056 0.675228 0.092969 0.274037
O16   O     O_3   0.561921 0.316547 0.917791 -0.614029
C66   C     C_3   0.631309 0.280404 0.872525 0.053205
H58   H     H_    0.677245 0.235975 0.903191 0.129744
H59   H     H_    0.671745 0.336825 0.847584 0.145573
C67   C     C_3   0.590138 0.218591 0.813288 -0.327840
H60   H     H_    0.553200 0.158860 0.837001 0.224424
H61   H     H_    0.542070 0.261654 0.783381 0.258875
C68   C     C_3   0.661417 0.178641 0.761752 -0.828049
H62   H     H_    0.697251 0.237234 0.735666 0.284297
H63   H     H_    0.629258 0.133280 0.720081 0.317769
H64   H     H_    0.710149 0.134858 0.790322 0.237217
O17   O     O_3   0.059074 0.656771 0.427633 -0.591653
C69   C     C_3   0.031781 0.636677 0.357289 0.057404
H65   H     H_    0.970619 0.592198 0.357367 0.149452
H66   H     H_    0.085507 0.599965 0.325144 0.117709
C70   C     C_3   0.009093 0.729870 0.322669 -0.267111
H67   H     H_    0.957683 0.768748 0.355473 0.259218
H68   H     H_    0.069946 0.774710 0.320000 0.224923
C71   C     C_3   0.973331 0.712320 0.247903 -0.970277
H69   H     H_    0.023638 0.673635 0.214059 0.267383
H70   H     H_    0.958402 0.781192 0.223728 0.276882
H71   H     H_    0.910936 0.669985 0.249901 0.279000
O18   O     O_3   0.944855 0.349875 0.415343 -0.598580
C72   C     C_3   0.982143 0.373506 0.348768 0.127448
H72   H     H_    0.026930 0.314158 0.331012 0.192377
H73   H     H_    0.025311 0.437083 0.352320 0.101545
C73   C     C_3   0.910244 0.384630 0.292272 -0.439370
H74   H     H_    0.873443 0.316791 0.285110 0.228672
H75   H     H_    0.862236 0.441420 0.309312 0.213975
C74   C     C_3   0.951699 0.410431 0.221156 -0.955548
H76   H     H_    0.986987 0.479490 0.226554 0.264866
H77   H     H_    0.898262 0.416446 0.181222 0.267171
H78   H     H_    0.999696 0.354676 0.202143 0.273914
O19   O     O_3   0.951958 0.658823 0.543690 -0.561696
C75   C     C_3   0.976079 0.643176 0.614550 0.090382
H79   H     H_    0.024966 0.584021 0.616859 0.118195
H80   H     H_    0.916318 0.626404 0.647680 0.088572
C76   C     C_3   0.019410 0.732690 0.646484 -0.395281
H81   H     H_    0.972668 0.793647 0.642862 0.233572
H82   H     H_    0.032657 0.722090 0.703613 0.173909
C77   C     C_3   0.107351 0.755604 0.608688 -0.631440
H83   H     H_    0.154399 0.694708 0.610436 0.245080
H84   H     H_    0.138648 0.818351 0.635433 0.246399
H85   H     H_    0.095245 0.772187 0.552386 0.303998
O20   O     O_3   0.043163 0.347180 0.536755 -0.578641
C78   C     C_3   0.017681 0.363456 0.608556 0.048629
H86   H     H_    0.977331 0.429516 0.615395 0.115489
H87   H     H_    0.077783 0.368322 0.642719 0.136422
C79   C     C_3   0.959847 0.280901 0.632196 -0.238159
H88   H     H_    0.901387 0.273336 0.596602 0.255885
H89   H     H_    0.999425 0.214095 0.628078 0.233499
C80   C     C_3   0.926398 0.296848 0.708640 -0.976645
H90   H     H_    0.983692 0.304127 0.745337 0.263853
H91   H     H_    0.885303 0.235361 0.724377 0.275267
H92   H     H_    0.884467 0.361941 0.713403 0.268183
F1    F     F_    0.379237 0.054122 0.418284 -0.578377
F2    F     F_    0.624907 0.937783 0.418857 -0.598284
F3    F     F_    0.622734 0.061879 0.580914 -0.627478
F4    F     F_    0.376602 0.946222 0.582073 -0.593854
F5    F     F_    0.382093 0.248981 0.418604 -0.574349
F6    F     F_    0.621420 0.743049 0.419305 -0.579191
F7    F     F_    0.618730 0.256526 0.580785 -0.602129
F8    F     F_    0.379319 0.751315 0.581331 -0.611854

loop_
_geom_bond_atom_site_label_1
_geom_bond_atom_site_label_2
_ccdc_geom_bond_type
C66   C67   S    
C45   H10   S    
O11   C51   S    
C54   H30   S    
C72   H72   S    
C57   H38   S    
C10   C42   A    
C14   C18   A    
C19   C20   S    
C4    C8    A    
C11   F1    S    
C3    H5    S    
C2    O3    A    
C64   H53   S    
C48   H16   S    
C31   C40   S    
C56   H35   S    
C11   C19   A    
C79   H88   S    
C29   H3    S    
C15   N1    A    
C30   H4    S    
O18   C72   S    
C35   C37   A    
C58   H39   S    
C29   C32   A    
C3    C7    A    
C68   H63   S    
C22   O6    A    
C30   C31   A    
N1    Zn2   S    
C42   O18   S    
C45   C46   S    
N2    Zn1   S    
C66   H58   S    
O12   C54   S    
C25   O11   S    
C59   H41   S    
C55   C56   S    
C17   F7    S    
C32   C39   S    
C46   H12   S    
C77   H83   S    
C78   C79   S    
O8    Zn2   S    
C79   C80   S    
C57   H37   S    
C43   O19   S    
C73   C74   S    
C3    C41   A    
C12   C16   A    
C63   H51   S    
C80   H91   S    
O1    Zn1   S    
O2    Zn2   S    
C23   C27   A    
C9    C10   S    
C41   O17   S    
C35   O13   S    
C25   C34   A    
C47   H13   S    
C76   C77   S    
C27   H1    S    
C75   H80   S    
C45   H9    S    
C5    C43   A    
O20   C78   S    
C72   H73   S    
C6    C44   A    
O4    Zn2   S    
C38   O16   S    
C55   H32   S    
C11   C15   A    
C47   H15   S    
C16   F6    S    
C15   F5    S    
O3    Zn1   S    
C61   H47   S    
C67   H61   S    
C48   H17   S    
C25   C29   A    
C74   H78   S    
C78   H87   S    
C13   C19   A    
C27   C31   A    
C71   H71   S    
C14   C20   A    
C28   C32   A    
O10   C48   S    
C69   C70   S    
C47   H14   S    
C68   H64   S    
C52   H25   S    
C24   O10   S    
C21   C34   S    
C53   H29   S    
C23   C33   A    
C14   F4    S    
C24   C34   A    
C37   O15   S    
C70   H67   S    
C4    H6    S    
C77   H85   S    
C71   H70   S    
C70   H68   S    
C46   C47   S    
C53   H28   S    
C62   H49   S    
C52   H26   S    
C67   C68   S    
C74   H77   S    
C26   C33   A    
C50   H20   S    
C57   C58   S    
C51   C52   S    
C80   H92   S    
C28   H2    S    
C12   C20   A    
O7    Zn1   S    
C50   H22   S    
C69   H65   S    
C53   H27   S    
C56   H36   S    
C55   H33   S    
C74   H76   S    
C60   H44   S    
C64   C65   S    
C65   H56   S    
C26   O12   S    
C61   C62   S    
C49   H19   S    
C73   H74   S    
C50   H21   S    
C51   H24   S    
C26   C30   A    
C72   C73   S    
C64   H54   S    
C62   H48   S    
C17   N1    A    
O14   C60   S    
C49   C50   S    
C67   H60   S    
C48   C49   S    
C66   H59   S    
C22   C33   S    
C75   H79   S    
C9    C44   A    
C79   H89   S    
C13   F3    S    
C77   H84   S    
C54   H31   S    
C10   C43   A    
C1    C7    S    
C69   H66   S    
C36   C39   A    
C2    C8    S    
C24   C28   A    
C49   H18   S    
C65   H57   S    
C5    C8    A    
C58   C59   S    
C21   O5    A    
C6    C7    A    
C9    C41   A    
C70   C71   S    
C22   O7    A    
C56   H34   S    
O5    Zn1   S    
C59   H43   S    
C13   C17   A    
O6    Zn2   S    
C6    H8    S    
C71   H69   S    
C75   C76   S    
C36   C38   A    
C35   C40   A    
C1    O1    A    
C62   H50   S    
C78   H86   S    
C37   C39   A    
O19   C75   S    
C2    O2    A    
C68   H62   S    
C52   C53   S    
C38   C40   A    
C23   O9    S    
C58   H40   S    
C4    C42   A    
C63   C64   S    
C73   H75   S    
C59   H42   S    
O9    C45   S    
C46   H11   S    
C36   O14   S    
C16   N2    A    
C60   H45   S    
C65   H55   S    
C18   N2    A    
C76   H81   S    
C54   C55   S    
C51   H23   S    
C63   H52   S    
C80   H90   S    
O13   C57   S    
C60   C61   S    
C12   F2    S    
O16   C66   S    
C5    H7    S    
C18   F8    S    
C21   O8    A    
O17   C69   S    
C1    O4    A    
O15   C63   S    
C44   O20   S    
C61   H46   S    
C76   H82   S    
