data_mof_unit_6514.cif
_audit_creation_date              2012-12-10T17:19:21-0500
_audit_creation_method            fapswitch 2.2
_symmetry_space_group_name_H-M    P1
_symmetry_Int_Tables_number       1
_space_group_crystal_system       triclinic
_cell_length_a                    15.086388
_cell_length_b                    10.774764
_cell_length_c                    9.594228
_cell_angle_alpha                 89.909211
_cell_angle_beta                  89.724474
_cell_angle_gamma                 92.564282
_cell_volume                      1557.98133931

loop_
_atom_site_label
_atom_site_type_symbol
_atom_type_description
_atom_site_fract_x
_atom_site_fract_y
_atom_site_fract_z
_atom_type_partial_charge
C1    C     C_R   0.496833 0.262570 0.500116 0.795855
C2    C     C_R   0.906462 0.532944 0.624242 0.128087
C3    C     C_R   0.953838 0.460164 0.252818 -0.308046
C4    C     C_R   0.046612 0.458937 0.253255 0.498174
C5    C     C_R   0.093212 0.487418 0.377190 0.000498
C6    C     C_R   0.046731 0.514984 0.500591 -0.047505
C7    C     C_R   0.093081 0.548702 0.624000 0.119915
C8    C     C_R   0.044461 0.568151 0.747475 -0.195323
C9    C     C_R   0.952264 0.560061 0.747385 -0.224828
C10   C     C_R   0.185401 0.485277 0.380813 -0.265706
C11   C     C_R   0.232376 0.518381 0.501773 -0.105386
C12   C     C_R   0.329034 0.506434 0.500556 0.791941
C13   C     C_R   0.186631 0.561240 0.620866 0.119373
C14   C     C_R   0.354829 0.120566 0.356491 -0.186110
C15   C     C_R   0.288629 0.051514 0.286510 -0.144926
C16   C     C_R   0.288687 0.922421 0.286498 -0.126694
C17   C     C_R   0.355012 0.861563 0.356302 -0.171383
C18   C     C_R   0.423752 0.929647 0.426036 0.095312
C19   C     C_R   0.423624 0.060936 0.426196 0.098436
C20   C     C_R   0.490742 0.128395 0.500402 -0.102388
C21   C     C_R   0.553713 0.067325 0.577661 -0.194704
C22   C     C_R   0.553890 0.939323 0.577414 -0.204666
C23   C     C_R   0.497246 0.737107 0.499900 0.759360
C24   C     C_R   0.491062 0.870490 0.499971 -0.088836
C25   C     C_R   0.618499 0.664340 0.143028 -0.138502
C26   C     C_R   0.676695 0.744355 0.070286 -0.201018
C27   C     C_R   0.676614 0.744595 0.926675 -0.225625
C28   C     C_R   0.618372 0.664776 0.854952 -0.152025
C29   C     C_R   0.558228 0.580897 0.924675 0.215675
C30   C     C_R   0.558253 0.580771 0.074275 0.204915
C31   C     C_R   0.444338 0.423426 0.074469 -0.052499
C32   C     C_R   0.444361 0.423471 0.926541 -0.060491
C33   C     C_R   0.671208 0.500552 0.499706 0.792932
C34   C     C_R   0.814133 0.528170 0.623371 -0.258831
C35   C     C_R   0.768015 0.502999 0.499475 -0.072086
C36   C     C_R   0.814628 0.481212 0.375776 -0.218787
C37   C     C_R   0.907156 0.483461 0.375648 0.034721
C38   C     C_R   0.953499 0.510152 0.500205 0.071903
Cu1   Cu    Cu3+1 0.499990 0.499990 0.640660 0.931181
Cu2   Cu    Cu3+1 0.500010 0.500010 0.359340 0.926953
H1    H     H_    0.778322 0.545725 0.719078 0.158159
H2    H     H_    0.350266 0.220396 0.357451 0.137669
H3    H     H_    0.236412 0.098359 0.233600 0.124432
H4    H     H_    0.236485 0.869086 0.233630 0.140763
H5    H     H_    0.350618 0.761222 0.356947 0.153880
H6    H     H_    0.604642 0.893704 0.635465 0.137782
H7    H     H_    0.398700 0.360647 0.130117 0.133826
H8    H     H_    0.623752 0.672465 0.252828 0.198562
H9    H     H_    0.722062 0.806926 0.126085 0.150956
H10   H     H_    0.721928 0.807319 0.870057 0.147144
H11   H     H_    0.623664 0.673190 0.745099 0.192987
H12   H     H_    0.779000 0.461382 0.279873 0.160115
H13   H     H_    0.398735 0.360750 0.871717 0.140196
H14   H     H_    0.918429 0.442585 0.156283 0.156215
H15   H     H_    0.221089 0.456505 0.288915 0.202265
H16   H     H_    0.076843 0.586844 0.846038 0.186333
H17   H     H_    0.916730 0.575648 0.843827 0.150127
H18   H     H_    0.604325 0.119289 0.635881 0.152341
N1    N     N_R   0.500860 0.501210 0.147910 -0.200315
N2    N     N_R   0.500890 0.501290 0.852040 -0.199990
O1    O     O_R   0.499990 0.319640 0.618810 -0.572551
O2    O     O_R   0.500000 0.319660 0.381240 -0.577023
O3    O     O_R   0.370250 0.499960 0.618800 -0.571141
O4    O     O_R   0.370260 0.499980 0.381230 -0.598652
O5    O     O_R   0.500000 0.680340 0.618760 -0.594564
O6    O     O_R   0.500010 0.680360 0.381190 -0.599974
O7    O     O_R   0.629740 0.500020 0.618770 -0.600490
O8    O     O_R   0.629750 0.500040 0.381200 -0.601072
O9    O     O_3   0.092171 0.440853 0.129888 -0.590353
C39   C     C_3   0.085305 0.313673 0.095409 -0.363967
H19   H     H_    0.109652 0.254820 0.181472 0.153318
H20   H     H_    0.127653 0.298233 0.002741 0.193818
H21   H     H_    0.016078 0.284175 0.067493 0.171475
C40   C     C_3   0.236072 0.628936 0.737772 -0.811299
H22   H     H_    0.296247 0.680746 0.698051 0.241619
H23   H     H_    0.195960 0.702266 0.784217 0.212118
H24   H     H_    0.254179 0.562072 0.819932 0.246422

loop_
_geom_bond_atom_site_label_1
_geom_bond_atom_site_label_2
_ccdc_geom_bond_type
C19   C20   A    
C1    O2    A    
C8    H16   S    
C7    C8    A    
C26   C27   A    
C29   C30   A    
C40   H23   S    
C18   C24   A    
C23   O6    A    
C28   C29   A    
C31   H7    S    
C17   H5    S    
C34   C35   A    
C5    C6    A    
C12   O4    A    
C3    H14   S    
C15   C16   A    
Cu2   O2    S    
C18   C19   A    
C31   N1    A    
C35   C36   A    
C8    C9    A    
C40   H24   S    
C23   C24   S    
C6    C38   A    
C39   H19   S    
C16   H4    S    
C36   H12   S    
C27   H10   S    
C14   H2    S    
C2    C34   A    
Cu2   N1    S    
Cu2   O6    S    
C21   C22   A    
Cu1   O5    S    
C34   H1    S    
C5    C10   A    
C4    O9    S    
Cu1   O1    S    
C40   H22   S    
C26   H9    S    
Cu1   Cu2   S    
C12   O3    A    
C16   C17   A    
C25   C26   A    
C37   C38   A    
C2    C38   A    
C31   C32   A    
C29   N2    A    
C30   N1    A    
C39   H21   S    
C17   C18   A    
C13   C40   S    
C10   H15   S    
C25   H8    S    
C22   H6    S    
C22   C24   A    
C32   N2    A    
C3    C4    A    
C32   H13   S    
C33   O7    A    
C25   C30   A    
C36   C37   A    
C1    C20   S    
C28   H11   S    
Cu1   O7    S    
C14   C19   A    
C4    C5    A    
C1    O1    A    
C11   C12   S    
C6    C7    A    
Cu1   O3    S    
Cu2   O4    S    
C23   O5    A    
C15   H3    S    
C21   H18   S    
C11   C13   A    
Cu1   N2    S    
C33   C35   S    
C9    H17   S    
O9    C39   S    
C10   C11   A    
C7    C13   A    
C20   C21   A    
C3    C37   A    
Cu2   O8    S    
C27   C28   A    
C14   C15   A    
C39   H20   S    
C2    C9    A    
C33   O8    A    
