data_mof_unit_46096.cif
_audit_creation_date              2013-03-05T16:09:19-0500
_audit_creation_method            fapswitch 2.2
_symmetry_space_group_name_H-M    P1
_symmetry_Int_Tables_number       1
_space_group_crystal_system       triclinic
_cell_length_a                    7.219413
_cell_length_b                    12.165648
_cell_length_c                    21.275166
_cell_angle_alpha                 90.000048
_cell_angle_beta                  90.259814
_cell_angle_gamma                 89.999427
_cell_volume                      1868.55388217

loop_
_atom_site_label
_atom_site_type_symbol
_atom_site_description
_atom_site_fract_x
_atom_site_fract_y
_atom_site_fract_z
_atom_type_partial_charge
O1    O     O_R   0.354460 0.152320 0.595720 -0.586906
O2    O     O_R   0.645540 0.847680 0.404280 -0.586876
O3    O     O_R   0.145540 0.652320 0.404280 -0.586877
O4    O     O_R   0.854460 0.347680 0.595720 -0.586850
O5    O     O_R   0.683670 0.140090 0.727290 -0.579709
O6    O     O_R   0.316330 0.859910 0.272710 -0.579650
O7    O     O_R   0.816330 0.640090 0.272710 -0.579721
O8    O     O_R   0.183670 0.359910 0.727290 -0.579661
O9    O     O_R   0.854010 0.349340 0.727750 -0.599526
O10   O     O_R   0.145990 0.650660 0.272250 -0.599493
O11   O     O_R   0.645990 0.849340 0.272250 -0.599533
O12   O     O_R   0.354010 0.150660 0.727750 -0.599498
C1    C     C_R   0.515917 0.111483 0.746586 1.015525
C2    C     C_R   0.484090 0.888508 0.253412 1.015041
C3    C     C_R   0.984085 0.611487 0.253413 1.015462
C4    C     C_R   0.015907 0.388505 0.746590 1.014985
O13   O     O_R   0.684170 0.139420 0.596190 -0.576268
O14   O     O_R   0.315830 0.860580 0.403810 -0.576312
O15   O     O_R   0.815830 0.639420 0.403810 -0.576289
O16   O     O_R   0.184170 0.360580 0.596190 -0.576330
C5    C     C_R   0.515322 0.113308 0.574344 1.013865
C6    C     C_R   0.484679 0.886701 0.425651 1.013502
C7    C     C_R   0.984679 0.613308 0.425655 1.013829
C8    C     C_R   0.015320 0.386701 0.574349 1.013472
O17   O     O_3   0.520730 0.319480 0.661730 -0.283340
O18   O     O_3   0.479270 0.680520 0.338270 -0.283414
O19   O     O_3   0.979270 0.819480 0.338270 -0.283365
O20   O     O_3   0.020730 0.180520 0.661730 -0.283439
V1    V     V_3+5 0.795560 0.238090 0.661730 1.245256
V2    V     V_3+5 0.204440 0.761910 0.338270 1.245291
V3    V     V_3+5 0.704440 0.738090 0.338270 1.245232
V4    V     V_3+5 0.295560 0.261910 0.661730 1.245269
C9    C     C_R   0.008063 0.469458 0.797332 -0.257965
C10   C     C_R   0.991801 0.530505 0.202680 -0.258355
C11   C     C_R   0.491908 0.969458 0.202668 -0.258056
C12   C     C_R   0.508233 0.030504 0.797320 -0.258454
C13   C     C_R   0.941838 0.651128 0.837471 -0.287296
C14   C     C_R   0.056364 0.348618 0.162540 -0.287394
C15   C     C_R   0.557573 0.151200 0.162529 -0.287316
C16   C     C_R   0.444313 0.848535 0.837458 -0.287422
C17   C     C_R   0.966360 0.581042 0.785978 0.361281
C18   C     C_R   0.032514 0.418778 0.214045 0.361093
C19   C     C_R   0.533246 0.081092 0.214025 0.361239
C20   C     C_R   0.467934 0.918722 0.785953 0.361050
C21   C     C_R   0.026681 0.430493 0.858822 -0.298094
C22   C     C_R   0.973388 0.569495 0.141187 -0.297962
C23   C     C_R   0.473495 0.930465 0.141177 -0.298053
C24   C     C_R   0.526427 0.069523 0.858814 -0.297912
C25   C     C_R   0.001313 0.500163 0.911176 0.126399
C26   C     C_R   0.997677 0.499684 0.088836 0.126593
C27   C     C_R   0.498688 0.000157 0.088824 0.126458
C28   C     C_R   0.502370 0.999682 0.911164 0.126660
C29   C     C_R   0.957975 0.611901 0.899237 0.113430
C30   C     C_R   0.040349 0.387861 0.100776 0.113155
C31   C     C_R   0.541614 0.111950 0.100763 0.113352
C32   C     C_R   0.460147 0.887801 0.899223 0.113082
C33   C     C_R   0.014626 0.462242 0.974724 0.065085
C34   C     C_R   0.984001 0.537551 0.025287 0.064976
C35   C     C_R   0.485557 0.962215 0.025275 0.065122
C36   C     C_R   0.515884 0.037567 0.974714 0.065003
C37   C     C_R   0.940898 0.648090 0.010589 -0.214737
C38   C     C_R   0.057027 0.351606 0.989423 -0.214827
C39   C     C_R   0.558550 0.148167 0.989412 -0.214790
C40   C     C_R   0.443634 0.851515 0.010576 -0.214873
C41   C     C_R   0.928938 0.684118 0.948931 -0.195958
C42   C     C_R   0.068769 0.315556 0.051082 -0.196196
C43   C     C_R   0.570390 0.184206 0.051071 -0.196031
C44   C     C_R   0.432025 0.815452 0.948917 -0.196283
H1    H     H_    0.895084 0.769629 0.940091 0.147034
H2    H     H_    0.101977 0.229955 0.059920 0.147003
H3    H     H_    0.603915 0.269762 0.059910 0.147010
H4    H     H_    0.399185 0.729802 0.940078 0.146983
H5    H     H_    0.944838 0.655933 0.136237 0.122434
H6    H     H_    0.056360 0.344190 0.863757 0.122545
H7    H     H_    0.554680 0.155995 0.863765 0.122396
H8    H     H_    0.444051 0.844135 0.136242 0.122516
H9    H     H_    0.909862 0.737079 0.829358 0.174813
H10   H     H_    0.087673 0.262578 0.170638 0.175142
H11   H     H_    0.589238 0.237191 0.170641 0.174891
H12   H     H_    0.413348 0.762451 0.829362 0.175219
H13   H     H_    0.914205 0.709842 0.045566 0.137093
H14   H     H_    0.082929 0.289731 0.954449 0.137064
H15   H     H_    0.584981 0.209960 0.954436 0.137093
H16   H     H_    0.418043 0.789592 0.045549 0.137060
C45   C     C_1   0.995112 0.533195 0.478118 -0.146604
C46   C     C_1   0.004887 0.466815 0.521887 -0.146614
C47   C     C_1   0.504889 0.033196 0.521881 -0.146628
C48   C     C_1   0.495112 0.966815 0.478113 -0.146640
N1    N     N_R   0.051138 0.375440 0.276825 0.243617
O21   O     O_R   0.146062 0.286095 0.286801 -0.331041
O22   O     O_R   0.959599 0.418216 0.323329 -0.407392
N2    N     N_R   0.947445 0.624291 0.723196 0.243165
O23   O     O_R   0.850625 0.712880 0.713128 -0.331367
O24   O     O_R   0.040461 0.582268 0.676810 -0.406826
N3    N     N_R   0.449500 0.875349 0.723172 0.243724
O25   O     O_R   0.355057 0.785821 0.713205 -0.331000
O26   O     O_R   0.540750 0.918303 0.676656 -0.407441
N4    N     N_R   0.551979 0.124374 0.276807 0.243271
O27   O     O_R   0.648360 0.213133 0.286867 -0.331338
O28   O     O_R   0.459210 0.082189 0.323202 -0.406855

loop_
_geom_bond_atom_site_label_1
_geom_bond_atom_site_label_2
_geom_bond_distance
_ccdc_geom_bond_type
C47   C48   1.234355 T    
C5    C47   1.483444 S    
O1    C5    1.336236 A    
C9    C21   1.397346 A    
O3    C7    1.336241 A    
N3    O25   1.301856 A    
C10   C18   1.411274 A    
C19   N4    1.441530 S    
C11   C23   1.397348 A    
C25   C33   1.431362 A    
C33   C38   1.415001 A    
C45   C46   1.234356 T    
C35   C40   1.415013 A    
C26   C30   1.417526 A    
C36   C39   1.414988 A    
C40   C44   1.385408 A    
O20   V1    1.770047 S    
O9    C4    1.322705 A    
C23   H8    1.076600 S    
C14   C18   1.400215 A    
O10   C3    1.322771 A    
O4    C8    1.336240 A    
O11   C2    1.322714 A    
C25   C29   1.417590 A    
C43   H3    1.084848 S    
O13   V1    2.005428 S    
C40   H16   1.075415 S    
C28   C36   1.431342 A    
C15   C31   1.402400 A    
O16   C8    1.340786 A    
C16   C32   1.402372 A    
O2    C6    1.336236 A    
C16   H12   1.084470 S    
C10   C22   1.397389 A    
C6    C48   1.483442 S    
N1    O22   1.300897 A    
C11   C19   1.411105 A    
C3    C10   1.462615 S    
O5    C1    1.326976 A    
O4    V1    1.983942 S    
O9    V1    1.994323 S    
C13   C29   1.402402 A    
C34   C37   1.414981 A    
O7    C3    1.326985 A    
C38   H14   1.075408 S    
O15   V3    2.005419 S    
C35   C36   1.430938 A    
O8    C4    1.327026 A    
O12   V4    1.994319 S    
O19   V2    1.770048 S    
C24   H7    1.076663 S    
O5    V1    2.007395 S    
C39   C43   1.385408 A    
O7    V3    2.007386 S    
C38   C42   1.385407 A    
O8    V4    2.007384 S    
C1    C12   1.462616 S    
C2    C11   1.462564 S    
C23   C27   1.412224 A    
C14   H10   1.084466 S    
C32   C44   1.391264 A    
C13   H9    1.084476 S    
O1    V4    1.983935 S    
O13   C5    1.340791 A    
C39   H15   1.075432 S    
O2    V3    1.983932 S    
C26   C34   1.431343 A    
O3    V2    1.983940 S    
O15   C7    1.340787 A    
C4    C9    1.462567 S    
O6    C2    1.327015 A    
O10   V2    1.994323 S    
C31   C43   1.391251 A    
C14   C30   1.402374 A    
C21   C25   1.412240 A    
C44   H4    1.084865 S    
N2    O24   1.300855 A    
O14   V2    2.005428 S    
O6    V2    2.007397 S    
C16   C20   1.400233 A    
N4    O28   1.300857 A    
C12   C20   1.411311 A    
C27   C35   1.431365 A    
C29   C41   1.391252 A    
O16   V4    2.005419 S    
O14   C6    1.340788 A    
O18   V3    1.770060 S    
C15   C19   1.400120 A    
N3    O26   1.300904 A    
C30   C42   1.391259 A    
C22   C26   1.412195 A    
C18   N1    1.441678 S    
C9    C17   1.411075 A    
C20   N3    1.441708 S    
C37   H13   1.075428 S    
C33   C34   1.430939 A    
C42   H2    1.084853 S    
O17   V4    1.770060 S    
C41   H1    1.084842 S    
N2    O23   1.301771 A    
C12   C24   1.397390 A    
C27   C31   1.417586 A    
C13   C17   1.400104 A    
O11   V3    1.994319 S    
C37   C41   1.385410 A    
C24   C28   1.412185 A    
C17   N2    1.441499 S    
O12   C1    1.322783 A    
N4    O27   1.301773 A    
C7    C45   1.483444 S    
C21   H6    1.076603 S    
N1    O21   1.301838 A    
C8    C46   1.483443 S    
C22   H5    1.076653 S    
C28   C32   1.417520 A    
C15   H11   1.084476 S    
