data_mof_unit_57537.cif
_audit_creation_date              2012-10-26T19:04:43-0400
_audit_creation_method            fapswitch 2.2
_symmetry_space_group_name_H-M    P1
_symmetry_Int_Tables_number       1
_space_group_crystal_system       triclinic
_cell_length_a                    9.599196
_cell_length_b                    10.778225
_cell_length_c                    13.426405
_cell_angle_alpha                 92.583342
_cell_angle_beta                  72.326635
_cell_angle_gamma                 90.063893
_cell_volume                      1322.10326623

loop_
_atom_site_label
_atom_site_type_symbol
_atom_type_description
_atom_site_fract_x
_atom_site_fract_y
_atom_site_fract_z
_atom_type_partial_charge
C1    C     C_R   0.498781 0.737362 0.503057 0.566106
C2    C     C_R   0.373592 0.487586 0.814743 -0.006379
C3    C     C_R   0.286940 0.879669 0.670931 -0.105032
C4    C     C_R   0.421501 0.493835 0.699836 0.518748
C5    C     C_R   0.184323 0.948608 0.749915 -0.119241
C6    C     C_R   0.183412 0.077602 0.749795 -0.118901
C7    C     C_R   0.285258 0.138407 0.670772 -0.091590
C8    C     C_R   0.388977 0.070371 0.588829 0.015500
C9    C     C_R   0.389724 0.939220 0.588691 -0.017239
C10   C     C_R   0.496708 0.871636 0.508334 -0.000701
C11   C     C_R   0.603872 0.932875 0.431524 0.236038
C12   C     C_R   0.433122 0.479079 0.979343 0.033295
C13   C     C_R   0.603967 0.061382 0.433660 -0.135192
C14   C     C_R   0.495796 0.129658 0.509128 -0.042745
C15   C     C_R   0.914765 0.337023 0.359365 -0.094149
C16   C     C_R   0.498700 0.262963 0.502849 0.522495
C17   C     C_R   0.015616 0.257000 0.290356 -0.171899
C18   C     C_R   0.158927 0.255634 0.290902 -0.165103
C19   C     C_R   0.202312 0.334432 0.360319 -0.083438
C20   C     C_R   0.103649 0.418992 0.431223 0.156642
C21   C     C_R   0.954196 0.419628 0.430957 0.155555
C22   C     C_R   0.898293 0.576513 0.565804 0.007489
C23   C     C_R   0.470579 0.451073 0.870080 0.025957
C24   C     C_R   0.046221 0.576572 0.565714 -0.002316
C25   C     C_R   0.578569 0.497708 0.299985 0.529658
C26   C     C_R   0.787708 0.394749 0.023807 -0.140002
C27   C     C_R   0.622716 0.480868 0.185887 -0.014545
C28   C     C_R   0.232012 0.529912 0.870667 -0.143329
C29   C     C_R   0.188922 0.542648 0.979039 -0.147758
C30   C     C_R   0.288390 0.520182 0.033071 -0.121419
C31   C     C_3   0.671313 0.847093 0.265816 -0.003603
C32   C     C_3   0.794443 0.779430 0.181995 -0.362742
C33   C     C_R   0.541591 0.463737 0.030471 0.028376
C34   C     C_R   0.679345 0.409252 0.974541 0.048378
C35   C     C_R   0.706342 0.367387 0.870755 -0.146901
C36   C     C_R   0.602824 0.386110 0.819720 -0.124290
C37   C     C_R   0.518146 0.502567 0.135329 -0.140061
C38   C     C_R   0.759250 0.429801 0.129267 -0.158266
Cu1   Cu    Cu3+1 0.359340 0.500010 0.500010 0.903683
Cu2   Cu    Cu3+1 0.640660 0.499990 0.499990 0.936804
H1    H     H_    0.841761 0.412941 0.167111 0.120504
H2    H     H_    0.237343 0.192642 0.237347 0.122092
H3    H     H_    0.314390 0.324348 0.354691 0.184536
H4    H     H_    0.808280 0.320191 0.828575 0.107980
H5    H     H_    0.078696 0.639353 0.619579 0.108785
H6    H     H_    0.893164 0.353484 0.981364 0.107283
H7    H     H_    0.418361 0.549420 0.180249 0.122409
H8    H     H_    0.154960 0.555931 0.830458 0.123497
H9    H     H_    0.247295 0.533055 0.116998 0.109280
H10   H     H_    0.078843 0.574078 0.021388 0.117224
H11   H     H_    0.627038 0.345903 0.741107 0.155131
H12   H     H_    0.286119 0.779924 0.676493 0.126388
H13   H     H_    0.649210 0.936662 0.234679 0.113933
H14   H     H_    0.571917 0.788509 0.281987 0.134743
H15   H     H_    0.822346 0.691174 0.211557 0.179225
H16   H     H_    0.759960 0.758101 0.111307 0.096809
H17   H     H_    0.893090 0.838470 0.160274 0.148116
H18   H     H_    0.106387 0.901722 0.812221 0.104755
H19   H     H_    0.104739 0.130907 0.811979 0.104714
H20   H     H_    0.283176 0.238736 0.676042 0.140513
H21   H     H_    0.687344 0.108028 0.374315 0.120460
H22   H     H_    0.820345 0.639279 0.619757 0.123444
H23   H     H_    0.807532 0.329980 0.353135 0.175693
H24   H     H_    0.981850 0.195174 0.236366 0.119220
N1    N     N_R   0.852480 0.498790 0.499000 -0.243776
N2    N     N_R   0.148360 0.498710 0.498970 -0.243103
O1    O     O_R   0.381190 0.680360 0.500010 -0.513151
O2    O     O_R   0.618760 0.680340 0.500000 -0.450565
O3    O     O_R   0.323240 0.499990 0.650990 -0.517553
O4    O     O_R   0.560820 0.499960 0.650980 -0.509867
O5    O     O_R   0.381240 0.319660 0.500000 -0.522491
O6    O     O_R   0.618810 0.319640 0.499990 -0.521354
O7    O     O_R   0.439180 0.500040 0.349020 -0.521849
O8    O     O_R   0.676760 0.500010 0.349010 -0.514330
O9    O     O_3   0.713968 0.867243 0.356963 -0.536580

loop_
_geom_bond_atom_site_label_1
_geom_bond_atom_site_label_2
_ccdc_geom_bond_type
C35   C36   A    
C16   O6    A    
C4    O4    A    
C7    C8    A    
C12   C23   A    
Cu2   O4    S    
C5    H18   S    
C24   H5    S    
C20   N2    A    
C28   C29   A    
C25   O8    A    
C18   H2    S    
C17   H24   S    
C5    C6    A    
C34   C35   A    
C27   C38   A    
C1    O2    A    
C18   C19   A    
C26   C34   A    
C19   C20   A    
C8    C9    A    
C8    C14   A    
C37   H7    S    
C9    C10   A    
C32   H15   S    
C25   O7    A    
C24   N2    A    
C21   N1    A    
C13   C14   A    
C16   O5    A    
C32   H17   S    
C4    O3    A    
C19   H3    S    
C33   C34   A    
C29   H10   S    
C38   H1    S    
Cu1   Cu2   S    
C26   C38   A    
C33   C37   A    
C2    C4    S    
C22   N1    A    
C29   C30   A    
C3    C9    A    
C22   H22   S    
C31   O9    S    
C31   C32   S    
C17   C18   A    
Cu1   O3    S    
C31   H13   S    
C35   H4    S    
C36   H11   S    
C30   H9    S    
Cu2   N1    S    
Cu1   N2    S    
C14   C16   S    
C7    H20   S    
C15   C17   A    
C28   H8    S    
Cu1   O5    S    
Cu2   O6    S    
C12   C30   A    
Cu1   O1    S    
C6    H19   S    
C1    C10   S    
C3    C5    A    
C3    H12   S    
C6    C7    A    
C25   C27   S    
C11   O9    S    
C11   C13   A    
C27   C37   A    
C1    O1    A    
Cu2   O8    S    
C22   C24   A    
Cu1   O7    S    
C31   H14   S    
C10   C11   A    
C26   H6    S    
C15   C21   A    
C13   H21   S    
C20   C21   A    
C23   C36   A    
Cu2   O2    S    
C2    C23   A    
C15   H23   S    
C2    C28   A    
C12   C33   A    
C32   H16   S    
