data_mof_unit_62682.cif
_audit_creation_date              2012-12-10T18:14:36-0500
_audit_creation_method            fapswitch 2.2
_symmetry_space_group_name_H-M    P1
_symmetry_Int_Tables_number       1
_space_group_crystal_system       triclinic
_cell_length_a                    42.30411
_cell_length_b                    29.20581
_cell_length_c                    30.590211
_cell_angle_alpha                 90.000022
_cell_angle_beta                  136.338047
_cell_angle_gamma                 89.999978
_cell_volume                      26093.7467007

loop_
_atom_site_label
_atom_site_type_symbol
_atom_type_description
_atom_site_fract_x
_atom_site_fract_y
_atom_site_fract_z
_atom_type_partial_charge
C1    C     C_R   0.586687 0.500000 0.587102 0.906452
C2    C     C_1   0.000507 1.000000 0.335392 -0.108579
C3    C     C_3   0.525845 0.543273 0.247048 -0.432559
C4    C     C_3   0.025755 0.956673 0.246959 -0.432565
C5    C     C_3   0.025759 0.043325 0.246962 -0.432567
C6    C     C_1   0.500127 0.499999 0.120766 -0.203018
C7    C     C_1   0.000127 1.000000 0.120766 -0.203017
C8    C     C_3   0.500702 0.499999 0.289375 0.257970
C9    C     C_3   0.000702 1.000000 0.289375 0.257971
C10   C     C_3   0.500688 0.499998 0.205448 0.320144
C11   C     C_3   0.000688 1.000000 0.205448 0.320144
C12   C     C_1   0.506628 0.413361 0.295345 0.179976
C13   C     C_1   0.500204 0.500000 0.373217 -0.184671
C14   C     C_1   0.506980 0.586612 0.295696 0.179974
C15   C     C_1   0.006801 0.913374 0.295518 0.179976
C16   C     C_1   0.006808 0.086625 0.295525 0.179976
C17   C     C_1   0.000204 1.000000 0.373217 -0.184671
C18   C     C_1   0.637269 0.500000 0.637584 -0.220451
C19   C     C_1   0.137269 0.000000 0.637584 -0.220451
C20   C     C_1   0.679406 0.500000 0.679643 0.005069
C21   C     C_1   0.179406 1.000000 0.679643 0.005069
C22   C     C_1   0.729141 0.500000 0.729294 0.007597
C23   C     C_1   0.229141 0.000000 0.729294 0.007597
C24   C     C_1   0.771278 0.500000 0.771368 0.007365
C25   C     C_R   0.086687 1.000000 0.587102 0.906452
C26   C     C_1   0.271278 0.000000 0.771368 0.007365
C27   C     C_1   0.821013 0.500000 0.821043 0.005468
C28   C     C_1   0.321013 0.000000 0.821043 0.005468
C29   C     C_R   0.499845 0.500000 0.417523 0.951993
C30   C     C_R   0.999845 0.000000 0.417523 0.951993
C31   C     C_1   0.863151 0.500000 0.863151 -0.213071
C32   C     C_1   0.363151 0.000000 0.863151 -0.213071
C33   C     C_1   0.499975 0.500000 0.636034 -0.220137
C34   C     C_1   0.999976 0.000000 0.636034 -0.220137
C35   C     C_1   0.499979 0.500000 0.677212 0.017017
C36   C     C_3   0.450751 0.500100 0.172292 -0.400380
C37   C     C_1   0.999980 0.000000 0.677212 0.017017
C38   C     C_1   0.499985 0.500000 0.726220 0.004482
C39   C     C_1   0.999985 0.000000 0.726220 0.004482
C40   C     C_1   0.499990 0.500000 0.767399 0.004480
C41   C     C_1   0.999990 0.000000 0.767399 0.004480
C42   C     C_1   0.499997 0.500000 0.816409 0.016776
C43   C     C_1   0.999997 0.000000 0.816409 0.016776
C44   C     C_1   0.500004 0.500000 0.857590 -0.219636
C45   C     C_1   0.000004 0.000000 0.857590 -0.219636
C46   C     C_1   0.362677 0.500000 0.362985 -0.219143
C47   C     C_3   0.950751 0.000002 0.172292 -0.400381
C48   C     C_1   0.862676 0.000000 0.362985 -0.219143
C49   C     C_1   0.320541 0.500000 0.320790 0.005940
C50   C     C_1   0.820541 0.000000 0.320790 0.005940
C51   C     C_1   0.270809 0.500000 0.271001 0.008248
C52   C     C_1   0.770809 0.000000 0.271001 0.008248
C53   C     C_R   0.413255 0.500000 0.413647 0.907152
C54   C     C_R   0.913255 0.000000 0.413647 0.907152
C55   C     C_1   0.228674 0.500000 0.228823 0.007823
C56   C     C_1   0.728674 0.000000 0.228823 0.007823
C57   C     C_1   0.178943 0.500000 0.179046 0.005736
C58   C     C_3   0.450616 0.500100 0.222317 -0.393795
C59   C     C_1   0.678943 0.000000 0.179046 0.005736
C60   C     C_1   0.136807 0.500000 0.136877 -0.212908
C61   C     C_1   0.636807 0.000000 0.136877 -0.212908
C62   C     C_R   0.500031 0.586641 0.994573 0.907412
C63   C     C_R   0.500031 0.413359 0.994573 0.907413
C64   C     C_R   0.000031 0.086641 0.994573 0.907413
C65   C     C_R   0.000031 0.913359 0.994573 0.907413
C66   C     C_R   0.500037 0.500000 0.076002 0.952702
C67   C     C_R   0.000037 0.000000 0.076002 0.952702
C68   C     C_R   0.500018 0.500000 0.907489 0.892181
C69   C     C_3   0.950616 0.000002 0.222317 -0.393794
C70   C     C_R   0.000018 0.000000 0.907489 0.892181
C71   C     C_R   0.000015 0.413723 0.999133 0.897256
C72   C     C_R   0.000015 0.586277 0.999133 0.897256
C73   C     C_R   0.500015 0.913723 0.999133 0.897257
C74   C     C_R   0.500015 0.086277 0.999133 0.897256
C75   C     C_R   0.913733 0.500000 0.913736 0.897418
C76   C     C_R   0.413733 0.000000 0.913736 0.897418
C77   C     C_R   0.086228 0.500000 0.086266 0.897460
C78   C     C_R   0.586228 1.000000 0.086266 0.897460
C79   C     C_1   0.500041 0.637229 0.995413 -0.221557
C80   C     C_1   0.500365 0.499999 0.159136 -0.101122
C81   C     C_1   0.500041 0.362771 0.995413 -0.221557
C82   C     C_1   0.000041 0.137229 0.995413 -0.221557
C83   C     C_1   0.000041 0.862771 0.995413 -0.221557
C84   C     C_R   0.499972 0.500000 0.586145 0.890694
C85   C     C_R   0.999972 0.000000 0.586145 0.890694
C86   C     C_1   0.500043 0.679367 0.996157 0.005206
C87   C     C_1   0.500043 0.320632 0.996157 0.005205
C88   C     C_1   0.000043 0.179367 0.996157 0.005206
C89   C     C_1   0.000043 0.820632 0.996157 0.005206
C90   C     C_1   0.500041 0.729106 0.997039 0.007808
C91   C     C_1   0.000365 1.000000 0.159136 -0.101122
C92   C     C_1   0.500041 0.270894 0.997039 0.007807
C93   C     C_1   0.000041 0.229106 0.997039 0.007808
C94   C     C_1   0.000041 0.770894 0.997039 0.007808
C95   C     C_1   0.000038 0.271244 0.997749 0.007600
C96   C     C_1   0.000038 0.728756 0.997749 0.007600
C97   C     C_1   0.500037 0.771244 0.997749 0.007600
C98   C     C_1   0.500037 0.228756 0.997749 0.007599
C99   C     C_1   0.000031 0.320985 0.998488 0.005807
C100  C     C_1   0.000031 0.679015 0.998488 0.005807
C101  C     C_1   0.500031 0.820985 0.998488 0.005807
C102  C     C_1   0.500507 0.499999 0.335392 -0.108579
C103  C     C_1   0.500031 0.179015 0.998488 0.005807
C104  C     C_1   0.000025 0.363128 0.998946 -0.212867
C105  C     C_1   0.000025 0.636872 0.998946 -0.212868
C106  C     C_1   0.500025 0.863128 0.998946 -0.212867
C107  C     C_1   0.500024 0.136872 0.998946 -0.212868
C108  C     C_3   0.526463 0.543375 0.298115 -0.156090
C109  C     C_3   0.526287 0.456517 0.297939 -0.156081
C110  C     C_3   0.026377 0.043428 0.298029 -0.156087
C111  C     C_3   0.026374 0.956570 0.298025 -0.156087
C112  C     C_3   0.525669 0.456622 0.246873 -0.432572
H1    H     H_    0.561699 0.543578 0.270499 0.164098
H2    H     H_    0.508749 0.574439 0.216608 0.180442
H3    H     H_    0.008595 0.925542 0.216454 0.180443
H4    H     H_    0.008601 0.074457 0.216460 0.180443
H5    H     H_    0.431868 0.530739 0.215716 0.182940
H6    H     H_    0.431743 0.469538 0.215592 0.182934
H7    H     H_    0.931807 0.030603 0.215655 0.182937
H8    H     H_    0.931804 0.969402 0.215652 0.182936
H9    H     H_    0.432270 0.530912 0.141600 0.178352
H10   H     H_    0.432145 0.469362 0.141476 0.178358
H11   H     H_    0.932208 0.030778 0.141539 0.178355
H12   H     H_    0.561522 0.456171 0.270322 0.164093
H13   H     H_    0.932206 0.969228 0.141537 0.178355
H14   H     H_    0.061613 0.043701 0.270413 0.164096
H15   H     H_    0.061609 0.956294 0.270409 0.164095
H16   H     H_    0.562727 0.541964 0.345571 0.125644
H17   H     H_    0.562556 0.457782 0.345401 0.125649
H18   H     H_    0.062644 0.042088 0.345488 0.125647
H19   H     H_    0.062640 0.957906 0.345484 0.125647
H20   H     H_    0.508447 0.425525 0.216306 0.180444
N1    N     N_1   0.491249 0.379635 0.293330 -0.201803
N2    N     N_1   0.491738 0.620399 0.293817 -0.201799
N3    N     N_1   0.991489 0.879618 0.293569 -0.201801
N4    N     N_1   0.991499 0.120383 0.293579 -0.201801
O1    O     O_R   0.563110 0.535630 0.563620 -0.596734
O2    O     O_R   0.500010 0.063160 0.964010 -0.593210
O3    O     O_R   1.000000 0.436830 0.034310 -0.593757
O4    O     O_R   0.000000 0.563170 0.034310 -0.593757
O5    O     O_R   0.500000 0.936830 0.034310 -0.593757
O6    O     O_R   0.500000 0.063170 0.034310 -0.593757
O7    O     O_R   0.936840 0.500000 0.901700 -0.593393
O8    O     O_R   0.436840 0.000000 0.901700 -0.593393
O9    O     O_R   0.936840 0.500000 0.972000 -0.593751
O10   O     O_R   0.436840 0.000000 0.972000 -0.593751
O11   O     O_R   0.063130 0.500000 0.028000 -0.593094
O12   O     O_R   0.563110 0.464370 0.563620 -0.596744
O13   O     O_R   0.563130 0.000000 0.028000 -0.593094
O14   O     O_R   0.063120 0.500000 0.098300 -0.593841
O15   O     O_R   0.563120 0.000000 0.098300 -0.593841
O16   O     O_R   0.499970 0.535640 0.438200 -0.610943
O17   O     O_R   0.499970 0.464360 0.438200 -0.610952
O18   O     O_R   0.999970 0.035640 0.438200 -0.610948
O19   O     O_R   0.999970 0.964360 0.438200 -0.610947
O20   O     O_R   0.436830 0.535630 0.437320 -0.596478
O21   O     O_R   0.436830 0.464370 0.437320 -0.596468
O22   O     O_R   0.936830 0.035630 0.437320 -0.596474
O23   O     O_R   0.063110 0.035630 0.563620 -0.596739
O24   O     O_R   0.936830 0.964370 0.437320 -0.596473
O25   O     O_R   0.499970 0.535630 0.562740 -0.592123
O26   O     O_R   0.499970 0.464370 0.562740 -0.592123
O27   O     O_R   0.999970 0.035630 0.562740 -0.592124
O28   O     O_R   0.999970 0.964370 0.562740 -0.592123
O29   O     O_R   0.535670 0.563060 0.029670 -0.596768
O30   O     O_R   0.535670 0.436940 0.029670 -0.596769
O31   O     O_R   0.035670 0.063060 0.029670 -0.596768
O32   O     O_R   0.035670 0.936940 0.029670 -0.596769
O33   O     O_R   0.464380 0.563080 0.958370 -0.596730
O34   O     O_R   0.063110 0.964370 0.563620 -0.596739
O35   O     O_R   0.464380 0.436920 0.958370 -0.596728
O36   O     O_R   0.964380 0.063080 0.958370 -0.596729
O37   O     O_R   0.964380 0.936920 0.958370 -0.596729
O38   O     O_R   0.535670 0.500000 0.091080 -0.612900
O39   O     O_R   0.035670 0.000000 0.091080 -0.612900
O40   O     O_R   0.464370 0.500000 0.019780 -0.612802
O41   O     O_R   0.964370 0.000000 0.019780 -0.612802
O42   O     O_R   0.535670 0.500000 0.966540 -0.592867
O43   O     O_R   0.035670 0.000000 0.966540 -0.592867
O44   O     O_R   0.464380 0.500000 0.895240 -0.592938
O45   O     O_R   0.964380 0.000000 0.895240 -0.592938
O46   O     O_R   0.000010 0.436840 0.964010 -0.593211
O47   O     O_R   0.000010 0.563160 0.964010 -0.593210
O48   O     O_R   0.500010 0.936840 0.964010 -0.593211
Zn1   Zn    Zn3+2 0.499970 0.547590 0.500630 0.975616
Zn2   Zn    Zn3+2 0.499990 0.000000 0.953050 0.971905
Zn3   Zn    Zn3+2 0.999980 0.500000 0.046950 0.970013
Zn4   Zn    Zn3+2 0.499980 0.000000 0.046950 0.970013
Zn5   Zn    Zn3+2 0.499970 0.452410 0.500630 0.975609
Zn6   Zn    Zn3+2 0.999970 0.047590 0.500630 0.975613
Zn7   Zn    Zn3+2 0.999970 0.952410 0.500630 0.975613
Zn8   Zn    Zn3+2 0.547630 0.500000 0.040770 0.968476
Zn9   Zn    Zn3+2 0.047630 0.000000 0.040770 0.968476
Zn10  Zn    Zn3+2 0.452420 0.500000 0.945550 0.968877
Zn11  Zn    Zn3+2 0.952420 0.000000 0.945550 0.968877
Zn12  Zn    Zn3+2 0.999990 0.500000 0.953050 0.971905

loop_
_geom_bond_atom_site_label_1
_geom_bond_atom_site_label_2
_ccdc_geom_bond_type
C25   O34   A    
C9    C111  S    
C71   C104  S    
C75   O7    A    
C34   C37   T    
O31   Zn9   S    
C4    H3    S    
C11   C47   S    
O23   Zn6   S    
C24   C27   S    
C92   C98   T    
C39   C41   T    
O8    Zn2   S    
O20   Zn1   S    
C75   O9    A    
C48   C54   S    
C74   O2    A    
C46   C49   T    
C100  C105  T    
C6    C66   S    
C63   C81   S    
O10   Zn4   S    
O2    Zn2   S    
C9    C69   S    
C112  H12   S    
C64   O31   A    
C36   C58   S    
O22   Zn6   S    
C79   C86   T    
C1    O1    A    
C95   C99   S    
C70   O43   A    
C65   C83   S    
C15   N3    T    
C5    C110  S    
C98   C103  S    
C58   H6    S    
O29   Zn8   S    
C7    C67   S    
C23   C26   T    
C89   C94   S    
C47   C69   S    
O25   Zn1   S    
C8    C58   S    
C74   C107  S    
C63   O35   A    
C63   O30   A    
C67   O39   A    
C49   C51   S    
C5    H14   S    
O37   Zn11  S    
C50   C52   S    
C10   C112  S    
C40   C42   S    
O28   Zn7   S    
C77   O11   A    
C90   C97   T    
C51   C55   T    
C14   C108  S    
C99   C104  T    
C74   O6    A    
C76   O10   A    
O13   Zn2   S    
C93   C95   T    
C87   C92   S    
C2    C17   T    
C17   C30   S    
C41   C43   S    
C71   O46   A    
C66   O40   A    
C42   C44   T    
O35   Zn10  S    
O3    Zn3   S    
C8    C108  S    
C12   C109  S    
C78   O15   A    
C47   H13   S    
O1    Zn1   S    
O15   Zn4   S    
C83   C89   T    
C60   C77   S    
C59   C61   T    
C16   C110  S    
C15   C111  S    
C62   C79   S    
C28   C32   T    
C35   C38   S    
O24   Zn7   S    
C86   C90   S    
C109  C112  S    
O14   Zn3   S    
C73   O48   A    
C10   C80   S    
O17   Zn5   S    
C57   C60   T    
C73   O5    A    
C14   N2    T    
C27   C31   T    
O34   Zn7   S    
C68   O44   A    
C58   H5    S    
C108  H16   S    
C10   C36   S    
C34   C85   S    
C64   O36   A    
C36   H10   S    
C25   O23   A    
C54   O22   A    
O42   Zn8   S    
C70   O45   A    
C6    C80   T    
C65   O32   A    
C30   O18   A    
C61   C78   S    
C7    C91   T    
O47   Zn12  S    
C1    C18   S    
O11   Zn12  S    
O5    Zn4   S    
C112  H20   S    
C4    C11   S    
C94   C96   T    
C48   C50   T    
C43   C45   T    
C64   C82   S    
C81   C87   T    
O19   Zn7   S    
C76   O8    A    
C111  H19   S    
C30   O19   A    
C4    C111  S    
O9    Zn3   S    
C12   N1    T    
C21   C23   S    
C5    H4    S    
C3    H1    S    
C85   O27   A    
C22   C24   T    
C44   C68   S    
O46   Zn12  S    
C16   N4    T    
C31   C75   S    
C84   O26   A    
C29   O17   A    
O43   Zn9   S    
C13   C29   S    
C101  C106  T    
C62   O33   A    
C88   C93   S    
O41   Zn11  S    
C4    H15   S    
C65   O37   A    
C45   C70   S    
O4    Zn3   S    
C53   O21   A    
O12   Zn5   S    
C72   O47   A    
C20   C22   S    
O16   Zn1   S    
C1    O12   A    
C3    H2    S    
C77   O14   A    
C32   C76   S    
C71   O3    A    
C5    C11   S    
O33   Zn10  S    
C9    C110  S    
C3    C108  S    
O6    Zn4   S    
C69   H8    S    
C26   C28   S    
C56   C59   S    
O32   Zn9   S    
C67   O41   A    
C55   C57   S    
C36   H9    S    
C37   C39   S    
C3    C10   S    
C8    C109  S    
C29   O16   A    
C38   C40   T    
C2    C9    S    
C73   C106  S    
O44   Zn10  S    
C47   H11   S    
C82   C88   T    
O7    Zn12  S    
C96   C100  S    
C46   C53   S    
C68   O42   A    
C33   C35   T    
O48   Zn2   S    
C110  H18   S    
O27   Zn6   S    
C18   C20   T    
O26   Zn5   S    
O18   Zn6   S    
O45   Zn11  S    
C33   C84   S    
O21   Zn5   S    
O30   Zn8   S    
C19   C25   S    
C54   O24   A    
C11   C91   S    
C72   O4    A    
C62   O29   A    
C72   C105  S    
C53   O20   A    
C85   O28   A    
C66   O38   A    
O36   Zn11  S    
C103  C107  T    
O40   Zn10  S    
C13   C102  T    
C109  H17   S    
C8    C102  S    
O39   Zn9   S    
C69   H7    S    
C97   C101  S    
C84   O25   A    
C52   C56   T    
C78   O13   A    
O38   Zn8   S    
C19   C21   T    
