data_mof_unit_8526.cif
_audit_creation_date              2012-12-10T19:10:03-0500
_audit_creation_method            fapswitch 2.2
_symmetry_space_group_name_H-M    P1
_symmetry_Int_Tables_number       1
_space_group_crystal_system       triclinic
_cell_length_a                    10.766819
_cell_length_b                    10.801649
_cell_length_c                    9.528252
_cell_angle_alpha                 90.678644
_cell_angle_beta                  89.946509
_cell_angle_gamma                 90.191237
_cell_volume                      1108.04564166

loop_
_atom_site_label
_atom_site_type_symbol
_atom_type_description
_atom_site_fract_x
_atom_site_fract_y
_atom_site_fract_z
_atom_type_partial_charge
C1    C     C_R   0.499917 0.262278 0.498796 0.830541
C2    C     C_R   0.254977 0.828079 0.133045 -0.182748
C3    C     C_R   0.933676 0.576047 0.408844 -0.238966
C4    C     C_R   0.871581 0.495663 0.499509 -0.077125
C5    C     C_R   0.938120 0.418530 0.590940 -0.001374
C6    C     C_R   0.066821 0.425707 0.591862 -0.244479
C7    C     C_R   0.128710 0.504796 0.500303 -0.084346
C8    C     C_R   0.062510 0.581574 0.408541 -0.000142
C9    C     C_R   0.890773 0.324147 0.823697 -0.158079
C10   C     C_R   0.841383 0.228171 0.903896 -0.130121
C11   C     C_R   0.781543 0.128310 0.837968 -0.134737
C12   C     C_R   0.262484 0.502736 0.500052 0.792908
C13   C     C_R   0.769365 0.125140 0.691960 -0.143519
C14   C     C_R   0.816400 0.222094 0.611576 -0.132681
C15   C     C_R   0.877906 0.322089 0.676975 0.127757
C16   C     C_R   0.431697 0.064146 0.597982 0.065356
C17   C     C_R   0.494707 0.128698 0.493386 -0.157736
C18   C     C_R   0.546302 0.061381 0.378892 0.220401
C19   C     C_R   0.548485 0.932282 0.383549 -0.301938
C20   C     C_R   0.498515 0.870166 0.498961 -0.142348
C21   C     C_R   0.434157 0.937180 0.600931 0.181585
C22   C     C_3   0.438768 0.934205 0.757319 -0.472653
C23   C     C_R   0.501017 0.737385 0.500574 0.828767
C24   C     C_3   0.434054 0.074947 0.754486 -0.480631
C25   C     C_R   0.559775 0.591655 0.074783 0.276021
C26   C     C_R   0.429033 0.418575 0.073522 -0.067579
C27   C     C_R   0.429559 0.418051 0.924461 -0.090496
C28   C     C_R   0.559340 0.591979 0.927391 0.251146
C29   C     C_3   0.693893 0.624533 0.921346 -0.500208
C30   C     C_3   0.694600 0.623268 0.080670 -0.521752
C31   C     C_R   0.737637 0.497359 0.499896 0.792417
C32   C     C_R   0.237396 0.863095 0.273145 -0.121186
C33   C     C_R   0.172578 0.785646 0.365845 0.279340
C34   C     C_R   0.126005 0.670504 0.315099 0.045578
C35   C     C_R   0.142581 0.637574 0.173245 -0.144028
C36   C     C_R   0.207267 0.715766 0.082999 -0.144380
Cu1   Cu    Cu3+1 0.499990 0.499980 0.640670 0.939869
Cu2   Cu    Cu3+1 0.500010 0.500020 0.359330 0.955043
H1    H     H_    0.305996 0.888171 0.063362 0.134057
H2    H     H_    0.744787 0.053220 0.899921 0.120407
H3    H     H_    0.723927 0.047200 0.641100 0.135183
H4    H     H_    0.807534 0.217859 0.498380 0.106955
H5    H     H_    0.593412 0.881135 0.299232 0.165170
H6    H     H_    0.353836 0.891613 0.802574 0.197720
H7    H     H_    0.528184 0.897699 0.797724 0.188195
H8    H     H_    0.345825 0.113035 0.797250 0.189603
H9    H     H_    0.519477 0.120257 0.795380 0.217834
H10   H     H_    0.372959 0.351776 0.128800 0.134404
H11   H     H_    0.276160 0.950140 0.309993 0.141628
H12   H     H_    0.374527 0.350188 0.867695 0.134460
H13   H     H_    0.751520 0.550031 0.873822 0.226882
H14   H     H_    0.709571 0.718209 0.877467 0.185005
H15   H     H_    0.752123 0.547346 0.123653 0.220617
H16   H     H_    0.711441 0.716076 0.128721 0.182347
H17   H     H_    0.107319 0.549973 0.133257 0.127576
H18   H     H_    0.221204 0.688817 0.974330 0.136135
H19   H     H_    0.881634 0.636400 0.340454 0.142756
H20   H     H_    0.119353 0.365171 0.659690 0.143877
H21   H     H_    0.939391 0.399721 0.875654 0.115326
H22   H     H_    0.850805 0.230456 0.016996 0.128284
N1    N     N_R   0.500790 0.500930 0.147930 -0.177101
N2    N     N_R   0.500790 0.500890 0.852020 -0.180132
O1    O     O_R   0.500000 0.319640 0.618810 -0.582099
O2    O     O_R   0.500010 0.319680 0.381230 -0.550765
O3    O     O_R   0.319640 0.499990 0.618790 -0.590850
O4    O     O_R   0.319650 0.500030 0.381210 -0.576867
O5    O     O_R   0.499990 0.680320 0.618770 -0.585438
O6    O     O_R   0.500000 0.680360 0.381190 -0.578807
O7    O     O_R   0.680350 0.499970 0.618790 -0.575116
O8    O     O_R   0.680360 0.500010 0.381210 -0.586618
N3    N     N_2   0.605040 0.122320 0.265060 -0.401656
H23   H     H_    0.697198 0.098385 0.253614 0.232500
C37   C     C_3   0.538009 0.112550 0.133824 -0.676581
H24   H     H_    0.543049 0.016526 0.090991 0.205593
H25   H     H_    0.579872 0.176583 0.056667 0.229275
H26   H     H_    0.439047 0.138272 0.149016 0.225241
N4    N     N_2   0.158941 0.822655 0.509400 -0.450694
H27   H     H_    0.137325 0.753379 0.578702 0.252495
C38   C     C_3   0.086838 0.933753 0.533550 -0.705532
H28   H     H_    0.084481 0.955594 0.647726 0.232685
H29   H     H_    0.990066 0.919715 0.495920 0.224494
H30   H     H_    0.129210 0.013997 0.479506 0.228079

loop_
_geom_bond_atom_site_label_1
_geom_bond_atom_site_label_2
_ccdc_geom_bond_type
Cu2   O8    S    
C16   C21   A    
Cu1   O7    S    
C37   H24   S    
C6    H20   S    
C35   C36   A    
C13   H3    S    
Cu1   N2    S    
C7    C8    A    
N4    H27   S    
C25   C28   A    
C30   H16   S    
C26   C27   A    
C29   C30   S    
C28   C29   S    
C26   N1    A    
C18   C19   A    
C5    C6    A    
C25   C30   S    
C2    C32   A    
C34   C35   A    
C23   O5    A    
C2    H1    S    
C31   O8    A    
C22   H6    S    
C19   C20   A    
C16   C17   A    
Cu1   O3    S    
C9    C10   A    
C27   H12   S    
C26   H10   S    
C14   H4    S    
Cu2   N1    S    
C16   C24   S    
C21   C22   S    
C37   H25   S    
C1    O1    A    
Cu1   O1    S    
C19   H5    S    
C33   C34   A    
Cu2   O2    S    
N4    C38   S    
C7    C12   S    
C30   H15   S    
C35   H17   S    
Cu2   O4    S    
C3    C8    A    
C38   H29   S    
C8    C34   S    
C12   O4    A    
C9    H21   S    
C23   O6    A    
C10   H22   S    
Cu1   Cu2   S    
C36   H18   S    
C27   N2    A    
C20   C23   S    
C17   C18   A    
C25   N1    A    
C3    H19   S    
Cu2   O6    S    
C37   H26   S    
C22   C24   S    
C3    C4    A    
C1    O2    A    
N3    C37   S    
C29   H13   S    
C2    C36   A    
C18   N3    S    
C24   H9    S    
C4    C5    A    
C38   H30   S    
C6    C7    A    
C12   O3    A    
C1    C17   S    
C24   H8    S    
C32   C33   A    
C9    C15   A    
N3    H23   S    
C11   C13   A    
C33   N4    S    
Cu1   O5    S    
C11   H2    S    
C32   H11   S    
C5    C15   S    
C4    C31   S    
C10   C11   A    
C38   H28   S    
C31   O7    A    
C22   H7    S    
C20   C21   A    
C14   C15   A    
C13   C14   A    
C29   H14   S    
C28   N2    A    
