data_mof_unit_8071.cif
_audit_creation_date              2012-10-26T21:13:22-0400
_audit_creation_method            fapswitch 2.2
_symmetry_space_group_name_H-M    P1
_symmetry_Int_Tables_number       1
_space_group_crystal_system       triclinic
_cell_length_a                    13.458944
_cell_length_b                    15.898222
_cell_length_c                    17.146818
_cell_angle_alpha                 82.995114
_cell_angle_beta                  88.938693
_cell_angle_gamma                 109.39335
_cell_volume                      3428.12464288

loop_
_atom_site_label
_atom_site_type_symbol
_atom_type_description
_atom_site_fract_x
_atom_site_fract_y
_atom_site_fract_z
_atom_type_partial_charge
C1    C     C_R   0.503877 0.511886 0.348484 0.572290
C2    C     C_R   0.818368 0.576330 0.494240 -0.034518
C3    C     C_R   0.507795 0.519024 0.262075 -0.003018
C4    C     C_R   0.702637 0.547530 0.499307 0.583251
C5    C     C_R   0.445821 0.444385 0.228107 -0.182339
C6    C     C_R   0.447051 0.446440 0.146712 -0.080654
C7    C     C_R   0.510823 0.523912 0.097617 0.184539
C8    C     C_R   0.571904 0.598173 0.131006 -0.052437
C9    C     C_R   0.572936 0.596680 0.212494 0.233704
C10   C     C_R   0.556595 0.542678 0.858388 -0.058911
C11   C     C_R   0.565308 0.549065 0.776485 0.184546
C12   C     C_R   0.979015 0.536876 0.491753 0.006457
C13   C     C_R   0.480196 0.469206 0.903782 0.134705
C14   C     C_R   0.494703 0.480975 0.738283 -0.010852
C15   C     C_R   0.418059 0.406480 0.784619 0.204316
C16   C     C_R   0.499124 0.488854 0.651534 0.653516
C17   C     C_R   0.413362 0.401336 0.866519 -0.072239
C18   C     C_R   0.574057 0.273005 0.476899 0.032137
C19   C     C_R   0.584127 0.187514 0.477699 0.186884
C20   C     C_R   0.497093 0.109773 0.507378 0.194636
C21   C     C_R   0.407405 0.124188 0.539118 -0.136594
C22   C     C_R   0.403766 0.211704 0.540124 0.048864
C23   C     C_R   0.872278 0.515993 0.518864 0.020174
C24   C     C_R   0.459002 0.838760 0.522346 -0.106108
C25   C     C_R   0.445035 0.746347 0.531246 0.372684
C26   C     C_R   0.542703 0.903040 0.475259 0.165518
C27   C     C_R   0.595956 0.776481 0.445113 0.046904
C28   C     C_R   0.297481 0.452204 0.501217 0.574082
C29   C     C_R   0.612446 0.869999 0.435623 0.225435
C30   C     C_R   0.017456 0.320041 0.570306 -0.078643
C31   C     C_R   0.182517 0.423516 0.508787 0.007694
C32   C     C_R   0.874685 0.662544 0.455532 -0.076658
C33   C     C_R   0.981294 0.686363 0.433888 0.265892
C34   C     C_R   0.028347 0.470844 0.509250 0.055989
C35   C     C_R   0.031993 0.623062 0.448736 -0.064657
C36   C     C_R   0.971125 0.386777 0.554508 0.076257
C37   C     C_R   0.869723 0.371223 0.586029 -0.083801
C38   C     C_R   0.822132 0.435801 0.570358 -0.072043
C39   C     C_R   0.133851 0.486367 0.485320 -0.093301
C40   C     C_R   0.122815 0.338227 0.547243 -0.076966
Cu1   Cu    Cu3+1 0.505120 0.585970 0.496130 1.154195
Cu2   Cu    Cu3+1 0.494880 0.414030 0.503870 1.030495
H1    H     H_    0.610581 0.594947 0.886950 0.203046
H2    H     H_    0.746090 0.422344 0.600434 0.163649
H3    H     H_    0.158944 0.287622 0.563689 0.166670
H4    H     H_    0.804231 0.799528 0.203529 0.401904
H5    H     H_    0.175424 0.214323 0.783246 0.378655
H6    H     H_    0.398381 0.387598 0.122636 0.170426
H7    H     H_    0.395734 0.384208 0.264781 0.153705
H8    H     H_    0.255208 0.548145 0.660315 0.372813
H9    H     H_    0.402186 0.860392 0.552343 0.196469
H10   H     H_    0.751155 0.147354 0.564682 0.326877
H11   H     H_    0.845858 0.928892 0.300508 0.378315
H12   H     H_    0.620761 0.657205 0.092441 0.195390
H13   H     H_    0.182183 0.548105 0.450916 0.148916
H14   H     H_    0.834709 0.710347 0.438838 0.209332
H15   H     H_    0.112761 0.644021 0.426214 0.172163
H16   H     H_    0.034423 0.925879 0.376976 0.380729
H17   H     H_    0.794369 0.657010 0.638392 0.375687
H18   H     H_    0.355521 0.344811 0.902241 0.201554
H19   H     H_    0.339809 0.067048 0.563575 0.157054
H20   H     H_    0.827301 0.309152 0.623795 0.115753
H21   H     H_    0.333874 0.220634 0.564581 0.174841
H22   H     H_    0.650708 0.752339 0.416048 0.227525
H23   H     H_    0.637888 0.331042 0.449838 0.187267
H24   H     H_    0.973458 0.255174 0.603373 0.137971
N1    N     N_2   0.518599 0.530543 0.014492 -0.215811
N2    N     N_2   0.468777 0.460553 0.987150 -0.212583
N3    N     N_R   0.487180 0.284900 0.509690 -0.265261
N4    N     N_2   0.494089 0.017530 0.512002 -0.222016
N5    N     N_2   0.555375 0.998174 0.466657 -0.065182
N6    N     N_R   0.512820 0.715120 0.490310 -0.284076
O1    O     O_R   0.504790 0.580580 0.382450 -0.462177
O2    O     O_2   0.713331 0.662769 0.317554 -0.303847
O3    O     O_3   0.753618 0.752639 0.177158 -0.485463
O4    O     O_2   0.275000 0.361670 0.677381 -0.313554
O5    O     O_2   0.374374 0.259515 0.712936 -0.274967
O6    O     O_3   0.225820 0.259073 0.811731 -0.505258
O7    O     O_2   0.322216 0.731731 0.659738 -0.247386
O8    O     O_2   0.236940 0.668344 0.546620 -0.316182
O9    O     O_3   0.328156 0.577831 0.636711 -0.469656
O10   O     O_2   0.702040 0.148665 0.370430 -0.136049
O11   O     O_2   0.790694 0.277490 0.437202 -0.307149
O12   O     O_R   0.496140 0.435390 0.388990 -0.518782
O13   O     O_3   0.747280 0.118562 0.516225 -0.437754
O14   O     O_2   0.679302 0.990538 0.306910 -0.186554
O15   O     O_2   0.792931 0.009388 0.418471 -0.165596
O16   O     O_3   0.787817 0.883391 0.334667 -0.496863
O17   O     O_2   0.164595 0.821712 0.398773 -0.241767
O18   O     O_2   0.037596 0.791186 0.296192 -0.235157
O19   O     O_3   0.998041 0.869022 0.412052 -0.484360
O20   O     O_2   0.624111 0.706229 0.680537 -0.224759
O21   O     O_2   0.744523 0.689546 0.781710 -0.244427
O22   O     O_3   0.735302 0.603095 0.661976 -0.550341
O23   O     O_R   0.657420 0.608020 0.495150 -0.494746
O24   O     O_R   0.648770 0.462830 0.501690 -0.539692
O25   O     O_R   0.503860 0.564610 0.611010 -0.394897
O26   O     O_R   0.495210 0.419420 0.617550 -0.455334
O27   O     O_R   0.351230 0.537170 0.498310 -0.455132
O28   O     O_R   0.342580 0.391980 0.504850 -0.503539
O29   O     O_2   0.598785 0.748942 0.271454 -0.240390
S1    S     S_3+6 0.660573 0.691842 0.247992 0.048617
S2    S     S_3+6 0.322383 0.320275 0.743521 0.015624
S3    S     S_3+6 0.331797 0.679509 0.594203 0.076306
S4    S     S_3+6 0.709306 0.184798 0.447759 0.065842
S5    S     S_3+6 0.720055 0.942243 0.372784 0.114585
S6    S     S_3+6 0.049479 0.794085 0.382894 0.057129
S7    S     S_3+6 0.669104 0.641235 0.725147 0.050471

loop_
_geom_bond_atom_site_label_1
_geom_bond_atom_site_label_2
_ccdc_geom_bond_type
O29   S1    D    
C27   C29   A    
Cu1   Cu2   S    
C19   C20   A    
C33   S6    S    
C5    H7    S    
C37   H20   S    
C7    C8    A    
C18   H23   S    
C12   C23   A    
O22   S7    S    
C6    H6    S    
O8    S3    D    
Cu2   O24   S    
C36   C37   A    
C24   C26   A    
O18   S6    D    
Cu2   O26   S    
O21   S7    D    
C5    C6    A    
C11   C14   A    
C16   O25   A    
C31   C40   A    
C2    C32   A    
C18   C19   A    
O10   S4    D    
C22   H21   S    
C4    O24   A    
O20   S7    D    
C39   H13   S    
C9    S1    S    
O3    S1    S    
Cu1   O27   S    
N4    N5    D    
H17   O22   S    
H16   O19   S    
C22   N3    A    
C21   H19   S    
O2    S1    D    
C28   O28   A    
C18   N3    A    
C10   H1    S    
C21   C22   A    
C26   N5    S    
C20   N4    S    
O14   S5    D    
O13   S4    S    
H4    O3    S    
C1    O12   A    
C40   H3    S    
C34   C39   A    
O19   S6    S    
Cu2   O12   S    
C24   C25   A    
C27   H22   S    
C8    H12   S    
C8    C9    A    
Cu1   O1    S    
Cu2   N3    S    
N1    N2    D    
C1    C3    S    
C2    C4    S    
C38   H2    S    
C37   C38   A    
C3    C9    A    
Cu2   O28   S    
C4    O23   A    
O16   S5    S    
O17   S6    D    
O4    S2    D    
C30   C40   A    
C25   N6    A    
C12   C35   A    
C30   H24   S    
Cu1   N6    S    
C19   S4    S    
C28   O27   A    
C14   C16   S    
C29   S5    S    
O5    S2    D    
C12   C34   A    
C11   S7    S    
C15   C17   A    
H10   O13   S    
O6    S2    S    
C28   C31   S    
C3    C5    A    
C10   C13   A    
C25   S3    S    
C6    C7    A    
C30   C36   A    
C23   C38   A    
C13   C17   A    
C35   H15   S    
C1    O1    A    
C32   C33   A    
C13   N2    S    
C16   O26   A    
Cu1   O23   S    
O15   S5    D    
C24   H9    S    
C33   C35   A    
C34   C36   A    
C31   C39   A    
H11   O16   S    
Cu1   O25   S    
O7    S3    D    
C10   C11   A    
C17   H18   S    
C7    N1    S    
O11   S4    D    
C20   C21   A    
C26   C29   A    
C2    C23   A    
C14   C15   A    
H5    O6    S    
C15   S2    S    
C32   H14   S    
C27   N6    A    
H8    O9    S    
O9    S3    S    
