data_mof_unit_19838.cif
_audit_creation_date              2012-12-11T17:03:11-0500
_audit_creation_method            fapswitch 2.2
_symmetry_space_group_name_H-M    P1
_symmetry_Int_Tables_number       1
_space_group_crystal_system       triclinic
_cell_length_a                    16.664657
_cell_length_b                    7.119281
_cell_length_c                    15.219211
_cell_angle_alpha                 90.000801
_cell_angle_beta                  94.606024
_cell_angle_gamma                 90.000423
_cell_volume                      1799.78158094

loop_
_atom_site_label
_atom_site_type_symbol
_atom_type_description
_atom_site_fract_x
_atom_site_fract_y
_atom_site_fract_z
_atom_type_partial_charge
O1    O     O_R   0.413460 0.494300 0.415980 -0.535260
O2    O     O_R   0.586540 0.994300 0.584020 -0.535265
O3    O     O_R   0.577100 0.822370 0.413730 -0.536152
O4    O     O_R   0.422900 0.322370 0.586270 -0.536149
C1    C     C_R   0.603996 0.655421 0.393735 0.715945
C2    C     C_R   0.396004 0.155422 0.606264 0.715964
O5    O     O_R   0.413490 0.823910 0.405510 -0.541471
O6    O     O_R   0.586510 0.323910 0.594490 -0.541486
O7    O     O_R   0.421770 0.995890 0.575740 -0.531213
O8    O     O_R   0.578230 0.495890 0.424260 -0.531216
C3    C     C_R   0.385415 0.655418 0.383585 0.690523
C4    C     C_R   0.614586 0.155421 0.616413 0.690538
O9    O     O_3   0.502910 0.661350 0.555860 -0.366008
O10   O     O_3   0.497090 0.161350 0.444140 -0.366002
V1    V     V_3+5 0.499460 0.935550 0.489640 1.457102
V2    V     V_3+5 0.500540 0.435550 0.510360 1.457097
C5    C     C_R   0.743716 0.006942 0.679341 0.020647
C6    C     C_R   0.256265 0.507000 0.320669 0.020633
C7    C     C_R   0.685508 0.148038 0.681950 -0.092866
C8    C     C_R   0.314499 0.648031 0.318038 -0.092849
C9    C     C_R   0.697662 0.283425 0.748726 -0.164173
C10   C     C_R   0.302392 0.783314 0.251213 -0.164157
H1    H     H_    0.652394 0.387990 0.755936 0.157641
H2    H     H_    0.347693 0.887790 0.243971 0.157658
C11   C     C_R   0.764020 0.273783 0.812005 -0.179376
C12   C     C_R   0.236034 0.773669 0.187930 -0.179422
H3    H     H_    0.768944 0.377492 0.864225 0.126535
H4    H     H_    0.231145 0.877275 0.135670 0.126576
C13   C     C_R   0.819913 0.124859 0.811558 -0.106581
C14   C     C_R   0.180096 0.624852 0.188427 -0.106592
C15   C     C_R   0.810866 0.998489 0.740573 0.059481
C16   C     C_R   0.189116 0.498552 0.259435 0.059411
C17   C     C_3   0.810103 0.788124 0.739886 -0.200368
C18   C     C_3   0.189847 0.288187 0.260149 -0.200341
C19   C     C_3   0.733189 0.798585 0.677963 -0.241560
C20   C     C_3   0.266756 0.298635 0.322075 -0.241582
H5    H     H_    0.801072 0.727996 0.805982 0.126168
H6    H     H_    0.198875 0.228001 0.194064 0.126218
H7    H     H_    0.736530 0.735545 0.611521 0.118698
H8    H     H_    0.263403 0.235658 0.388525 0.118701
C21   C     C_1   0.165545 0.120636 0.830826 -0.190746
C22   C     C_1   0.834456 0.620638 0.169175 -0.190727
C23   C     C_1   0.218104 0.128738 0.779352 0.009852
C24   C     C_1   0.781896 0.628740 0.220649 0.009845
C25   C     C_1   0.280323 0.138392 0.719161 0.010200
C26   C     C_1   0.719677 0.638391 0.280839 0.010189
C27   C     C_1   0.333167 0.146390 0.668019 -0.182603
C28   C     C_1   0.666833 0.646388 0.331981 -0.182614
O11   O     O_R   0.921840 0.772560 0.075830 -0.533259
O12   O     O_R   0.078160 0.272560 0.924170 -0.533278
O13   O     O_R   0.086520 0.441250 0.094510 -0.537614
O14   O     O_R   0.913480 0.941250 0.905490 -0.537623
C29   C     C_R   0.113545 0.610407 0.117721 0.686758
C30   C     C_R   0.886457 0.110407 0.882274 0.686750
O15   O     O_R   0.922920 0.442940 0.086290 -0.529624
O16   O     O_R   0.077080 0.942940 0.913710 -0.529623
O17   O     O_R   0.913440 0.271120 0.915960 -0.549338
O18   O     O_R   0.086560 0.771120 0.084040 -0.549312
C31   C     C_R   0.896792 0.611534 0.106846 0.711058
C32   C     C_R   0.103209 0.111533 0.893155 0.711044
O19   O     O_3   0.997130 0.604020 0.944190 -0.376010
O20   O     O_3   0.002870 0.104020 0.055810 -0.375960
V3    V     V_3+5 0.000530 0.329760 0.010360 1.403566
V4    V     V_3+5 0.999470 0.829760 0.989640 1.403568
C33   C     C_R   0.881861 0.706942 0.697120 0.119230
C34   C     C_R   0.925413 0.559442 0.739031 -0.096048
C35   C     C_R   0.992112 0.481926 0.702267 -0.111917
C36   C     C_R   0.016326 0.551908 0.622896 -0.112276
C37   C     C_R   0.973516 0.698576 0.580010 -0.130735
C38   C     C_R   0.906612 0.776033 0.616633 -0.129812
H9    H     H_    0.907556 0.505409 0.800441 0.135238
H10   H     H_    0.025101 0.367950 0.735464 0.109737
H11   H     H_    0.068253 0.492612 0.594651 0.106134
H12   H     H_    0.992324 0.752345 0.518427 0.117322
H13   H     H_    0.874514 0.889911 0.582290 0.105964
C39   C     C_R   0.118077 0.207075 0.302921 0.119277
C40   C     C_R   0.074570 0.059417 0.261080 -0.096074
C41   C     C_R   0.007881 0.981908 0.297867 -0.112006
C42   C     C_R   0.983629 0.052075 0.377189 -0.112166
C43   C     C_R   0.026389 0.198918 0.420006 -0.130713
C44   C     C_R   0.093292 0.276344 0.383363 -0.129879
H14   H     H_    0.092451 0.005250 0.199706 0.135171
H15   H     H_    0.974924 0.867808 0.264729 0.109695
H16   H     H_    0.931703 0.992807 0.405441 0.106118
H17   H     H_    0.007547 0.252847 0.481546 0.117341
H18   H     H_    0.125363 0.390333 0.417655 0.105983
C45   C     C_1   0.660042 0.747457 0.721037 0.352933
N1    N     N_1   0.601945 0.713256 0.754769 -0.365730
C46   C     C_1   0.339895 0.247422 0.279011 0.353051
N2    N     N_1   0.397983 0.213195 0.245281 -0.365781

loop_
_geom_bond_atom_site_label_1
_geom_bond_atom_site_label_2
_ccdc_geom_bond_type
C20   C46   S    
C45   N1    T    
O15   C31   A    
O1    C3    A    
O2    C4    A    
C2    O7    A    
C17   C33   S    
C40   C41   A    
O5    C3    A    
O20   V3    S    
C10   H2    S    
C7    C9    A    
C42   H16   S    
C13   C30   S    
C33   C38   A    
C35   H10   S    
C5    C7    A    
C19   C45   S    
C41   H15   S    
O14   C30   A    
C36   C37   A    
O15   V3    S    
O16   V4    S    
C18   C20   S    
C44   H18   S    
O5    V1    S    
C34   C35   A    
O6    V2    S    
O11   V4    S    
C11   C13   A    
O12   V3    S    
C21   C23   T    
C22   C24   T    
C14   C29   S    
C24   C26   S    
O17   V3    S    
C25   C27   T    
O18   V4    S    
C1    C28   S    
C26   C28   T    
C3    C8    S    
C2    C27   S    
C35   C36   A    
C20   H8    S    
O13   V3    S    
C39   C40   A    
O4    C2    A    
O14   V4    S    
C41   C42   A    
C36   H11   S    
C17   H5    S    
O16   C32   A    
O13   C29   A    
C16   C18   S    
O4    V2    S    
O19   V4    S    
C19   H7    S    
C43   H17   S    
C34   H9    S    
O6    C4    A    
C15   C17   S    
C37   H12   S    
O1    V2    S    
O2    V1    S    
C23   C25   S    
C8    C10   A    
C12   C14   A    
O9    V1    S    
C5    C15   A    
O10   V2    S    
O9    V2    S    
C6    C16   A    
O3    V1    S    
C9    C11   A    
C18   H6    S    
C21   C32   S    
C43   C44   A    
O3    C1    A    
C39   C44   A    
C29   O18   A    
C11   H3    S    
C12   H4    S    
O11   C31   A    
O12   C32   A    
C9    H1    S    
O7    V1    S    
C1    O8    A    
C13   C15   A    
O8    V2    S    
C14   C16   A    
C40   H14   S    
C4    C7    S    
C17   C19   S    
C6    C8    A    
C37   C38   A    
C42   C43   A    
C33   C34   A    
C10   C12   A    
C22   C31   S    
C38   H13   S    
O10   V1    S    
C5    C19   S    
C46   N2    T    
C6    C20   S    
C18   C39   S    
C30   O17   A    
