data_mof_unit_54869.cif
_audit_creation_date              2012-10-26T19:46:30-0400
_audit_creation_method            fapswitch 2.2
_symmetry_space_group_name_H-M    P1
_symmetry_Int_Tables_number       1
_space_group_crystal_system       triclinic
_cell_length_a                    10.84139
_cell_length_b                    9.590823
_cell_length_c                    15.184142
_cell_angle_alpha                 90.017784
_cell_angle_beta                  92.812428
_cell_angle_gamma                 90.003157
_cell_volume                      1576.91274448

loop_
_atom_site_label
_atom_site_type_symbol
_atom_type_description
_atom_site_fract_x
_atom_site_fract_y
_atom_site_fract_z
_atom_type_partial_charge
C1    C     C_R   0.262373 0.500547 0.501524 0.557063
C2    C     C_R   0.935920 0.629932 0.499105 -0.109225
C3    C     C_R   0.936453 0.377528 0.495899 -0.136054
C4    C     C_R   0.064053 0.629933 0.500174 -0.109121
C5    C     C_R   0.566358 0.615276 0.098194 0.263637
C6    C     C_R   0.567704 0.409901 0.910159 0.271492
C7    C     C_R   0.433245 0.614474 0.901842 0.263724
C8    C     C_R   0.434300 0.408743 0.089671 0.271475
C9    C     C_R   0.572345 0.605448 0.190389 0.160789
C10   C     C_R   0.568979 0.407006 0.818356 0.194907
C11   C     C_R   0.427180 0.604629 0.809644 0.160608
C12   C     C_R   0.737626 0.500544 0.498469 0.557144
C13   C     C_R   0.432855 0.405735 0.181468 0.194966
C14   C     C_R   0.502882 0.502676 0.232896 -0.065203
C15   C     C_R   0.497597 0.502814 0.767061 -0.064888
C16   C     C_R   0.499256 0.514899 0.048090 -0.010056
C17   C     C_R   0.501568 0.515022 0.951849 -0.010027
C18   C     C_R   0.871541 0.502881 0.497079 0.039182
C19   C     C_R   0.128461 0.502908 0.502920 0.039306
C20   C     C_3   0.209291 0.094929 0.407182 -0.069372
C21   C     C_3   0.600451 0.889573 0.708737 -0.044137
C22   C     C_3   0.790443 0.094830 0.593880 -0.068241
C23   C     C_R   0.500811 0.500284 0.329922 0.605123
C24   C     C_3   0.397984 0.889662 0.291277 -0.042062
C25   C     C_3   0.737347 0.699097 0.033315 -0.065161
C26   C     C_3   0.742800 0.338291 0.987543 -0.070216
C27   C     C_3   0.261370 0.695707 0.966814 -0.065706
C28   C     C_3   0.260124 0.334608 0.012166 -0.069808
C29   C     C_R   0.499322 0.500327 0.670061 0.606092
C30   C     C_R   0.416897 0.074095 0.446912 0.335953
C31   C     C_R   0.572940 0.924790 0.559851 0.321813
C32   C     C_R   0.583043 0.074188 0.553142 0.335417
C33   C     C_R   0.426983 0.924692 0.440190 0.322483
C34   C     C_R   0.063581 0.377588 0.504854 -0.136298
Cl1   Cl    Cl    0.674931 0.717987 0.250336 -0.607931
Cl2   Cl    Cl    0.668450 0.286527 0.771207 -0.557082
Cl3   Cl    Cl    0.323444 0.715850 0.749745 -0.608195
Cl4   Cl    Cl    0.334963 0.283376 0.228377 -0.556658
Cu1   Cu    Cu3+1 0.500000 0.640660 0.500000 1.121506
Cu2   Cu    Cu3+1 0.500000 0.359340 0.500000 1.125071
H1    H     H_    0.110811 0.279669 0.513253 0.121204
H2    H     H_    0.654469 0.979656 0.735134 0.187478
H3    H     H_    0.857675 0.175542 0.616795 0.154085
H4    H     H_    0.807439 0.067203 0.524232 0.078677
H5    H     H_    0.811050 0.004400 0.637291 0.156310
H6    H     H_    0.380855 0.800932 0.245447 0.153385
H7    H     H_    0.497792 0.916880 0.290295 0.183805
H8    H     H_    0.342137 0.978290 0.264838 0.187263
H9    H     H_    0.734337 0.637574 0.971408 0.081207
H10   H     H_    0.793405 0.644570 0.086227 0.132663
H11   H     H_    0.785139 0.798472 0.019719 0.163255
H12   H     H_    0.887720 0.728872 0.499146 0.148506
H13   H     H_    0.740973 0.401555 0.048563 0.093282
H14   H     H_    0.794424 0.393557 0.936321 0.118820
H15   H     H_    0.794597 0.241446 0.004463 0.165611
H16   H     H_    0.205880 0.640539 0.913851 0.132996
H17   H     H_    0.265082 0.634041 0.028650 0.081185
H18   H     H_    0.212504 0.794361 0.980539 0.162521
H19   H     H_    0.261226 0.398123 0.951249 0.093151
H20   H     H_    0.207799 0.388860 0.063436 0.118664
H21   H     H_    0.209521 0.237031 0.995081 0.166243
H22   H     H_    0.889249 0.279488 0.488097 0.121421
H23   H     H_    0.112227 0.728864 0.499539 0.148426
H24   H     H_    0.141969 0.175517 0.384265 0.153318
H25   H     H_    0.192963 0.068105 0.477046 0.078886
H26   H     H_    0.188170 0.003976 0.364291 0.155281
H27   H     H_    0.618844 0.801504 0.754828 0.153185
H28   H     H_    0.500164 0.914457 0.709273 0.183053
N1    N     N_R   0.500000 0.852070 0.500000 -0.239863
N2    N     N_R   0.500000 0.147930 0.500000 -0.259046
O1    O     O_R   0.319640 0.618740 0.499990 -0.475408
O2    O     O_3   0.638962 0.850528 0.624477 -0.565301
O3    O     O_3   0.670138 0.147876 0.603923 -0.482870
O4    O     O_3   0.360618 0.850264 0.375761 -0.565590
O5    O     O_3   0.616808 0.730328 0.058076 -0.474000
O6    O     O_3   0.621742 0.301242 0.958353 -0.469700
O7    O     O_3   0.381546 0.728717 0.942059 -0.474236
O8    O     O_3   0.381595 0.299364 0.041365 -0.469359
O9    O     O_R   0.680360 0.381260 0.500010 -0.483057
O10   O     O_R   0.680360 0.618740 0.500010 -0.475479
O11   O     O_R   0.319640 0.381260 0.499990 -0.483318
O12   O     O_R   0.499990 0.618780 0.371460 -0.441713
O13   O     O_R   0.500010 0.381220 0.628540 -0.436432
O14   O     O_R   0.500010 0.618780 0.628540 -0.442102
O15   O     O_R   0.499990 0.381220 0.371460 -0.436060
O16   O     O_3   0.329523 0.147622 0.396334 -0.482659

loop_
_geom_bond_atom_site_label_1
_geom_bond_atom_site_label_2
_ccdc_geom_bond_type
Cu2   O15   S    
C5    O5    S    
C8    C13   A    
C23   O12   A    
C2    C18   A    
C26   H15   S    
C7    C11   A    
C4    H23   S    
C1    O1    A    
Cu2   N2    S    
C20   H26   S    
Cu1   O14   S    
C29   O13   A    
C10   C15   A    
C3    H22   S    
C1    O11   A    
C12   O9    A    
C3    C18   A    
C11   Cl3   S    
C25   H10   S    
C5    C16   A    
C4    C19   A    
C11   C15   A    
C22   H4    S    
C31   C32   A    
C16   C17   S    
C7    C17   A    
C20   O16   S    
C26   O6    S    
C30   O16   S    
C28   O8    S    
C33   N1    A    
C7    O7    S    
C28   H21   S    
C8    C16   A    
C13   C14   A    
C21   H27   S    
C8    O8    S    
Cu2   O13   S    
C34   H1    S    
C26   H14   S    
C30   N2    A    
C15   C29   S    
C28   H20   S    
C1    C19   S    
C21   O2    S    
C24   H8    S    
C20   H25   S    
C29   O14   A    
C27   H17   S    
C32   O3    S    
C27   H16   S    
C32   N2    A    
C3    C34   A    
C27   H18   S    
C25   O5    S    
C14   C23   S    
C20   H24   S    
C2    C4    A    
C9    C14   A    
C25   H11   S    
C5    C9    A    
C22   H3    S    
Cu1   N1    S    
Cu2   O9    S    
C13   Cl4   S    
C2    H12   S    
C31   O2    S    
C21   H28   S    
C26   H13   S    
Cu1   Cu2   S    
C28   H19   S    
C6    C17   A    
C30   C33   A    
C24   H7    S    
Cu2   O11   S    
Cu1   O12   S    
C27   O7    S    
C19   C34   A    
C6    C10   A    
C6    O6    S    
C24   H6    S    
Cu1   O10   S    
C24   O4    S    
C12   O10   A    
C25   H9    S    
C21   H2    S    
C33   O4    S    
C31   N1    A    
C22   H5    S    
C23   O15   A    
C12   C18   S    
C9    Cl1   S    
Cu1   O1    S    
C10   Cl2   S    
C22   O3    S    
