data_mof_unit_59723.cif
_audit_creation_date              2012-10-26T20:13:52-0400
_audit_creation_method            fapswitch 2.2
_symmetry_space_group_name_H-M    P1
_symmetry_Int_Tables_number       1
_space_group_crystal_system       triclinic
_cell_length_a                    8.748729
_cell_length_b                    10.893286
_cell_length_c                    9.554244
_cell_angle_alpha                 91.194129
_cell_angle_beta                  97.750381
_cell_angle_gamma                 90.824231
_cell_volume                      901.892808037

loop_
_atom_site_label
_atom_site_type_symbol
_atom_type_description
_atom_site_fract_x
_atom_site_fract_y
_atom_site_fract_z
_atom_type_partial_charge
C1    C     C_R   0.497162 0.263095 0.498248 0.548916
C2    C     C_R   0.625643 0.543537 0.942795 0.158421
C3    C     C_3   0.689501 0.670612 0.945001 -0.166001
C4    C     C_R   0.204556 0.492262 0.463865 0.545543
C5    C     C_3   0.680824 0.676997 0.103577 -0.157784
C6    C     C_R   0.493837 0.737502 0.500011 0.558277
C7    C     C_R   0.795790 0.496188 0.535432 0.559443
C8    C     C_2   0.040600 0.471168 0.444009 -0.038506
C9    C     C_2   0.961669 0.496713 0.552324 -0.134785
C10   C     C_R   0.534527 0.066658 0.614957 0.013593
C11   C     C_R   0.488753 0.131227 0.494553 0.001875
C12   C     C_R   0.422438 0.934241 0.372509 -0.040052
C13   C     C_R   0.429142 0.063767 0.371621 -0.152609
C14   C     C_1   0.972174 0.415074 0.310223 0.244893
C15   C     C_1   0.845492 0.674379 0.902633 0.226785
C16   C     C_1   0.828830 0.693619 0.196324 0.239671
C17   C     C_1   0.349607 0.871051 0.245844 0.222495
C18   C     C_1   0.765687 0.136379 0.771954 0.234990
C19   C     C_R   0.480478 0.870766 0.497717 0.004732
C20   C     C_R   0.529371 0.943032 0.617701 -0.006422
C21   C     C_3   0.603120 0.943369 0.768366 -0.270400
C22   C     C_3   0.608531 0.084176 0.763115 -0.118374
C23   C     C_R   0.623700 0.546724 0.090574 0.171213
C24   C     C_R   0.384702 0.443857 0.058730 0.011477
C25   C     C_R   0.384317 0.444345 0.909975 0.005338
Cu1   Cu    Cu3+1 0.499990 0.499980 0.640670 0.977919
Cu2   Cu    Cu3+1 0.500010 0.500020 0.359330 1.002535
H1    H     H_    0.289226 0.401022 0.841755 0.133370
H2    H     H_    0.607240 0.730078 0.883166 0.123961
H3    H     H_    0.592223 0.741520 0.131688 0.135283
H4    H     H_    0.020765 0.527241 0.654655 0.148567
H5    H     H_    0.386088 0.111422 0.276128 0.136978
H6    H     H_    0.521052 0.911927 0.839802 0.135877
H7    H     H_    0.718240 0.899862 0.780691 0.150485
H8    H     H_    0.533960 0.131723 0.831818 0.131119
H9    H     H_    0.290089 0.399916 0.101515 0.135539
N1    N     N_R   0.500980 0.500930 0.148050 -0.242175
N2    N     N_R   0.500990 0.500890 0.852140 -0.248059
N3    N     N_1   0.918579 0.370087 0.203690 -0.287899
N4    N     N_1   0.968164 0.678069 0.870155 -0.278129
N5    N     N_1   0.945009 0.708488 0.268729 -0.268024
N6    N     N_1   0.290725 0.820732 0.144415 -0.261898
N7    N     N_1   0.889164 0.177686 0.778837 -0.284764
O1    O     O_R   0.500000 0.319640 0.618810 -0.507110
O2    O     O_R   0.500020 0.319680 0.381230 -0.510529
O3    O     O_R   0.274830 0.499980 0.591380 -0.517883
O4    O     O_R   0.274850 0.500020 0.353800 -0.490955
O5    O     O_R   0.499980 0.680320 0.618770 -0.502750
O6    O     O_R   0.500000 0.680360 0.381190 -0.499423
O7    O     O_R   0.725150 0.499980 0.646200 -0.487797
O8    O     O_R   0.725170 0.500020 0.408620 -0.486965

loop_
_geom_bond_atom_site_label_1
_geom_bond_atom_site_label_2
_ccdc_geom_bond_type
C12   C17   S    
C24   C25   A    
C6    C19   S    
C25   N2    A    
C2    N2    A    
C13   H5    S    
C19   C20   A    
C5    C23   S    
Cu1   O5    S    
C4    C8    S    
Cu2   O2    S    
C18   C22   S    
C2    C3    S    
Cu1   O1    S    
C4    O3    A    
C18   N7    T    
C20   C21   S    
C25   H1    S    
C22   H8    S    
C11   C13   A    
C1    O2    A    
Cu1   Cu2   S    
C24   H9    S    
C6    O5    A    
Cu2   N1    S    
C12   C19   A    
C21   C22   S    
Cu2   O8    S    
C24   N1    A    
Cu1   O7    S    
C6    O6    A    
C15   N4    T    
C21   H6    S    
C10   C11   A    
Cu1   O3    S    
C7    O8    A    
C3    C15   S    
C12   C13   A    
C7    C9    S    
C5    H3    S    
Cu2   O4    S    
C2    C23   A    
C3    H2    S    
C9    H4    S    
C17   N6    T    
Cu1   N2    S    
C5    C16   S    
C8    C14   S    
C21   H7    S    
C1    O1    A    
C14   N3    T    
C23   N1    A    
C16   N5    T    
C10   C22   S    
Cu2   O6    S    
C7    O7    A    
C10   C20   A    
C8    C9    D    
C3    C5    S    
C4    O4    A    
C1    C11   S    
