data_mof_unit_41493.cif
_audit_creation_date              2013-03-05T16:00:50-0500
_audit_creation_method            fapswitch 2.2
_symmetry_space_group_name_H-M    P1
_symmetry_Int_Tables_number       1
_space_group_crystal_system       triclinic
_cell_length_a                    8.276343
_cell_length_b                    12.672904
_cell_length_c                    18.706423
_cell_angle_alpha                 99.6287
_cell_angle_beta                  90.323091
_cell_angle_gamma                 98.862971
_cell_volume                      1910.29741569

loop_
_atom_site_label
_atom_site_type_symbol
_atom_site_description
_atom_site_fract_x
_atom_site_fract_y
_atom_site_fract_z
_atom_type_partial_charge
P1    P     P_3+3 0.041040 0.394770 0.336330 0.470225
O1    O     O_2   0.873090 0.425890 0.325140 -0.387621
O2    O     O_3   0.122420 0.434370 0.414380 -0.348108
O3    O     O_3   0.659500 0.627100 0.368810 -0.392623
O4    O     O_2   0.765248 0.539185 0.245216 -0.365142
O5    O     O_3   0.986907 0.254356 0.330702 -0.599035
O6    O     O_3   0.724379 0.740178 0.252018 -0.491111
H1    H     H_    0.701039 0.827148 0.355103 0.111186
C1    C     C_3   0.753932 0.932759 0.276771 -0.830874
H2    H     H_    0.887874 0.935312 0.278280 0.305544
H3    H     H_    0.715034 0.939868 0.221066 0.254024
P2    P     P_3+3 0.672880 0.754030 0.556100 0.438897
P3    P     P_3+3 0.131773 0.822805 0.403552 0.492205
O7    O     O_2   0.848200 0.768190 0.534530 -0.388486
O8    O     O_3   0.081160 0.685950 0.404810 -0.410819
O9    O     O_2   0.997637 0.879637 0.443719 -0.345828
O10   O     O_3   0.678557 0.808597 0.649108 -0.597437
O11   O     O_3   0.114999 0.842977 0.313709 -0.494730
C2    C     C_3   0.100923 0.743382 0.266241 0.451104
H4    H     H_    0.987133 0.691000 0.275380 0.184690
H5    H     H_    0.201905 0.698558 0.274047 0.019925
C3    C     C_3   0.100555 0.763742 0.188391 -0.810402
H6    H     H_    0.076580 0.685603 0.150423 0.241722
H7    H     H_    0.003701 0.812137 0.179440 0.293274
C4    C     C_3   0.233835 0.788241 0.619679 0.344054
H8    H     H_    0.357321 0.770552 0.606170 0.106881
H9    H     H_    0.146859 0.754521 0.573141 0.145625
C5    C     C_3   0.237526 0.909965 0.635198 -0.900308
H10   H     H_    0.314224 0.945316 0.684538 0.261210
H11   H     H_    0.289226 0.947075 0.589200 0.231418
H12   H     H_    0.111625 0.928405 0.644134 0.270602
Ba1   Ba    Ba6+2 0.852780 0.548340 0.465070 1.562752
C6    C     C_3   0.102637 0.198438 0.292141 0.903321
H13   H     H_    0.223994 0.249928 0.292997 -0.036990
C7    C     C_3   0.041424 0.156857 0.213264 -1.166801
H14   H     H_    0.905532 0.142099 0.209371 0.268139
H15   H     H_    0.085351 0.080048 0.190421 0.288728
H16   H     H_    0.090287 0.215868 0.178406 0.229063
C8    C     C_3   0.672988 0.730283 0.693954 0.461599
H17   H     H_    0.604723 0.650330 0.668776 0.150505
C9    C     C_3   0.589973 0.769980 0.763689 -0.953724
H18   H     H_    0.661858 0.846202 0.793364 0.250351
H19   H     H_    0.578969 0.707501 0.799294 0.225257
H20   H     H_    0.467252 0.787436 0.750622 0.275147
P4    P     P_3+3 0.148670 0.605320 0.663680 0.441440
O12   O     O_2   0.316610 0.574140 0.674900 -0.372846
O13   O     O_3   0.067290 0.565720 0.585630 -0.402809
O14   O     O_3   0.530210 0.372990 0.631200 -0.372788
O15   O     O_3   0.187079 0.746980 0.682432 -0.594043
P5    P     P_3+3 0.062572 0.174213 0.593475 0.487528
O16   O     O_3   0.611340 0.366290 0.463630 -0.388721
O17   O     O_3   0.108550 0.314140 0.595200 -0.372622
O18   O     O_2   0.199035 0.122114 0.551932 -0.363021
O19   O     O_3   0.088912 0.148683 0.681688 -0.537714
Ba2   Ba    Ba6+2 0.337060 0.451750 0.534940 1.575701
P6    P     P_3+3 0.642109 0.614115 0.274909 0.469160
C10   C     C_3   0.668205 0.826608 0.297198 0.500513
H21   H     H_    0.723983 0.003133 0.315490 0.219507
O20   O     O_3   0.578370 0.633800 0.536380 -0.398349
C11   C     C_3   0.576793 0.262140 0.306071 0.417756
H22   H     H_    0.548116 0.345676 0.321917 0.103284
H23   H     H_    0.705486 0.258122 0.317257 0.155930
C12   C     C_3   0.544322 0.226047 0.224695 -1.027488
H24   H     H_    0.412073 0.214673 0.210542 0.267056
H25   H     H_    0.607068 0.288549 0.195059 0.228008
H26   H     H_    0.590052 0.148314 0.206488 0.266542
P7    P     P_3+3 0.519848 0.229971 0.436960 0.466792
O21   O     O_2   0.341510 0.231850 0.465510 -0.304713
O22   O     O_3   0.481700 0.190141 0.343402 -0.551986
H27   H     H_    0.221112 0.808457 0.176780 0.237336
C13   C     C_3   0.038790 0.232691 0.731294 0.480773
H28   H     H_    0.123746 0.309931 0.731955 0.125321
H29   H     H_    0.913579 0.244770 0.716925 -0.031616
C14   C     C_3   0.036133 0.202955 0.807253 -0.630181
H30   H     H_    0.964884 0.256214 0.843338 0.164187
H31   H     H_    0.974640 0.117810 0.804295 0.223133
P8    P     P_3+3 0.545437 0.384039 0.724823 0.437981
C15   C     C_3   0.544685 0.176509 0.698233 0.500969
H32   H     H_    0.653676 0.209272 0.669666 0.012763
O23   O     O_2   0.418742 0.454663 0.757547 -0.398256
O24   O     O_3   0.475646 0.255377 0.745180 -0.520923
H33   H     H_    0.451022 0.133700 0.656316 0.129027
H34   H     H_    0.690453 0.137384 0.783471 0.259835
C16   C     C_3   0.595483 0.095520 0.742020 -1.076636
H35   H     H_    0.645101 0.030325 0.705673 0.259215
H36   H     H_    0.489226 0.059356 0.770550 0.280262
C17   C     C_R   0.995273 0.436320 0.045509 0.095176
C18   C     C_R   0.905068 0.379809 0.094898 -0.110989
C19   C     C_R   0.769369 0.393392 0.950896 -0.174821
C20   C     C_R   0.931352 0.439658 0.974573 0.066757
C21   C     C_R   0.710299 0.396552 0.881463 -0.176561
C22   C     C_R   0.810263 0.444456 0.831587 -0.017397
C23   C     C_R   0.970396 0.495963 0.854465 -0.002728
C24   C     C_R   0.030076 0.494982 0.926285 0.027290
C25   C     C_R   0.755665 0.442364 0.759442 0.172313
C26   C     C_R   0.863862 0.484759 0.710165 -0.506858
C27   C     C_R   0.019716 0.541014 0.732307 0.249295
C28   C     C_R   0.070263 0.550491 0.806049 -0.036154
C29   C     C_R   0.155145 0.490827 0.068083 0.018989
C30   C     C_R   0.218022 0.492841 0.140334 -0.008277
C31   C     C_R   0.116209 0.442994 0.190560 -0.002771
C32   C     C_R   0.962711 0.385265 0.165560 -0.101142
H37   H     H_    0.822845 0.479233 0.654459 0.185187
H38   H     H_    0.585112 0.359884 0.867528 0.177654
H39   H     H_    0.885919 0.340413 0.199957 0.156477
C33   C     C_R   0.216218 0.615097 0.833439 -0.072247
C34   C     C_R   0.273859 0.615723 0.903190 -0.188431
C35   C     C_R   0.187861 0.550597 0.949399 0.079188
C36   C     C_R   0.252285 0.544017 0.018867 -0.013151
C37   C     C_R   0.414661 0.586648 0.039358 -0.290409
C38   C     C_R   0.380890 0.545587 0.162099 -0.195289
C39   C     C_R   0.478668 0.590142 0.108479 0.380973
C40   C     C_R   0.434897 0.551026 0.235806 0.204897
C41   C     C_R   0.328243 0.505366 0.284607 -0.463193
C42   C     C_R   0.170775 0.450952 0.263914 0.143246
H40   H     H_    0.287029 0.667200 0.801572 0.160834
H41   H     H_    0.369851 0.511029 0.340262 0.174913
H42   H     H_    0.683009 0.355257 0.985215 0.130516
H43   H     H_    0.787225 0.330990 0.080990 0.108581
H44   H     H_    0.385205 0.670936 0.919876 0.132308
H45   H     H_    0.499957 0.616098 0.001143 0.169290
C43   C     C_R   0.772822 0.179153 0.516618 -0.376138
C44   C     C_R   0.428448 0.806049 0.471077 -0.558487
C45   C     C_R   0.401026 0.983459 0.447216 -0.188238
C46   C     C_R   0.336311 0.875276 0.444564 0.211359
C47   C     C_R   0.580315 0.846222 0.506590 0.316256
C48   C     C_R   0.645158 0.958582 0.512232 -0.046621
C49   C     C_R   0.555568 0.026661 0.479637 -0.105516
C50   C     C_R   0.621079 0.137008 0.481806 0.211696
C51   C     C_R   0.860446 0.114401 0.550055 0.233958
C52   C     C_R   0.795668 0.005501 0.549257 -0.182894
H46   H     H_    0.327677 0.032950 0.424244 0.245724
H47   H     H_    0.865497 0.959198 0.577371 0.177486
H48   H     H_    0.824220 0.263181 0.517168 0.170537
H49   H     H_    0.377242 0.721392 0.467571 0.182404
N1    N     N_R   0.124869 0.106183 0.326332 0.238333
O25   O     O_R   0.224454 0.041526 0.298529 -0.402919
O26   O     O_R   0.047854 0.088362 0.384682 -0.379963
N2    N     N_3   0.838511 0.718437 0.711586 -0.225714
H50   H     H_    0.902694 0.793990 0.735464 0.151769
H51   H     H_    0.889089 0.699173 0.661309 0.146758
N3    N     N_3   0.491832 0.819342 0.286604 -0.196046
H52   H     H_    0.456718 0.894717 0.305005 0.153266
H53   H     H_    0.438277 0.768211 0.320974 0.041942
N4    N     N_3   0.201881 0.214293 0.837599 -0.130856
H54   H     H_    0.194071 0.183969 0.886336 0.134779
H55   H     H_    0.247240 0.297087 0.851349 0.165527
N5    N     N_R   0.645578 0.639504 0.119803 0.261028
O27   O     O_R   0.757211 0.577549 0.109421 -0.405141
O28   O     O_R   0.684235 0.739780 0.110569 -0.400471

loop_
_geom_bond_atom_site_label_1
_geom_bond_atom_site_label_2
_geom_bond_distance
_ccdc_geom_bond_type
O14   Ba2   2.802602 S    
C17   C18   1.410036 A    
C12   H25   1.108061 S    
C23   C24   1.431472 A    
Ba2   O20   2.805510 S    
C25   C26   1.402481 A    
C9    H18   1.111291 S    
C14   N4    1.458724 S    
C2    H4    1.097257 S    
C15   O24   1.408804 S    
C21   H38   1.079555 S    
C49   C50   1.413618 A    
C41   C42   1.397118 A    
O8    Ba1   2.747823 S    
C8    C9    1.524442 S    
P4    O12   1.525052 D    
C4    C5    1.516708 S    
C24   C35   1.413188 A    
C47   C48   1.428410 A    
C14   H31   1.112143 S    
C10   N3    1.458686 S    
C11   C12   1.524231 S    
O1    Ba1   2.831008 S    
C5    H10   1.105879 S    
C7    H15   1.110821 S    
N5    O28   1.302270 A    
O11   C2    1.404886 S    
C37   H45   1.078156 S    
N4    H54   1.045588 S    
C44   C46   1.394485 A    
P2    C47   1.854576 S    
C33   C34   1.385093 A    
C29   C36   1.413258 A    
C27   C28   1.419473 A    
C35   C36   1.421995 A    
C45   H46   1.072895 S    
C32   H39   1.075486 S    
C11   H23   1.094812 S    
P1    O1    1.524711 D    
O10   C8    1.398472 S    
C43   H48   1.082466 S    
P5    C51   1.849527 S    
C6    C7    1.536445 S    
C17   C20   1.435340 A    
P2    O20   1.584594 S    
O2    Ba2   2.821074 S    
O19   C13   1.405893 S    
C38   C39   1.427440 A    
C4    O15   1.396159 S    
O12   Ba2   2.831342 S    
P5    O17   1.750188 S    
C34   C35   1.414047 A    
P8    O24   1.748492 S    
C19   C21   1.394243 A    
C1    H2    1.104090 S    
Ba1   Ba2   4.610770 S    
O16   Ba2   2.900668 S    
O17   Ba2   2.748462 S    
C45   C49   1.402826 A    
P3    C46   1.834186 S    
C12   H26   1.110757 S    
P2    Ba1   3.413361 S    
C9    H19   1.110739 S    
P7    C50   1.849473 S    
O6    P6    1.759602 S    
N4    H55   1.046551 S    
C20   C24   1.420843 A    
C17   C29   1.421511 A    
P4    O13   1.573796 S    
C8    N2    1.443216 S    
P5    O18   1.543846 D    
C14   H30   1.110701 S    
P7    O21   1.574735 D    
C31   C32   1.400117 A    
C2    C3    1.520938 S    
C16   H35   1.110553 S    
N1    O26   1.301799 A    
C8    H17   1.108444 S    
C13   H29   1.108629 S    
Ba2   O21   2.876748 S    
C15   H32   1.111710 S    
C44   C47   1.400209 A    
C4    H8    1.101440 S    
P8    C25   1.850382 S    
C22   C25   1.415525 A    
C39   N5    1.424970 S    
C33   H40   1.072936 S    
C11   H22   1.112724 S    
P1    O2    1.573797 S    
C7    H14   1.111264 S    
O14   P8    1.735732 S    
P2    O10   1.758993 S    
Ba1   O16   2.806142 S    
H1    C10   1.113934 S    
C15   H33   1.109655 S    
C29   C30   1.440342 A    
P4    O15   1.749064 S    
P6    C40   1.866292 S    
C26   C27   1.398387 A    
C7    H16   1.104945 S    
C6    H13   1.108700 S    
C38   C40   1.434374 A    
O16   P7    1.763817 S    
N5    O27   1.297049 A    
C18   H43   1.076583 S    
C1    H3    1.110938 S    
O3    Ba1   2.803269 S    
P3    O11   1.749631 S    
P2    O7    1.500341 D    
O4    P6    1.541768 D    
P3    O8    1.724494 S    
C31   C42   1.424669 A    
Ba1   O13   2.820414 S    
C3    H7    1.109534 S    
H34   C16   1.107938 S    
C48   C49   1.426149 A    
C34   H44   1.077617 S    
C21   C22   1.402469 A    
N3    H53   1.041039 S    
C3    H27   1.110506 S    
O13   Ba2   2.920555 S    
C40   C41   1.405625 A    
P8    O23   1.545455 D    
C1    H21   1.111523 S    
C43   C50   1.397962 A    
C2    H5    1.102341 S    
C3    H6    1.107701 S    
C5    H12   1.110066 S    
O7    Ba1   2.876520 S    
N1    O25   1.300607 A    
C52   H47   1.076672 S    
C13   C14   1.529202 S    
C18   C32   1.389883 A    
N2    H50   1.046892 S    
C4    H9    1.110109 S    
C28   C33   1.392833 A    
O5    C6    1.409202 S    
C48   C52   1.417466 A    
C5    H11   1.105516 S    
C51   C52   1.399044 A    
P3    O9    1.546129 D    
C13   H28   1.111966 S    
P5    O19   1.752563 S    
P4    C27   1.883792 S    
C36   C37   1.395003 A    
N2    H51   1.038511 S    
C6    N1    1.457707 S    
C11   O22   1.392006 S    
C22   C23   1.413957 A    
C9    H20   1.106722 S    
C43   C51   1.393007 A    
C1    C10   1.529693 S    
P1    Ba1   3.379919 S    
O2    Ba1   2.919649 S    
C37   C39   1.385768 A    
C41   H41   1.082117 S    
C12   H24   1.106452 S    
C15   C16   1.520327 S    
C19   H42   1.076617 S    
P4    Ba2   3.380515 S    
C30   C38   1.433414 A    
C26   H37   1.081810 S    
C44   H49   1.082105 S    
P1    O5    1.751974 S    
N3    H52   1.045018 S    
C16   H36   1.109593 S    
C30   C31   1.426648 A    
P1    C42   1.896942 S    
Ba1   O20   2.901574 S    
P7    O22   1.751161 S    
C19   C20   1.414723 A    
C23   C28   1.422231 A    
O6    C10   1.407771 S    
O3    P6    1.739666 S    
C45   C46   1.385511 A    
