data_mof_unit_32352.cif
_audit_creation_date              2013-03-05T16:46:30-0500
_audit_creation_method            fapswitch 2.2
_symmetry_space_group_name_H-M    P1
_symmetry_Int_Tables_number       1
_space_group_crystal_system       triclinic
_cell_length_a                    10.560437
_cell_length_b                    8.937483
_cell_length_c                    8.110313
_cell_angle_alpha                 90.00015
_cell_angle_beta                  102.402318
_cell_angle_gamma                 90.000341
_cell_volume                      747.617969719

loop_
_atom_site_label
_atom_site_type_symbol
_atom_site_description
_atom_site_fract_x
_atom_site_fract_y
_atom_site_fract_z
_atom_type_partial_charge
O1    O     O_R   0.499990 0.285340 0.636850 -0.614121
O2    O     O_R   0.500010 0.714660 0.363150 -0.593183
O3    O     O_R   0.500010 0.285340 0.363150 -0.614121
O4    O     O_R   0.499990 0.714660 0.636850 -0.593179
C1    C     C_R   0.500000 0.217982 0.500000 0.922260
C2    C     C_R   0.499997 0.782029 0.499999 1.034479
O5    O     O_R   0.317810 0.500000 0.585760 -0.593721
O6    O     O_R   0.682190 0.500000 0.414240 -0.593728
O7    O     O_R   0.317820 0.500000 0.312020 -0.611266
O8    O     O_R   0.682180 0.500000 0.687980 -0.611269
C3    C     C_R   0.256881 0.505933 0.432481 0.920131
C4    C     C_R   0.743119 0.505929 0.567519 0.920159
Zn1   Zn    Zn3+2 0.499990 0.500000 0.682780 1.063678
Zn2   Zn    Zn3+2 0.500010 0.500000 0.317220 1.063673
C5    C     C_2   0.117494 0.531506 0.400241 -0.197594
C6    C     C_2   0.882508 0.531492 0.599762 -0.197591
C7    C     C_2   0.069192 0.625589 0.502179 0.303704
C8    C     C_2   0.930816 0.625594 0.497849 0.303681
C9    C     C_1   0.499998 0.065209 0.499999 -0.133801
C10   C     C_1   0.499997 0.934871 0.499999 -0.056404
N1    N     N_1   0.500020 0.500000 0.073650 -0.001716
N2    N     N_1   0.499980 0.500000 0.926350 -0.001713
N3    N     N_R   0.850899 0.729738 0.386159 0.215348
O9    O     O_R   0.770281 0.814771 0.443528 -0.414480
O10   O     O_R   0.879350 0.763309 0.242242 -0.349680
N4    N     N_R   0.149120 0.729703 0.613902 0.215352
O11   O     O_R   0.229714 0.814782 0.556543 -0.414459
O12   O     O_R   0.120708 0.763189 0.757869 -0.349693
N5    N     N_3   0.967225 0.446782 0.728403 -0.440497
H1    H     H_    0.942200 0.470228 0.843566 0.229035
H2    H     H_    0.949155 0.333242 0.702543 0.201085
N6    N     N_3   0.032770 0.446830 0.271572 -0.440506
H3    H     H_    0.057797 0.470304 0.156417 0.229052
H4    H     H_    0.050832 0.333283 0.297396 0.201085

loop_
_geom_bond_atom_site_label_1
_geom_bond_atom_site_label_2
_geom_bond_distance
_ccdc_geom_bond_type
O7    Zn2   1.915391 S    
N5    H1    1.045057 S    
C1    C9    1.365411 S    
C2    C10   1.366021 S    
N4    O12   1.301309 A    
C9    C10   1.164892 T    
O6    C4    1.272252 A    
N3    O9    1.299625 A    
N6    H3    1.045057 S    
C7    C8    1.454171 S    
C5    N6    1.435677 S    
N5    H2    1.045447 S    
N1    N2    1.194559 T    
O5    C3    1.272251 A    
O7    C3    1.281214 A    
N4    O11   1.299637 A    
O2    C2    1.262718 A    
O3    Zn2   1.954351 S    
O8    C4    1.281212 A    
O1    C1    1.262669 A    
C7    N4    1.439029 S    
Zn2   N1    1.975452 S    
C6    C8    1.353481 D    
Zn1   N2    1.975451 S    
N3    O10   1.301278 A    
O2    Zn2   1.954348 S    
O1    Zn1   1.954349 S    
C8    N3    1.439034 S    
O5    Zn1   1.915795 S    
O4    C2    1.262718 A    
O4    Zn1   1.954350 S    
C5    C7    1.353481 D    
O6    Zn2   1.915797 S    
C6    N5    1.435678 S    
C3    C5    1.456727 S    
C4    C6    1.456722 S    
O3    C1    1.262670 A    
O8    Zn1   1.915391 S    
N6    H4    1.045446 S    
