data_mof_unit_23527.cif
_audit_creation_date              2012-12-11T17:15:54-0500
_audit_creation_method            fapswitch 2.2
_symmetry_space_group_name_H-M    P1
_symmetry_Int_Tables_number       1
_space_group_crystal_system       triclinic
_cell_length_a                    14.613503
_cell_length_b                    7.231218
_cell_length_c                    13.462346
_cell_angle_alpha                 89.999844
_cell_angle_beta                  99.397495
_cell_angle_gamma                 89.999855
_cell_volume                      1403.51977302

loop_
_atom_site_label
_atom_site_type_symbol
_atom_type_description
_atom_site_fract_x
_atom_site_fract_y
_atom_site_fract_z
_atom_type_partial_charge
O1    O     O_R   0.398210 0.494340 0.401550 -0.531061
O2    O     O_R   0.601790 0.994340 0.598450 -0.531057
O3    O     O_R   0.586310 0.821730 0.403360 -0.543501
O4    O     O_R   0.413690 0.321730 0.596640 -0.543502
C1    C     C_R   0.615261 0.655339 0.381681 0.666713
C2    C     C_R   0.384735 0.155339 0.618315 0.666712
O5    O     O_R   0.397970 0.823900 0.389580 -0.533627
O6    O     O_R   0.602030 0.323900 0.610420 -0.533629
O7    O     O_R   0.412100 0.996500 0.584560 -0.540929
O8    O     O_R   0.587900 0.496500 0.415440 -0.540929
C3    C     C_R   0.365034 0.655233 0.363037 0.719339
C4    C     C_R   0.634966 0.155233 0.636963 0.719344
O9    O     O_3   0.504860 0.661550 0.563990 -0.374436
O10   O     O_3   0.495140 0.161550 0.436010 -0.374436
V1    V     V_3+5 0.499100 0.935510 0.488130 1.403883
V2    V     V_3+5 0.500900 0.435510 0.511870 1.403872
C5    C     C_1   0.716032 0.144654 0.716850 -0.177387
C6    C     C_1   0.283968 0.644654 0.283149 -0.177384
C7    C     C_1   0.783927 0.134138 0.783209 -0.168435
C8    C     C_1   0.216072 0.634137 0.216791 -0.168440
C9    C     C_3   0.278333 0.228550 0.864280 0.231019
C10   C     C_3   0.721698 0.728743 0.135751 0.231025
C11   C     C_3   0.352500 0.233128 0.792805 -0.372926
C12   C     C_3   0.647526 0.733306 0.207220 -0.372913
H1    H     H_    0.373221 0.379108 0.782521 0.129702
H2    H     H_    0.626851 0.879298 0.217564 0.129727
H3    H     H_    0.132570 0.388638 0.735867 0.142666
H4    H     H_    0.867528 0.888462 0.264246 0.142637
H5    H     H_    0.240903 0.400691 0.630970 0.141937
H6    H     H_    0.759181 0.900536 0.369129 0.141911
C13   C     C_3   0.150282 0.245436 0.715391 -0.407206
C14   C     C_3   0.849752 0.745257 0.284654 -0.407222
C15   C     C_3   0.210857 0.935376 0.776607 -0.332822
C16   C     C_3   0.789057 0.435355 0.223292 -0.332815
C17   C     C_3   0.187175 0.132666 0.811889 0.065713
C18   C     C_3   0.812819 0.632666 0.188104 0.065715
H7    H     H_    0.147131 0.869674 0.734689 0.142901
H8    H     H_    0.852756 0.369503 0.265179 0.142922
H9    H     H_    0.235371 0.844305 0.842090 0.140674
H10   H     H_    0.764504 0.344414 0.157764 0.140664
C19   C     C_3   0.313329 0.146459 0.688986 0.082612
C20   C     C_3   0.686664 0.646458 0.311006 0.082604
C21   C     C_3   0.223823 0.253590 0.643950 -0.328389
C22   C     C_3   0.776209 0.753425 0.356092 -0.328383
C23   C     C_3   0.285319 0.943331 0.707540 -0.326113
C24   C     C_3   0.714601 0.443315 0.292366 -0.326100
H11   H     H_    0.347328 0.863473 0.742792 0.144240
H12   H     H_    0.652560 0.363575 0.257082 0.144227
H13   H     H_    0.194017 0.193577 0.569576 0.134101
H14   H     H_    0.805989 0.693287 0.430445 0.134100
O11   O     O_R   0.912140 0.786650 0.084610 -0.541796
O12   O     O_R   0.087860 0.286650 0.915390 -0.541816
O13   O     O_R   0.102040 0.454810 0.110430 -0.531977
O14   O     O_R   0.897960 0.954810 0.889570 -0.531967
C25   C     C_R   0.134990 0.623565 0.136926 0.718467
C26   C     C_R   0.865010 0.123565 0.863074 0.718479
O15   O     O_R   0.913690 0.457060 0.096650 -0.545477
O16   O     O_R   0.086310 0.957060 0.903350 -0.545462
O17   O     O_R   0.898200 0.284560 0.901540 -0.530343
O18   O     O_R   0.101800 0.784560 0.098460 -0.530330
C27   C     C_R   0.884982 0.625205 0.118112 0.695287
C28   C     C_R   0.115014 0.125206 0.881884 0.695282
O19   O     O_3   0.995160 0.617270 0.936040 -0.378041
O20   O     O_3   0.004840 0.117270 0.063960 -0.378038
V3    V     V_3+5 0.000900 0.343280 0.011870 1.424583
V4    V     V_3+5 0.999100 0.843280 0.988130 1.424632
H15   H     H_    0.261397 0.374384 0.880624 0.113375
H16   H     H_    0.738691 0.874584 0.119484 0.113392
H17   H     H_    0.257784 0.875264 0.634596 0.142205
H18   H     H_    0.742115 0.375121 0.365281 0.142227
H19   H     H_    0.085416 0.181400 0.675183 0.140947
H20   H     H_    0.914589 0.681070 0.324840 0.140954
O21   O     O_3   0.313361 0.145852 0.957458 -0.650457
H21   H     H_    0.338997 0.023019 0.944228 0.292485
O22   O     O_3   0.686645 0.646233 0.042528 -0.650458
H22   H     H_    0.660956 0.523414 0.055692 0.292479
H23   H     H_    0.416485 0.158112 0.826787 0.142030
H24   H     H_    0.583517 0.658402 0.173200 0.142018

loop_
_geom_bond_atom_site_label_1
_geom_bond_atom_site_label_2
_ccdc_geom_bond_type
C7    C26   S    
O16   C28   A    
C1    C20   S    
C3    C6    S    
C12   C20   S    
O21   H21   S    
O1    C3    A    
O2    C4    A    
C2    O7    A    
C14   H20   S    
O5    C3    A    
C15   H9    S    
C13   C21   S    
C16   H10   S    
C14   C18   S    
C12   H2    S    
C9    O21   S    
C15   C23   S    
C20   C24   S    
C5    C7    T    
O16   V4    S    
C2    C19   S    
O11   C27   A    
C4    C5    S    
C16   C24   S    
O13   V3    S    
C16   C18   S    
C23   H11   S    
O19   V4    S    
O18   V4    S    
O6    V2    S    
C25   O18   A    
H5    C21   S    
C19   C21   S    
H6    C22   S    
C20   C22   S    
C10   O22   S    
C8    C25   S    
C24   H12   S    
O13   C25   A    
O14   C26   A    
H3    C13   S    
H4    C14   S    
O4    C2    A    
C21   H13   S    
C23   H17   S    
C15   H7    S    
O11   V4    S    
O4    V2    S    
O22   H22   S    
O6    C4    A    
C14   C22   S    
O1    V2    S    
C11   H23   S    
O2    V1    S    
C10   H16   S    
O14   V4    S    
C12   H24   S    
C9    C11   S    
C10   C12   S    
C18   C27   S    
O3    V1    S    
C22   H14   S    
C16   H8    S    
O15   V3    S    
O3    C1    A    
O15   C27   A    
C9    C17   S    
C10   C18   S    
C11   C19   S    
C26   O17   A    
O20   V3    S    
O7    V1    S    
C1    O8    A    
O8    V2    S    
O17   V3    S    
C13   C17   S    
O5    V1    S    
C15   C17   S    
C17   C28   S    
C6    C8    T    
C11   H1    S    
C24   H18   S    
O9    V2    S    
C19   C23   S    
O10   V1    S    
O12   C28   A    
C9    H15   S    
O12   V3    S    
C13   H19   S    
