data_mof_unit_66722.cif
_audit_creation_date              2013-03-05T15:39:24-0500
_audit_creation_method            fapswitch 2.2
_symmetry_space_group_name_H-M    P1
_symmetry_Int_Tables_number       1
_space_group_crystal_system       triclinic
_cell_length_a                    20.968267
_cell_length_b                    23.596654
_cell_length_c                    9.179096
_cell_angle_alpha                 90.504584
_cell_angle_beta                  104.62852
_cell_angle_gamma                 89.031075
_cell_volume                      4393.74135209

loop_
_atom_site_label
_atom_site_type_symbol
_atom_site_description
_atom_site_fract_x
_atom_site_fract_y
_atom_site_fract_z
_atom_type_partial_charge
P1    P     P_3+3 0.859590 0.433890 0.993820 0.730270
P2    P     P_3+3 0.859590 0.566110 0.493820 0.682544
P3    P     P_3+3 0.359590 0.933890 0.993820 0.732202
P4    P     P_3+3 0.359590 0.066110 0.493820 0.671715
O1    O     O_2   0.866180 0.413660 0.823810 -0.240157
O2    O     O_2   0.866180 0.586340 0.323810 -0.264717
O3    O     O_2   0.366180 0.913660 0.823810 -0.231203
O4    O     O_2   0.366180 0.086340 0.323810 -0.281735
O5    O     O_3   0.922050 0.469730 0.097400 -0.277851
O6    O     O_3   0.922050 0.530270 0.597400 -0.288780
O7    O     O_3   0.422050 0.969730 0.097400 -0.281175
O8    O     O_3   0.422050 0.030270 0.597400 -0.292308
O9    O     O_3   0.976760 0.360270 0.628090 -0.273168
O10   O     O_3   0.976760 0.639730 0.128090 -0.256211
O11   O     O_3   0.476760 0.860270 0.628090 -0.270888
O12   O     O_3   0.476760 0.139730 0.128090 -0.253607
O13   O     O_2   0.869770 0.307285 0.644771 -0.207898
O14   O     O_2   0.871122 0.697962 0.139841 -0.188271
O15   O     O_2   0.369136 0.807463 0.641969 -0.206941
O16   O     O_2   0.373124 0.202043 0.132680 -0.182572
O17   O     O_3   0.782980 0.471198 0.955258 -0.532946
O18   O     O_3   0.778336 0.541288 0.446360 -0.627645
O19   O     O_3   0.282938 0.972244 0.953970 -0.528435
O20   O     O_3   0.277400 0.041565 0.438034 -0.623196
O21   O     O_3   0.955461 0.241627 0.562826 -0.459050
O22   O     O_3   0.957256 0.759223 0.065036 -0.465709
O23   O     O_3   0.454533 0.742129 0.558695 -0.463324
O24   O     O_3   0.464528 0.257397 0.063568 -0.463042
C1    C     C_3   0.055466 0.177375 0.628837 0.428260
C2    C     C_3   0.055591 0.820134 0.145138 0.421204
C3    C     C_3   0.552533 0.676562 0.623820 0.434837
C4    C     C_3   0.568048 0.310698 0.128744 0.433268
P5    P     P_3+3 0.140130 0.433190 0.695710 0.710567
P6    P     P_3+3 0.140130 0.566810 0.195710 0.735563
P7    P     P_3+3 0.640130 0.933190 0.695710 0.722547
P8    P     P_3+3 0.640130 0.066810 0.195710 0.734693
P9    P     P_3+3 0.090178 0.313306 0.136575 0.723275
P10   P     P_3+3 0.090470 0.686222 0.637064 0.721662
P11   P     P_3+3 0.589232 0.812170 0.136192 0.721263
P12   P     P_3+3 0.589692 0.187210 0.636448 0.726695
O25   O     O_2   0.133470 0.412980 0.865660 -0.298905
O26   O     O_2   0.133470 0.587020 0.365660 -0.271994
O27   O     O_2   0.633470 0.912980 0.865660 -0.288878
O28   O     O_2   0.633470 0.087020 0.365660 -0.275148
O29   O     O_3   0.022720 0.360150 0.061220 -0.285771
O30   O     O_3   0.022720 0.639850 0.561220 -0.286561
O31   O     O_3   0.522720 0.860150 0.061220 -0.290482
O32   O     O_3   0.522720 0.139850 0.561220 -0.295257
O33   O     O_2   0.139218 0.322123 0.039359 -0.219749
O34   O     O_2   0.140514 0.677512 0.541301 -0.218369
O35   O     O_2   0.639621 0.820399 0.041787 -0.218867
O36   O     O_2   0.640656 0.174876 0.544877 -0.221863
O37   O     O_3   0.218316 0.464851 0.729483 -0.505445
O38   O     O_3   0.216610 0.530165 0.233724 -0.483894
O39   O     O_3   0.717551 0.966532 0.727177 -0.495154
O40   O     O_3   0.716717 0.030320 0.229406 -0.498262
O41   O     O_3   0.062606 0.242476 0.094485 -0.455229
O42   O     O_3   0.060948 0.757392 0.598810 -0.456672
O43   O     O_3   0.560652 0.741908 0.091646 -0.457419
O44   O     O_3   0.563581 0.258856 0.587108 -0.441524
C5    C     C_3   0.995284 0.234862 0.094826 0.684410
C6    C     C_3   0.993644 0.764318 0.601624 0.679135
C7    C     C_3   0.493083 0.735600 0.089298 0.686909
C8    C     C_3   0.497397 0.271899 0.593086 0.714825
C9    C     C_3   0.978888 0.169448 0.111518 0.723535
C10   C     C_3   0.972658 0.828756 0.623083 0.722380
C11   C     C_3   0.474001 0.670614 0.099131 0.732717
C12   C     C_3   0.483125 0.338956 0.603520 0.722800
C13   C     C_3   0.211962 0.472477 0.256107 0.500556
C14   C     C_3   0.215165 0.522645 0.752825 0.513855
C15   C     C_3   0.711218 0.972391 0.244997 0.515892
C16   C     C_3   0.713557 0.024751 0.745826 0.523847
H1    H     H_    0.173815 0.453830 0.162045 0.101114
H2    H     H_    0.175187 0.543405 0.665803 0.103373
H3    H     H_    0.672788 0.954202 0.150718 0.099565
H4    H     H_    0.674761 0.044349 0.653845 0.100169
C17   C     C_3   0.280444 0.441283 0.274059 0.550803
C18   C     C_3   0.281820 0.550686 0.758898 0.584112
C19   C     C_3   0.778401 0.942108 0.257974 0.587733
C20   C     C_3   0.780990 0.052827 0.757756 0.584213
Ba1   Ba    Ba6+2 0.999900 0.456810 0.844860 1.970023
Ba2   Ba    Ba6+2 0.999900 0.543190 0.344860 1.965817
Ba3   Ba    Ba6+2 0.499900 0.956810 0.844860 1.972645
Ba4   Ba    Ba6+2 0.499900 0.043190 0.344860 1.964884
C21   C     C_3   0.778529 0.528522 0.910976 0.648548
C22   C     C_3   0.764687 0.484230 0.417588 0.630260
C23   C     C_3   0.279514 0.030496 0.915583 0.657391
C24   C     C_3   0.265688 0.983742 0.417583 0.634587
C25   C     C_3   0.740205 0.561746 0.011246 0.409760
C26   C     C_3   0.687940 0.481222 0.393157 0.393379
C27   C     C_3   0.245755 0.063878 0.024603 0.379726
C28   C     C_3   0.189930 0.975506 0.397804 0.390436
H5    H     H_    0.749360 0.541659 0.121016 0.100601
H6    H     H_    0.672447 0.510908 0.470860 0.176720
H7    H     H_    0.259030 0.044344 0.135381 0.103627
H8    H     H_    0.173597 0.005550 0.473728 0.170563
O45   O     O_3   0.077880 0.530130 0.092320 -0.288102
O46   O     O_3   0.077880 0.469870 0.592320 -0.292713
O47   O     O_3   0.577880 0.030130 0.092320 -0.287818
O48   O     O_3   0.577880 0.969870 0.592320 -0.298137
P13   P     P_3+3 0.919148 0.692328 0.037428 0.725122
P14   P     P_3+3 0.917116 0.309954 0.540104 0.723028
P15   P     P_3+3 0.421786 0.193182 0.032744 0.724088
P16   P     P_3+3 0.416798 0.810529 0.538063 0.724045
C29   C     C_3   0.026144 0.240549 0.602753 0.566697
C30   C     C_3   0.027531 0.758154 0.108741 0.578341
C31   C     C_3   0.525180 0.740223 0.597332 0.567922
C32   C     C_3   0.534393 0.250820 0.102780 0.570781
H9    H     H_    0.044445 0.260924 0.514407 0.052143
H10   H     H_    0.047259 0.739441 0.018983 0.046465
H11   H     H_    0.543430 0.759641 0.507779 0.051409
H12   H     H_    0.549872 0.227029 0.014518 0.033161
C33   C     C_R   0.121517 0.642813 0.935658 -0.004102
C34   C     C_R   0.117791 0.357346 0.435233 -0.001435
C35   C     C_R   0.620952 0.143525 0.935103 -0.025881
C36   C     C_R   0.616421 0.856088 0.435649 0.000275
C37   C     C_R   0.138335 0.683762 0.842142 0.021185
C38   C     C_R   0.137941 0.317401 0.341415 0.008837
C39   C     C_R   0.639266 0.183616 0.841071 0.038264
C40   C     C_R   0.635078 0.814881 0.342395 0.018013
C41   C     C_R   0.191097 0.722429 0.899104 0.269710
C42   C     C_R   0.193671 0.280830 0.399740 0.232431
C43   C     C_R   0.694676 0.220205 0.898005 0.305501
C44   C     C_R   0.689076 0.776580 0.400672 0.252476
C45   C     C_R   0.226830 0.723628 0.055847 -0.066234
C46   C     C_R   0.225362 0.277223 0.557839 -0.080637
C47   C     C_R   0.728119 0.222666 0.056310 -0.125363
C48   C     C_R   0.724587 0.776185 0.556918 -0.084225
C49   C     C_R   0.209781 0.676379 0.145413 0.200157
C50   C     C_R   0.203421 0.321100 0.650383 0.217903
C51   C     C_R   0.710247 0.175864 0.145523 0.179350
C52   C     C_R   0.706764 0.823594 0.645186 0.196864
C53   C     C_R   0.155881 0.636746 0.088497 0.081716
C54   C     C_R   0.151819 0.362773 0.589148 0.089720
C55   C     C_R   0.655777 0.136803 0.088093 0.098979
C56   C     C_R   0.652249 0.862879 0.587882 0.090800
C57   C     C_R   0.818148 0.273825 0.276860 -0.081875
C58   C     C_R   0.820758 0.729335 0.772921 -0.033380
C59   C     C_R   0.317844 0.774485 0.275398 -0.057015
C60   C     C_R   0.326385 0.233294 0.765395 -0.016762
C61   C     C_R   0.862586 0.317413 0.341549 0.231589
C62   C     C_R   0.866349 0.685945 0.836564 0.246157
C63   C     C_R   0.362376 0.817932 0.339931 0.229405
C64   C     C_R   0.370568 0.188867 0.830307 0.245215
C65   C     C_R   0.842436 0.365376 0.097921 0.271616
C66   C     C_R   0.843327 0.635748 0.595028 0.286991
C67   C     C_R   0.342374 0.865507 0.096745 0.278166
C68   C     C_R   0.343633 0.136657 0.591923 0.291113
C69   C     C_R   0.792862 0.323001 0.038105 -0.016201
C70   C     C_R   0.789857 0.675834 0.540423 -0.031605
C71   C     C_R   0.292622 0.823425 0.036702 -0.051602
C72   C     C_R   0.289501 0.176822 0.538646 -0.013126
C73   C     C_R   0.780468 0.272939 0.122547 0.148569
C74   C     C_R   0.779546 0.727608 0.622014 0.168151
C75   C     C_R   0.279982 0.773521 0.121061 0.176871
C76   C     C_R   0.281187 0.229254 0.619745 0.147748
C77   C     C_R   0.872893 0.361826 0.251211 -0.255533
C78   C     C_R   0.878553 0.642589 0.742818 -0.309295
C79   C     C_R   0.373217 0.861812 0.249402 -0.252838
C80   C     C_R   0.381221 0.144682 0.737486 -0.320549
H13   H     H_    0.815558 0.241034 0.353534 0.210432
H14   H     H_    0.819797 0.763043 0.849148 0.208174
H15   H     H_    0.315231 0.742124 0.352852 0.208401
H16   H     H_    0.330605 0.270996 0.831945 0.210875
H17   H     H_    0.763045 0.332546 0.927985 0.200291
H18   H     H_    0.755543 0.663607 0.438247 0.203828
H19   H     H_    0.263697 0.833148 0.926333 0.198827
H20   H     H_    0.253788 0.165775 0.436574 0.199810
H21   H     H_    0.904848 0.394940 0.301616 0.211574
H22   H     H_    0.917588 0.614001 0.783521 0.230684
H23   H     H_    0.405828 0.894457 0.299162 0.211588
H24   H     H_    0.419041 0.114923 0.778374 0.223364
Cl1   Cl    Cl    0.061514 0.283269 0.763673 -0.493460
Cl2   Cl    Cl    0.061944 0.712189 0.264055 -0.491411
Cl3   Cl    Cl    0.562965 0.783359 0.756918 -0.497162
Cl4   Cl    Cl    0.567103 0.206067 0.262180 -0.491539
N1    N     N_R   0.310020 0.424081 0.430586 0.268886
O49   O     O_R   0.362541 0.448495 0.510130 -0.201311
O50   O     O_R   0.288113 0.380306 0.486650 -0.351367
N2    N     N_R   0.334170 0.525582 0.879492 0.278732
O51   O     O_R   0.357672 0.475340 0.861274 -0.170354
O52   O     O_R   0.357260 0.552636 0.005172 -0.197310
N3    N     N_R   0.827941 0.962181 0.391108 0.279574
O53   O     O_R   0.866140 0.003930 0.379237 -0.159100
O54   O     O_R   0.833313 0.939509 0.522578 -0.232169
N4    N     N_R   0.831338 0.030897 0.887651 0.281641
O55   O     O_R   0.866494 0.986280 0.872093 -0.154648
O56   O     O_R   0.841585 0.055620 0.018759 -0.214309
Cl5   Cl    Cl    0.265847 0.378504 0.161225 -0.409729
Cl6   Cl    Cl    0.269035 0.623389 0.790025 -0.483800
Cl7   Cl    Cl    0.765095 0.868981 0.270025 -0.471836
Cl8   Cl    Cl    0.768235 0.125951 0.775432 -0.480784
N5    N     N_R   0.328139 0.475968 0.222792 0.275279
O57   O     O_R   0.369720 0.451044 0.158393 -0.149391
O58   O     O_R   0.344008 0.525283 0.284658 -0.163767
N6    N     N_R   0.301612 0.548084 0.617933 0.253976
O59   O     O_R   0.261934 0.570052 0.500189 -0.276676
O60   O     O_R   0.364238 0.548269 0.623617 -0.148183
N7    N     N_R   0.802841 0.948195 0.124264 0.259747
O61   O     O_R   0.866148 0.948163 0.138735 -0.143584
O62   O     O_R   0.765944 0.930491 0.997822 -0.279330
N8    N     N_R   0.804715 0.047353 0.622699 0.261141
O63   O     O_R   0.766641 0.065633 0.497822 -0.280338
O64   O     O_R   0.868001 0.049041 0.636985 -0.143730
N9    N     N_R   0.738503 0.531094 0.756420 0.208474
O65   O     O_R   0.733101 0.578722 0.683942 -0.403994
O66   O     O_R   0.690266 0.495508 0.719143 -0.256206
N10   N     N_R   0.783867 0.465859 0.283769 0.166635
O67   O     O_R   0.746291 0.433665 0.183678 -0.362688
O68   O     O_R   0.841331 0.479405 0.268795 -0.430549
N11   N     N_R   0.236469 0.036326 0.763676 0.221146
O69   O     O_R   0.236331 0.082821 0.688978 -0.399536
O70   O     O_R   0.184580 0.004602 0.726871 -0.239200
N12   N     N_R   0.285378 0.963148 0.286378 0.167049
O71   O     O_R   0.247634 0.930570 0.186934 -0.385510
O72   O     O_R   0.342336 0.977682 0.270137 -0.437061
N13   N     N_R   0.843313 0.551221 0.919901 0.138553
O73   O     O_R   0.875190 0.530572 0.827209 -0.406152
O74   O     O_R   0.877039 0.572350 0.046003 -0.372441
N14   N     N_R   0.800334 0.449758 0.544559 0.207844
O75   O     O_R   0.768830 0.425230 0.631127 -0.314929
O76   O     O_R   0.859836 0.432289 0.548174 -0.352772
N15   N     N_R   0.344507 0.051848 0.919819 0.142213
O77   O     O_R   0.374188 0.031175 0.823183 -0.401300
O78   O     O_R   0.380233 0.072540 0.044345 -0.372927
N16   N     N_R   0.302563 0.953733 0.549694 0.211710
O79   O     O_R   0.271998 0.939474 0.649954 -0.341600
O80   O     O_R   0.358788 0.929735 0.549438 -0.350416
Cl9   Cl    Cl    0.653017 0.560264 0.937467 -0.243597
Cl10  Cl    Cl    0.638297 0.506118 0.220995 -0.321029
Cl11  Cl    Cl    0.158285 0.062323 0.967588 -0.252535
Cl12  Cl    Cl    0.135760 0.993802 0.223732 -0.305218
N17   N     N_R   0.759142 0.620282 0.038624 0.248764
O81   O     O_R   0.767265 0.640727 0.173164 -0.278579
O82   O     O_R   0.754802 0.654686 0.927911 -0.323453
N18   N     N_R   0.666640 0.424972 0.414804 0.275327
O83   O     O_R   0.629429 0.418937 0.506631 -0.169406
O84   O     O_R   0.701809 0.382260 0.388151 -0.288077
N19   N     N_R   0.264555 0.122756 0.045350 0.253922
O85   O     O_R   0.272011 0.145495 0.177263 -0.277012
O86   O     O_R   0.260609 0.155283 0.930803 -0.313597
N20   N     N_R   0.175924 0.917985 0.433988 0.271999
O87   O     O_R   0.144308 0.912146 0.537011 -0.159377
O88   O     O_R   0.215318 0.876933 0.414913 -0.292442
N21   N     N_R   0.074237 0.155006 0.495289 0.247818
O89   O     O_R   0.081313 0.100416 0.481682 -0.198250
O90   O     O_R   0.102763 0.187643 0.418163 -0.404946
N22   N     N_R   0.073751 0.844986 0.015229 0.245508
O91   O     O_R   0.071138 0.899721 0.997378 -0.149376
O92   O     O_R   0.106105 0.814985 0.937880 -0.388505
N23   N     N_R   0.570363 0.652897 0.490717 0.249794
O93   O     O_R   0.577386 0.598187 0.479976 -0.199960
O94   O     O_R   0.597367 0.684725 0.409033 -0.393893
N24   N     N_R   0.615498 0.316165 0.038075 0.193316
O95   O     O_R   0.601071 0.295897 0.903147 -0.421494
O96   O     O_R   0.659083 0.355801 0.070221 -0.259352
N25   N     N_R   0.115982 0.177355 0.750599 0.264113
O97   O     O_R   0.169745 0.193882 0.720066 -0.330167
O98   O     O_R   0.113194 0.177205 0.890440 -0.191876
N26   N     N_R   0.115355 0.816293 0.267748 0.253696
O99   O     O_R   0.168392 0.794996 0.239274 -0.370063
O100  O     O_R   0.110092 0.814182 0.405692 -0.195160
N27   N     N_R   0.613158 0.675860 0.745138 0.263858
O101  O     O_R   0.666420 0.693388 0.713975 -0.348101
O102  O     O_R   0.610402 0.676701 0.885003 -0.194676
N28   N     N_R   0.604095 0.315487 0.286299 0.268057
O103  O     O_R   0.659567 0.287314 0.333490 -0.277836
O104  O     O_R   0.572298 0.330946 0.383991 -0.266243
Cl13  Cl    Cl    0.953383 0.151295 0.276301 -0.384285
Cl14  Cl    Cl    0.947968 0.845452 0.791343 -0.388472
Cl15  Cl    Cl    0.451296 0.649907 0.265196 -0.374260
Cl16  Cl    Cl    0.424001 0.354686 0.711191 -0.373915
N29   N     N_R   0.212176 0.756136 0.790900 0.255019
O105  O     O_R   0.175992 0.798219 0.724026 -0.213714
O106  O     O_R   0.269448 0.746882 0.764021 -0.229833
N30   N     N_R   0.222035 0.251620 0.294073 0.259535
O107  O     O_R   0.283251 0.259755 0.294397 -0.223871
O108  O     O_R   0.186422 0.218111 0.194328 -0.198858
N31   N     N_R   0.718755 0.252314 0.790666 0.260075
O109  O     O_R   0.682390 0.291416 0.709575 -0.208006
O110  O     O_R   0.779656 0.246501 0.783384 -0.238637
N32   N     N_R   0.712057 0.742686 0.293922 0.262566
O111  O     O_R   0.771730 0.748164 0.279237 -0.217508
O112  O     O_R   0.674599 0.704131 0.216091 -0.210416
N33   N     N_R   0.251511 0.663357 0.288821 0.257133
O113  O     O_R   0.308372 0.638884 0.298268 -0.206667
O114  O     O_R   0.235872 0.680569 0.410154 -0.241405
N34   N     N_R   0.235183 0.326266 0.806041 0.252445
O115  O     O_R   0.227625 0.287425 0.899598 -0.229000
O116  O     O_R   0.279633 0.364808 0.850050 -0.227707
N35   N     N_R   0.752791 0.161643 0.287296 0.259107
O117  O     O_R   0.808074 0.134861 0.293148 -0.202207
O118  O     O_R   0.737385 0.176296 0.410901 -0.242247
N36   N     N_R   0.749095 0.838074 0.786327 0.254052
O119  O     O_R   0.736401 0.821047 0.910069 -0.245146
O120  O     O_R   0.803069 0.865152 0.790936 -0.210308
N37   N     N_R   0.071090 0.603829 0.869925 0.249647
O121  O     O_R   0.077257 0.568271 0.765509 -0.359244
O122  O     O_R   0.018368 0.603113 0.916964 -0.384026
N38   N     N_R   0.065147 0.395956 0.369200 0.255286
O123  O     O_R   0.011970 0.396171 0.414467 -0.396176
O124  O     O_R   0.068452 0.430239 0.261516 -0.343513
N39   N     N_R   0.569165 0.105502 0.869351 0.246125
O125  O     O_R   0.573360 0.070173 0.762781 -0.349295
O126  O     O_R   0.517995 0.104042 0.921682 -0.393421
N40   N     N_R   0.564819 0.895497 0.369180 0.253930
O127  O     O_R   0.511826 0.897332 0.415146 -0.396945
O128  O     O_R   0.569652 0.930022 0.263217 -0.344237
N41   N     N_R   0.008175 0.137989 0.667716 0.277420
O129  O     O_R   0.947353 0.136807 0.588273 -0.162175
O130  O     O_R   0.030527 0.093543 0.748611 -0.159283
N42   N     N_R   0.007836 0.858915 0.190476 0.279979
O131  O     O_R   0.029611 0.900687 0.282082 -0.200714
O132  O     O_R   0.947949 0.863549 0.106815 -0.155190
N43   N     N_R   0.503758 0.638710 0.662430 0.277384
O133  O     O_R   0.443825 0.637359 0.577878 -0.162011
O134  O     O_R   0.524307 0.594702 0.746406 -0.161431
N44   N     N_R   0.519520 0.358038 0.089850 0.281709
O135  O     O_R   0.468006 0.360650 0.144136 -0.174683
O136  O     O_R   0.531553 0.401632 0.015591 -0.151398
N45   N     N_R   0.954422 0.256853 0.952427 0.248576
O137  O     O_R   0.915686 0.300552 0.947234 -0.345328
O138  O     O_R   0.951855 0.228890 0.829408 -0.303429
N46   N     N_R   0.953373 0.742394 0.458812 0.249228
O139  O     O_R   0.913692 0.700480 0.452393 -0.339757
O140  O     O_R   0.952205 0.769305 0.336113 -0.300288
N47   N     N_R   0.454181 0.759666 0.947971 0.248556
O141  O     O_R   0.415044 0.802968 0.944088 -0.349401
O142  O     O_R   0.452407 0.732700 0.824171 -0.307795
N48   N     N_R   0.453072 0.248347 0.458994 0.243979
O143  O     O_R   0.408125 0.212204 0.464873 -0.360528
O144  O     O_R   0.459742 0.262908 0.329069 -0.269446
Cl17  Cl    Cl    0.976488 0.272804 0.245976 -0.735339
Cl18  Cl    Cl    0.979540 0.726297 0.753325 -0.752300
Cl19  Cl    Cl    0.474360 0.772137 0.241990 -0.742515
Cl20  Cl    Cl    0.481618 0.240017 0.752345 -0.725403
N49   N     N_R   0.922365 0.152547 0.992679 0.261824
O145  O     O_R   0.927660 0.115886 0.889765 -0.197024
O146  O     O_R   0.865565 0.176066 0.989616 -0.292413
N50   N     N_R   0.914922 0.844729 0.505150 0.261188
O147  O     O_R   0.919560 0.876993 0.394415 -0.209457
O148  O     O_R   0.859350 0.820666 0.502776 -0.308820
N51   N     N_R   0.414964 0.658001 0.982496 0.263023
O149  O     O_R   0.417108 0.626432 0.867012 -0.199744
O150  O     O_R   0.360867 0.684995 0.986451 -0.311881
N52   N     N_R   0.456637 0.365537 0.455693 0.258767
O151  O     O_R   0.481519 0.412268 0.421121 -0.162605
O152  O     O_R   0.399234 0.350749 0.373762 -0.242897
Cl21  Cl    Cl    0.048089 0.124148 0.112708 -0.247576
Cl22  Cl    Cl    0.037296 0.876321 0.627869 -0.232027
Cl23  Cl    Cl    0.539704 0.623253 0.087150 -0.238825
Cl24  Cl    Cl    0.554670 0.376899 0.699058 -0.217702
Cl25  Cl    Cl    0.187091 0.467800 0.420312 -0.629733
Cl26  Cl    Cl    0.202550 0.529714 0.931761 -0.627005
Cl27  Cl    Cl    0.691824 0.963282 0.415617 -0.627633
Cl28  Cl    Cl    0.696363 0.034868 0.919316 -0.627065

loop_
_geom_bond_atom_site_label_1
_geom_bond_atom_site_label_2
_geom_bond_distance
_ccdc_geom_bond_type
C23   C27   1.564620 S    
N35   O117  1.300132 A    
P6    O26   1.665883 D    
N49   O145  1.299388 A    
O21   C29   1.433931 S    
N39   O126  1.282567 A    
N2    O51   1.301812 A    
N32   O111  1.300553 A    
C2    N22   1.469708 S    
C12   Cl16  1.802306 S    
C43   N31   1.441203 S    
C28   Cl12  1.763083 S    
P11   C40   1.895162 S    
P4    C68   1.949606 S    
O12   Ba4   2.989768 S    
C3    N27   1.463190 S    
C68   C80   1.382387 A    
C69   C73   1.480538 A    
N24   O96   1.298014 A    
C77   H21   1.062230 S    
C66   C70   1.446249 A    
C6    Cl18  1.752247 S    
C72   C76   1.468783 A    
N46   O139  1.294594 A    
C14   H2    1.111541 S    
N20   O88   1.301669 A    
P14   C61   1.899029 S    
C71   C75   1.478792 A    
P4    O8    1.637737 S    
C48   C74   1.618179 S    
C58   C74   1.436228 A    
N41   O130  1.300857 A    
N7    O61   1.300254 A    
C19   Cl7   1.761494 S    
N21   O89   1.302687 A    
C20   Cl8   1.754005 S    
C50   C54   1.456071 A    
C62   C78   1.392640 A    
N22   O92   1.297577 A    
N8    O63   1.293119 A    
Ba4   O48   2.987294 S    
N27   O101  1.295857 A    
N50   O147  1.299343 A    
C50   N34   1.420883 S    
C79   H23   1.059926 S    
P7    O39   1.772042 S    
C1    N25   1.463886 S    
C23   N15   1.452116 S    
N3    O53   1.302519 A    
C10   Cl14  1.787425 S    
C65   C77   1.393228 A    
N39   O125  1.298551 A    
P4    Ba4   3.575304 S    
N40   O127  1.284323 A    
C80   H24   1.048014 S    
C3    N23   1.468330 S    
C58   H14   1.058028 S    
C22   N14   1.461105 S    
N8    O64   1.301346 A    
C60   C76   1.433693 A    
C49   C53   1.467563 A    
C61   C77   1.395030 A    
P6    O38   1.765483 S    
C39   C43   1.444895 A    
Ba3   O48   3.175878 S    
P3    Ba3   3.593954 S    
P1    O1    1.666078 D    
P8    O28   1.665883 D    
P9    O29   1.779714 S    
P8    C55   2.005495 S    
C43   C47   1.446303 A    
N38   O123  1.284428 A    
P11   O31   1.782109 S    
N27   O102  1.299605 A    
C3    C31   1.597345 S    
O29   Ba1   2.989696 S    
N6    O59   1.292317 A    
O41   C5    1.426818 S    
C44   N32   1.429578 S    
O7    Ba4   2.997065 S    
O43   C7    1.421839 S    
C51   N35   1.418840 S    
O44   C8    1.430869 S    
C49   N33   1.417427 S    
N33   O114  1.298022 A    
P2    O18   1.757821 S    
C57   H13   1.061742 S    
C8    Cl20  1.756276 S    
O24   C32   1.423615 S    
C71   H19   1.065773 S    
P8    O47   1.658788 S    
N31   O110  1.300394 A    
C47   C51   1.488483 A    
P3    O7    1.651900 S    
C5    C9    1.604043 S    
P12   C39   1.905051 S    
C14   Cl26  1.734546 S    
N45   O137  1.295473 A    
C20   N4    1.469878 S    
N4    O55   1.302471 A    
P9    O41   1.784766 S    
O3    Ba3   2.958923 S    
P3    C67   1.960987 S    
P12   O44   1.794423 S    
O27   Ba3   2.930124 S    
C13   C17   1.574094 S    
C15   C19   1.546605 S    
C21   N9    1.455724 S    
C2    N26   1.459732 S    
C8    C12   1.611915 S    
N35   O118  1.298323 A    
N12   O72   1.292632 A    
O21   P14   1.779560 S    
C70   H18   1.068626 S    
O23   P16   1.775801 S    
C28   H8    1.099644 S    
P6    O45   1.658788 S    
N18   O83   1.295228 A    
N25   O97   1.295312 A    
C38   C42   1.433487 A    
C25   N17   1.445940 S    
C17   N5    1.470949 S    
O30   Ba2   2.975321 S    
P10   C37   1.897336 S    
C59   C63   1.419901 A    
C24   N16   1.446661 S    
N42   O132  1.299335 A    
N1    O50   1.299087 A    
P7    O27   1.675075 D    
N17   O81   1.293410 A    
C11   N51   1.450731 S    
C29   Cl1   1.787111 S    
N37   O122  1.284796 A    
C1    C29   1.599505 S    
N14   O75   1.299590 A    
N9    O66   1.301563 A    
C9    N49   1.452222 S    
C6    C10   1.600092 S    
C69   H17   1.069295 S    
N47   O142  1.290082 A    
C8    N48   1.454387 S    
C78   H22   1.046850 S    
C18   N6    1.455758 S    
N13   O73   1.295000 A    
C17   N1    1.471521 S    
C36   C40   1.404576 A    
C27   Cl11  1.776585 S    
N34   O116  1.300407 A    
C67   C71   1.453619 A    
O13   P14   1.548392 D    
C41   C45   1.444891 A    
C45   C49   1.491588 A    
O15   P16   1.548792 D    
N52   O152  1.299415 A    
Ba3   Ba4   5.038185 S    
C59   C75   1.438657 A    
C52   C56   1.453152 A    
C34   C54   1.418539 A    
P16   C63   1.894960 S    
N19   O86   1.292128 A    
C7    Cl19  1.762674 S    
N28   O104  1.292188 A    
C33   C37   1.404943 A    
N5    O57   1.300906 A    
C35   C39   1.407658 A    
N51   O150  1.299874 A    
C64   C80   1.391212 A    
P7    O48   1.644414 S    
C29   H9    1.098324 S    
C33   N37   1.424483 S    
C23   N11   1.463326 S    
C68   C72   1.455035 A    
N26   O99   1.297384 A    
C12   N52   1.471609 S    
N15   O78   1.294663 A    
C66   C78   1.380577 A    
C36   N40   1.431867 S    
C60   H16   1.066882 S    
N32   O112  1.297796 A    
C10   Cl22  1.766118 S    
C17   Cl5   1.785789 S    
C59   H15   1.059359 S    
C16   C20   1.549951 S    
C35   C55   1.418630 A    
N29   O106  1.300200 A    
C19   N3    1.470393 S    
C25   H5    1.088302 S    
P10   O30   1.799931 S    
C27   H7    1.088516 S    
O31   Ba3   2.989696 S    
N30   O107  1.300345 A    
N46   O140  1.292465 A    
N16   O79   1.296750 A    
C4    N24   1.457289 S    
C1    N41   1.479919 S    
C26   Cl10  1.758052 S    
C33   C53   1.413279 A    
P6    Ba2   3.596246 S    
O9    P14   1.774583 S    
O42   C6    1.424613 S    
Ba2   O46   2.987294 S    
P11   O35   1.541873 D    
N19   O85   1.293936 A    
O22   C30   1.425900 S    
N23   O93   1.302553 A    
O16   P15   1.545477 D    
N48   O144  1.285680 A    
C18   N2    1.468661 S    
N50   O148  1.299997 A    
P3    O3    1.666078 D    
N36   O119  1.298763 A    
P4    O20   1.774953 S    
Ba1   O46   3.175878 S    
C46   C50   1.473447 A    
P1    Ba1   3.593954 S    
O9    Ba1   2.975535 S    
C16   Cl28  1.733012 S    
N49   O146  1.299324 A    
P10   O42   1.786681 S    
P1    C65   1.968925 S    
P5    C54   1.963789 S    
C20   N8    1.451728 S    
N2    O52   1.299281 A    
N10   O67   1.297808 A    
C18   Cl6   1.763828 S    
N40   O128  1.298659 A    
N31   O109  1.299398 A    
C13   H1    1.111426 S    
P4    O4    1.675265 D    
O5    Ba2   2.997065 S    
C44   C48   1.439451 A    
C11   Cl15  1.782278 S    
N43   O133  1.300352 A    
Ba3   O47   2.996137 S    
C34   N38   1.433062 S    
C31   H11   1.097066 S    
O37   C14   1.381664 S    
C72   H20   1.074453 S    
N38   O124  1.298767 A    
C26   H6    1.097931 S    
O17   C21   1.410621 S    
C19   N7    1.453578 S    
C10   N50   1.452353 S    
C5    N45   1.463937 S    
P1    O5    1.651900 S    
N15   O77   1.293469 A    
N6    O60   1.301048 A    
C58   C62   1.413785 A    
C22   N10   1.446632 S    
P7    Ba3   3.577046 S    
O10   P13   1.775386 S    
O11   Ba3   2.975535 S    
N9    O65   1.299742 A    
C32   H12   1.093404 S    
O8    Ba3   2.988260 S    
N33   O113  1.299198 A    
P8    O40   1.767214 S    
P9    O33   1.539780 D    
O12   P15   1.773776 S    
N11   O69   1.298443 A    
O23   C31   1.433471 S    
O40   C15   1.385412 S    
P11   O43   1.781293 S    
N20   O87   1.294130 A    
C30   Cl2   1.791851 S    
C26   N18   1.438816 S    
O20   C24   1.393102 S    
N21   O90   1.300436 A    
C22   C26   1.570446 S    
Ba2   O45   3.166535 S    
P2    Ba2   3.575304 S    
N13   O74   1.294908 A    
O10   Ba2   2.989768 S    
N4    O56   1.302337 A    
N22   O91   1.301844 A    
C3    N43   1.479478 S    
C57   C61   1.421569 A    
P12   O32   1.802054 S    
C21   C25   1.564296 S    
O4    Ba4   2.927293 S    
Ba4   O47   3.166535 S    
C1    N21   1.470217 S    
C60   C64   1.418333 A    
C5    Cl17  1.767552 S    
O28   Ba4   2.962195 S    
C63   C79   1.390254 A    
C36   C56   1.418653 A    
O6    Ba1   2.988260 S    
P5    O25   1.675075 D    
N47   O141  1.294706 A    
C11   Cl23  1.783630 S    
N48   O143  1.293137 A    
O24   P15   1.757718 S    
O38   C13   1.387145 S    
C31   Cl3   1.795638 S    
C32   Cl4   1.795055 S    
C12   Cl24  1.785584 S    
N18   O84   1.296565 A    
O18   C22   1.390338 S    
C41   N29   1.435967 S    
N1    O49   1.298342 A    
N7    O62   1.291881 A    
C35   N39   1.428558 S    
C15   Cl27  1.730584 S    
C65   C69   1.455693 A    
P13   C62   1.901973 S    
C15   H3    1.111475 S    
N51   O149  1.299869 A    
P1    O17   1.775156 S    
O2    Ba2   2.927293 S    
C14   C18   1.544522 S    
N37   O121  1.297735 A    
P3    O19   1.787689 S    
O26   Ba2   2.962195 S    
C16   H4    1.111608 S    
C67   C79   1.389927 A    
P15   C64   1.899740 S    
C47   C73   1.635865 S    
N14   O76   1.299839 A    
Ba1   Ba2   5.038185 S    
N41   O129  1.300054 A    
N42   O131  1.301458 A    
N24   O95   1.288171 A    
C24   N12   1.446062 S    
C7    N47   1.460668 S    
C51   C55   1.467947 A    
N3    O54   1.302264 A    
O22   P13   1.768528 S    
N23   O94   1.298305 A    
O1    Ba1   2.958923 S    
P5    O46   1.644414 S    
C37   C41   1.436462 A    
C21   N13   1.451379 S    
C2    N42   1.478541 S    
C28   N20   1.452418 S    
P9    C38   1.896474 S    
C24   C28   1.567886 S    
N45   O138  1.292572 A    
N44   O136  1.301720 A    
C4    N28   1.457219 S    
O11   P16   1.774634 S    
C9    Cl13  1.784671 S    
O39   C16   1.386665 S    
C6    N46   1.463831 S    
O25   Ba1   2.930124 S    
O19   C23   1.418162 S    
C2    C30   1.586804 S    
P2    O2    1.675265 D    
C48   C52   1.473246 A    
P5    O37   1.767092 S    
C7    C11   1.600367 S    
N43   O134  1.299771 A    
C57   C73   1.437285 A    
N26   O100  1.299924 A    
N12   O71   1.301483 A    
P6    C53   2.003033 S    
N5    O58   1.301277 A    
P12   O36   1.540139 D    
O32   Ba4   2.975321 S    
N25   O98   1.299640 A    
O14   P13   1.544965 D    
C13   Cl25  1.719845 S    
C42   C46   1.438050 A    
N44   O135  1.299209 A    
C42   N30   1.426641 S    
N29   O105  1.299434 A    
N17   O82   1.290505 A    
C34   C38   1.401630 A    
N11   O70   1.302206 A    
N30   O108  1.297290 A    
N16   O80   1.299762 A    
C70   C74   1.468649 A    
P2    O6    1.637737 S    
C30   H10   1.097490 S    
P7    C56   1.969953 S    
P10   O34   1.539937 D    
P2    C66   1.947733 S    
N34   O115  1.300054 A    
C9    Cl21  1.785472 S    
N36   O120  1.300270 A    
N52   O151  1.303121 A    
Ba1   O45   2.996137 S    
P8    Ba4   3.596246 S    
C52   N36   1.415861 S    
N28   O103  1.306483 A    
C4    N44   1.481809 S    
C45   C75   1.637518 S    
N10   O68   1.292407 A    
C4    C32   1.579237 S    
C27   N19   1.448373 S    
C25   Cl9   1.782834 S    
P5    Ba1   3.577046 S    
C40   C44   1.432804 A    
C46   C76   1.613953 S    
