data_mof_unit_47269.cif
_audit_creation_date              2013-03-05T15:45:21-0500
_audit_creation_method            fapswitch 2.2
_symmetry_space_group_name_H-M    P1
_symmetry_Int_Tables_number       1
_space_group_crystal_system       triclinic
_cell_length_a                    10.661889
_cell_length_b                    11.097667
_cell_length_c                    9.99341
_cell_angle_alpha                 112.542185
_cell_angle_beta                  99.192875
_cell_angle_gamma                 91.120189
_cell_volume                      1073.8315927

loop_
_atom_site_label
_atom_site_type_symbol
_atom_site_description
_atom_site_fract_x
_atom_site_fract_y
_atom_site_fract_z
_atom_type_partial_charge
O1    O     O_R   0.511700 0.332340 0.577400 -0.556584
O2    O     O_R   0.488300 0.667660 0.422600 -0.593763
O3    O     O_R   0.474680 0.295500 0.332650 -0.587805
O4    O     O_R   0.525320 0.704500 0.667350 -0.552508
C1    C     C_R   0.494004 0.253467 0.438238 0.861753
C2    C     C_R   0.506503 0.746654 0.561774 0.848090
O5    O     O_R   0.338170 0.518410 0.622370 -0.539190
O6    O     O_R   0.661830 0.481590 0.377630 -0.579447
O7    O     O_R   0.301150 0.481570 0.377630 -0.583017
O8    O     O_R   0.698850 0.518430 0.622370 -0.567232
C3    C     C_R   0.262902 0.516226 0.503127 0.815512
C4    C     C_R   0.737276 0.484117 0.497262 0.806488
Cu1   Cu    Cu3+1 0.521920 0.521810 0.644910 0.966011
Cu2   Cu    Cu3+1 0.478080 0.478190 0.355090 0.911485
H1    H     H_    0.022709 0.400526 0.000856 0.188541
H2    H     H_    0.977264 0.608587 0.003542 0.188021
C5    C     C_R   0.146213 0.672690 0.773213 0.149040
C6    C     C_R   0.856271 0.328651 0.228657 0.131056
C7    C     C_R   0.105225 0.685276 0.905213 0.158021
C8    C     C_R   0.897224 0.318383 0.097196 0.156346
C9    C     C_R   0.003817 0.602685 0.901387 -0.185643
C10   C     C_R   0.996708 0.404072 0.102377 -0.194548
C11   C     C_R   0.935616 0.513050 0.768041 0.145456
C12   C     C_R   0.063785 0.493498 0.236649 0.131303
C13   C     C_R   0.961770 0.515469 0.634082 0.011059
C14   C     C_R   0.038564 0.487390 0.368975 0.016387
C15   C     C_R   0.080127 0.576424 0.637360 0.016935
C16   C     C_R   0.921125 0.424965 0.365090 0.017035
C17   C     C_R   0.874392 0.461054 0.497998 -0.189787
C18   C     C_R   0.126220 0.540286 0.504119 -0.194731
C19   C     C_2   0.487104 0.110943 0.397454 0.025626
C20   C     C_2   0.514953 0.889332 0.602273 0.021598
C21   C     C_2   0.528035 0.064736 0.502504 0.135503
C22   C     C_2   0.475255 0.935347 0.496633 0.130329
N1    N     N_2   0.445130 0.445420 0.137360 -0.146069
N2    N     N_2   0.554870 0.554580 0.862640 -0.117575
C23   C     C_2   0.515836 0.500170 0.074606 0.246403
C24   C     C_2   0.487962 0.485755 0.913386 0.292509
C25   C     C_3   0.248482 0.772182 0.778872 -0.823003
H3    H     H_    0.341205 0.759207 0.837979 0.253975
H4    H     H_    0.259563 0.766065 0.668177 0.214295
H5    H     H_    0.222562 0.872901 0.837583 0.214859
C26   C     C_3   0.754345 0.228291 0.221636 -0.823183
H6    H     H_    0.742868 0.233780 0.332011 0.218313
H7    H     H_    0.661636 0.241191 0.162376 0.245087
H8    H     H_    0.780877 0.127930 0.162448 0.219867
N3    N     N_3   0.167728 0.778634 0.045580 -0.590578
H9    H     H_    0.156294 0.872553 0.047655 0.218859
H10   H     H_    0.264728 0.764272 0.057244 0.217306
N4    N     N_3   0.835787 0.225228 0.956163 -0.588555
H11   H     H_    0.848240 0.131200 0.953291 0.220650
H12   H     H_    0.738508 0.238351 0.944142 0.217470
N5    N     N_3   0.855461 0.409108 0.772046 -0.573306
H13   H     H_    0.820160 0.339351 0.666389 0.245548
H14   H     H_    0.779387 0.448465 0.823758 0.255958
N6    N     N_3   0.141059 0.601240 0.236353 -0.572820
H15   H     H_    0.218415 0.566496 0.185072 0.254030
H16   H     H_    0.175344 0.669350 0.343215 0.244312
N7    N     N_3   0.368863 0.860794 0.384526 -0.609306
H17   H     H_    0.398452 0.812635 0.284341 0.236007
H18   H     H_    0.296841 0.921513 0.376722 0.239292
N8    N     N_3   0.635683 0.138614 0.612925 -0.613320
H19   H     H_    0.607914 0.186403 0.714195 0.236852
H20   H     H_    0.707608 0.077295 0.618800 0.236542
C27   C     C_3   0.555899 0.977548 0.763635 -0.937094
H21   H     H_    0.532773 0.928851 0.836187 0.262690
H22   H     H_    0.660252 0.002667 0.790055 0.237595
H23   H     H_    0.502148 0.065859 0.793314 0.228929
C28   C     C_3   0.448895 0.023093 0.235719 -0.950094
H24   H     H_    0.474650 0.071923 0.164353 0.252043
H25   H     H_    0.502668 0.934972 0.207557 0.234172
H26   H     H_    0.344532 0.998135 0.206662 0.237340
N9    N     N_3   0.393705 0.387036 0.808177 -0.514910
H27   H     H_    0.416381 0.295072 0.805454 0.206971
H28   H     H_    0.303925 0.407582 0.836250 0.225283
N10   N     N_3   0.634690 0.572773 0.157206 -0.641097
H29   H     H_    0.701910 0.508536 0.167489 0.250069
H30   H     H_    0.624664 0.644635 0.257644 0.264604
N11   N     N_3   0.604497 0.682206 0.954937 -0.475347
H31   H     H_    0.699387 0.680270 0.000398 0.234289
H32   H     H_    0.549286 0.725126 0.035889 0.194507
N12   N     N_3   0.355893 0.342180 0.046554 -0.569363
H33   H     H_    0.390805 0.256987 0.053238 0.234313
H34   H     H_    0.273120 0.355131 0.091705 0.247339

loop_
_geom_bond_atom_site_label_1
_geom_bond_atom_site_label_2
_geom_bond_distance
_ccdc_geom_bond_type
C2    C20   1.473258 S    
H2    C9    1.080941 S    
C4    C17   1.488429 S    
N9    H27   1.044631 S    
O7    Cu2   1.934616 S    
C25   H4    1.107606 S    
N5    H13   1.044381 S    
O5    C3    1.317632 A    
N8    H19   1.040906 S    
O1    C1    1.308503 A    
C16   C17   1.408614 A    
C7    C9    1.389863 A    
C12   C14   1.416768 A    
C7    N3    1.430112 S    
N6    H15   1.042838 S    
C5    C25   1.515449 S    
O4    Cu1   1.951415 S    
C28   H25   1.107578 S    
N8    H20   1.044622 S    
H1    C10   1.080459 S    
C3    C18   1.487578 S    
C21   N8    1.439449 S    
C27   H22   1.105839 S    
N4    H12   1.044447 S    
C19   C21   1.353007 D    
N7    H17   1.041533 S    
Cu1   Cu2   2.706460 S    
C15   C18   1.408075 A    
N9    H28   1.045109 S    
O2    C2    1.308755 A    
N3    H10   1.044383 S    
N1    N12   1.387708 S    
C11   N5    1.438864 S    
C25   H5    1.109520 S    
N5    H14   1.044233 S    
C13   C17   1.423216 A    
N7    H18   1.044600 S    
C5    C15   1.426123 A    
C6    C16   1.425499 A    
N10   H29   1.041644 S    
Cu1   N2    2.033253 S    
O4    C2    1.298736 A    
Cu2   N1    2.033254 S    
N11   H32   1.046675 S    
N4    H11   1.044503 S    
N2    N11   1.396384 S    
C20   C22   1.354055 D    
C28   H26   1.105530 S    
C26   H6    1.107811 S    
C23   C24   1.535325 S    
O7    C3    1.298767 A    
N3    H9    1.044432 S    
O5    Cu1   1.933884 S    
O6    C4    1.320329 A    
C27   H23   1.109186 S    
C21   C22   1.508376 S    
C26   H7    1.109843 S    
O3    Cu2   1.951415 S    
O8    C4    1.296427 A    
C23   N10   1.432584 S    
C8    C10   1.391871 A    
C14   C18   1.417538 A    
N12   H34   1.041900 S    
C9    C11   1.392761 A    
C22   N7    1.439782 S    
C10   C12   1.393372 A    
C12   N6    1.439943 S    
C25   H3    1.109579 S    
O6    Cu2   1.933885 S    
N1    C23   1.325169 D    
N10   H30   1.038634 S    
O3    C1    1.298135 A    
O8    Cu1   1.934615 S    
C13   C15   1.409783 A    
C14   C16   1.406834 A    
N2    C24   1.319367 D    
C6    C26   1.514843 S    
C5    C7    1.412764 A    
N6    H16   1.044496 S    
C6    C8    1.414219 A    
C11   C13   1.420264 A    
C28   H24   1.109406 S    
O2    Cu2   1.941175 S    
C26   H8    1.109524 S    
N11   H31   1.044923 S    
C19   C28   1.514845 S    
O1    Cu1   1.941176 S    
C8    N4    1.430247 S    
C27   H21   1.109456 S    
N12   H33   1.044559 S    
C20   C27   1.515675 S    
C1    C19   1.471337 S    
C24   N9    1.432410 S    
