data_mof_unit_10934.cif
_audit_creation_date              2012-12-10T18:58:12-0500
_audit_creation_method            fapswitch 2.2
_symmetry_space_group_name_H-M    P1
_symmetry_Int_Tables_number       1
_space_group_crystal_system       triclinic
_cell_length_a                    11.042885
_cell_length_b                    10.838633
_cell_length_c                    9.551856
_cell_angle_alpha                 91.250126
_cell_angle_beta                  101.986741
_cell_angle_gamma                 90.50383
_cell_volume                      1117.96156878

loop_
_atom_site_label
_atom_site_type_symbol
_atom_type_description
_atom_site_fract_x
_atom_site_fract_y
_atom_site_fract_z
_atom_type_partial_charge
C1    C     C_R   0.498058 0.262706 0.498181 0.817029
C2    C     C_R   0.492421 0.129867 0.495653 -0.069102
C3    C     C_R   0.423483 0.062861 0.378264 -0.223491
C4    C     C_R   0.420023 0.932922 0.379258 0.153345
C5    C     C_R   0.487739 0.871176 0.499762 -0.048664
C6    C     C_R   0.544125 0.941024 0.620775 0.003020
C7    C     C_3   0.671685 0.937999 0.713398 -0.087085
C8    C     C_3   0.676838 0.078206 0.704523 0.018225
C9    C     C_R   0.591536 0.560197 0.097589 0.203553
C10   C     C_R   0.416596 0.431012 0.052678 -0.051616
C11   C     C_R   0.416448 0.431249 0.903808 -0.056195
C12   C     C_R   0.262771 0.493989 0.442448 0.816696
C13   C     C_R   0.593612 0.556854 0.950576 0.229341
C14   C     C_3   0.632369 0.688876 0.953850 -0.167428
C15   C     C_3   0.619855 0.695649 0.110302 -0.070367
C16   C     C_R   0.497117 0.737649 0.500295 0.824162
C17   C     C_R   0.737081 0.498519 0.557265 0.889092
C18   C     C_2   0.127343 0.483807 0.410248 -0.032496
C19   C     C_2   0.064891 0.445248 0.509844 0.156936
C20   C     C_2   0.871545 0.490276 0.587464 -0.312895
C21   C     C_2   0.929631 0.455649 0.483169 -0.100878
C22   C     C_R   0.548135 0.067619 0.616944 0.018102
Cu1   Cu    Cu3+1 0.499990 0.499980 0.640670 0.969938
Cu2   Cu    Cu3+1 0.500010 0.500020 0.359330 0.992841
H1    H     H_    0.876926 0.436733 0.375501 0.202957
H2    H     H_    0.347731 0.376830 0.090580 0.150323
H3    H     H_    0.347893 0.376863 0.830441 0.159373
H4    H     H_    0.564866 0.746626 0.882294 0.176201
H5    H     H_    0.537138 0.749044 0.123051 0.171469
H6    H     H_    0.922558 0.510384 0.695711 0.171177
H7    H     H_    0.374051 0.111283 0.286078 0.145188
H8    H     H_    0.672092 0.908960 0.823455 0.134932
H9    H     H_    0.678436 0.125562 0.809318 0.124179
N1    N     N_R   0.500780 0.500930 0.148120 -0.199325
N2    N     N_R   0.500790 0.500890 0.852210 -0.199300
O1    O     O_R   0.500000 0.319640 0.618810 -0.590704
O2    O     O_R   0.500010 0.319680 0.381230 -0.580111
O3    O     O_R   0.320680 0.500000 0.575130 -0.562747
O4    O     O_R   0.320690 0.500040 0.337550 -0.567464
O5    O     O_R   0.499990 0.680320 0.618770 -0.597709
O6    O     O_R   0.500000 0.680360 0.381190 -0.542187
O7    O     O_R   0.679310 0.499960 0.662450 -0.562208
O8    O     O_R   0.679320 0.500000 0.424870 -0.557138
I1    I     I_    0.809899 0.152184 0.590538 -0.363304
N3    N     N_3   0.759287 0.700481 0.930998 -0.565569
H10   H     H_    0.796496 0.785859 0.972210 0.251700
H11   H     H_    0.815429 0.632606 0.986195 0.278125
I2    I     I_    0.779161 0.747338 0.272603 -0.315180
N4    N     N_3   0.129615 0.392387 0.641529 -0.564877
H12   H     H_    0.067420 0.361219 0.702135 0.239373
H13   H     H_    0.173026 0.312711 0.613998 0.207812
I3    I     I_    0.038343 0.532248 0.198842 -0.407619
N5    N     N_3   0.350023 0.864024 0.258524 -0.564820
H14   H     H_    0.276541 0.820465 0.292218 0.232615
H15   H     H_    0.310657 0.923322 0.177100 0.218114
N6    N     N_3   0.760483 0.873434 0.644931 -0.484038
H16   H     H_    0.741107 0.778930 0.645077 0.237353
H17   H     H_    0.848006 0.885969 0.711197 0.251342

loop_
_geom_bond_atom_site_label_1
_geom_bond_atom_site_label_2
_ccdc_geom_bond_type
C2    C22   A    
C8    C22   S    
Cu1   Cu2   S    
C17   O8    A    
C15   H5    S    
C6    C7    S    
Cu1   O1    S    
C11   H3    S    
C4    N5    S    
Cu1   O3    S    
C19   N4    S    
C14   C15   S    
C1    O2    A    
C10   H2    S    
C12   O4    A    
C11   N2    A    
C2    C3    A    
C9    C15   S    
C18   I3    S    
C7    C8    S    
C10   N1    A    
C20   H6    S    
C13   C14   S    
C20   C21   D    
C3    H7    S    
Cu2   O6    S    
C5    C6    A    
Cu1   O7    S    
C7    N6    S    
C16   O5    A    
C15   I2    S    
C19   C21   S    
N6    H17   S    
C13   N2    A    
C14   N3    S    
Cu1   N2    S    
C8    H9    S    
N5    H15   S    
C12   O3    A    
C9    N1    A    
N4    H13   S    
C10   C11   A    
Cu1   O5    S    
C6    C22   A    
C8    I1    S    
Cu2   O4    S    
N6    H16   S    
C1    O1    A    
Cu2   O2    S    
C1    C2    S    
N3    H11   S    
C12   C18   S    
N4    H12   S    
Cu2   O8    S    
C9    C13   A    
C17   O7    A    
C18   C19   D    
C5    C16   S    
C21   H1    S    
C7    H8    S    
C14   H4    S    
N3    H10   S    
C17   C20   S    
Cu2   N1    S    
C3    C4    A    
N5    H14   S    
C4    C5    A    
C16   O6    A    
