data_mof_unit_55378.cif
_audit_creation_date              2012-10-26T17:13:01-0400
_audit_creation_method            fapswitch 2.2
_symmetry_space_group_name_H-M    P1
_symmetry_Int_Tables_number       1
_space_group_crystal_system       triclinic
_cell_length_a                    16.839242
_cell_length_b                    16.828808
_cell_length_c                    16.910561
_cell_angle_alpha                 68.300906
_cell_angle_beta                  67.894759
_cell_angle_gamma                 68.784807
_cell_volume                      3984.82958375

loop_
_atom_site_label
_atom_site_type_symbol
_atom_type_description
_atom_site_fract_x
_atom_site_fract_y
_atom_site_fract_z
_atom_type_partial_charge
C1    C     C_R   0.322383 0.968502 0.450707 0.011227
C2    C     C_R   0.328064 0.456405 0.934305 0.016343
C3    C     C_R   0.556021 0.430142 0.942178 -0.006026
C4    C     C_R   0.039622 0.452168 0.578254 -0.004890
C5    C     C_R   0.984061 0.540951 0.424052 0.009218
C6    C     C_R   0.989543 0.688254 0.576135 -0.037916
C7    C     C_R   0.018118 0.307813 0.429940 0.013011
C8    C     C_R   0.467876 0.963984 0.458345 -0.019706
C9    C     C_R   0.559188 0.994741 0.550473 -0.019003
C10   C     C_R   0.007394 0.448159 0.450615 -0.013146
C11   C     C_R   0.010271 0.545240 0.554330 -0.017808
C12   C     C_R   0.468470 0.469353 0.935821 -0.018076
C13   C     C_R   0.569376 0.570038 0.939719 -0.018313
C14   C     C_R   0.017257 0.830539 0.569054 0.534424
C15   C     C_R   0.681932 0.039425 0.549568 0.012201
C16   C     C_R   0.984451 0.169364 0.431261 0.596744
C17   C     C_R   0.831246 0.568973 0.014118 0.530598
C18   C     C_R   0.171552 0.435474 0.972788 0.615026
C19   C     C_R   0.565400 0.027280 0.828453 0.588410
C20   C     C_R   0.431484 0.984274 0.169317 0.561602
C21   C     C_R   0.432323 0.170477 0.981228 0.548666
C22   C     C_R   0.569161 0.831921 0.012762 0.582762
C23   C     C_R   0.978637 0.433611 0.170662 0.560431
C24   C     C_R   0.029191 0.564488 0.828686 0.558283
C25   C     C_R   0.170385 0.980440 0.433285 0.606203
C26   C     C_R   0.992629 0.445154 0.312902 0.020159
C27   C     C_R   0.828801 0.029724 0.564074 0.593148
C28   C     C_R   0.413721 0.966932 0.408684 -0.066080
C29   C     C_R   0.600045 0.018431 0.594755 -0.070323
C30   C     C_R   0.003383 0.400574 0.398927 -0.057793
C31   C     C_R   0.016057 0.594335 0.602947 -0.047647
C32   C     C_R   0.414942 0.416234 0.944339 -0.053802
C33   C     C_R   0.614965 0.615889 0.956136 -0.056178
C34   C     C_R   0.266655 0.980139 0.396978 0.039071
C35   C     C_R   0.730390 0.046370 0.598331 0.041060
C36   C     C_R   0.977531 0.397657 0.266361 -0.004154
C37   C     C_R   0.049074 0.549646 0.677768 -0.032757
C38   C     C_R   0.044002 0.600382 0.730876 0.005333
C39   C     C_R   0.395072 0.268034 0.975927 -0.027995
C40   C     C_R   0.610928 0.740991 0.999757 0.008585
C41   C     C_R   0.601288 0.040814 0.729973 0.005022
C42   C     C_R   0.393757 0.986350 0.264497 -0.000414
C43   C     C_R   0.739947 0.611220 0.001236 -0.016593
C44   C     C_R   0.269914 0.400507 0.959465 0.040109
C45   C     C_R   0.015908 0.735783 0.612482 -0.026528
C46   C     C_R   0.988991 0.264170 0.391005 0.016292
C47   C     C_R   0.464143 0.030125 0.713336 0.270128
C48   C     C_R   0.447868 0.322767 0.967169 -0.041363
C49   C     C_R   0.527489 0.010840 0.274777 0.255047
C50   C     C_R   0.942652 0.730004 0.510355 0.247317
C51   C     C_R   0.061271 0.263785 0.498400 0.235929
C52   C     C_R   0.747277 0.496064 0.934111 0.247282
C53   C     C_R   0.303449 0.550665 0.900403 0.247247
C54   C     C_R   0.290396 0.969040 0.542280 0.258316
C55   C     C_R   0.710214 0.057709 0.455958 0.271305
C56   C     C_R   0.530980 0.286948 0.986955 0.245706
C57   C     C_R   0.502443 0.750881 0.922062 0.245447
C58   C     C_R   0.997637 0.535260 0.279190 0.257611
C59   C     C_R   0.574874 0.704119 0.960350 0.015418
C60   C     C_R   0.087619 0.456502 0.695631 0.259114
C61   C     C_R   0.302787 0.992925 0.304718 0.026621
C62   C     C_R   0.687594 0.054316 0.685594 0.027586
C63   C     C_R   0.959578 0.313988 0.314183 0.037885
C64   C     C_R   0.043093 0.689932 0.691396 0.054063
C65   C     C_R   0.304270 0.307214 0.981321 0.044998
C66   C     C_R   0.687271 0.688486 0.029616 0.050856
C67   C     C_R   0.676000 0.024508 0.413936 0.027455
C68   C     C_R   0.348805 0.943298 0.593282 0.012410
C69   C     C_R   0.078484 0.407952 0.648855 0.071240
C70   C     C_R   0.555346 0.028124 0.681404 0.027627
C71   C     C_R   0.971331 0.585165 0.339956 0.002998
C72   C     C_R   0.451655 0.703083 0.914913 0.011780
C73   C     C_R   0.589994 0.338612 0.958444 0.064492
C74   C     C_R   0.585703 0.993814 0.323721 0.009213
C75   C     C_R   0.432264 0.986324 0.679979 0.001676
C76   C     C_R   0.352307 0.602891 0.903735 0.016974
C77   C     C_R   0.696947 0.443018 0.939179 0.065995
C78   C     C_R   0.067123 0.311037 0.549275 0.026549
C79   C     C_R   0.948998 0.682371 0.454527 0.068403
C80   C     C_R   0.715458 0.023721 0.324914 -0.141093
C81   C     C_R   0.447092 0.983881 0.315165 0.015581
C82   C     C_R   0.313954 0.934850 0.684961 -0.149410
C83   C     C_R   0.112440 0.315732 0.668196 -0.097799
C84   C     C_R   0.941561 0.677985 0.315554 -0.170457
C85   C     C_R   0.368581 0.744344 0.897201 -0.136134
C86   C     C_R   0.679295 0.299933 0.958664 -0.119279
C87   C     C_R   0.670920 0.007740 0.280349 -0.149632
C88   C     C_R   0.352953 0.961166 0.726789 -0.177440
C89   C     C_R   0.320057 0.695351 0.891174 -0.135326
C90   C     C_R   0.733888 0.352769 0.943698 -0.117789
C91   C     C_R   0.107135 0.268087 0.619212 -0.141515
C92   C     C_R   0.702692 0.574648 0.963146 -0.047220
C93   C     C_R   0.926009 0.725861 0.374418 -0.098522
C94   C     C_R   0.552729 0.979260 0.415344 0.007381
C95   C     C_R   0.477624 0.973550 0.595080 0.012549
C96   C     C_R   0.035264 0.403573 0.527808 0.001632
C97   C     C_R   0.980582 0.589507 0.478065 -0.004642
C98   C     C_R   0.434763 0.561263 0.922376 0.008338
C99   C     C_R   0.607420 0.481102 0.940239 -0.007258
C100  C     C_R   0.598324 0.994981 0.461108 0.009897
C101  C     C_R   0.433991 0.954615 0.549952 0.011119
C102  C     C_R   0.484525 0.611348 0.926960 0.007866
Cu1   Cu    Cu3+1 0.995180 0.995180 0.424630 1.039322
Cu2   Cu    Cu3+1 0.004820 0.004820 0.575370 0.967004
Cu3   Cu    Cu3+1 0.995180 0.424630 0.995180 1.044331
Cu4   Cu    Cu3+1 0.004820 0.575370 0.004820 1.036987
Cu5   Cu    Cu3+1 0.424630 0.995180 0.995180 0.989919
Cu6   Cu    Cu3+1 0.575370 0.004820 0.004820 1.019005
H1    H     H_    0.319299 0.965329 0.794308 0.112768
H2    H     H_    0.338667 0.814175 0.891533 0.116379
H3    H     H_    0.929158 0.713294 0.251521 0.119306
H4    H     H_    0.143670 0.279648 0.721327 0.170556
H5    H     H_    0.255295 0.079640 0.199890 0.240612
H6    H     H_    0.247677 0.971938 0.227001 0.262655
H7    H     H_    0.754994 0.026970 0.774905 0.264052
H8    H     H_    0.688367 0.133555 0.752234 0.246249
H9    H     H_    0.860173 0.257562 0.344785 0.244784
H10   H     H_    0.866880 0.334532 0.252702 0.224819
H11   H     H_    0.021649 0.779883 0.756875 0.262907
H12   H     H_    0.699868 0.013493 0.209991 0.135930
H13   H     H_    0.127159 0.755880 0.685392 0.245165
H14   H     H_    0.254591 0.205289 0.076499 0.234157
H15   H     H_    0.247714 0.223445 0.970964 0.275361
H16   H     H_    0.737302 0.654301 0.133967 0.224810
H17   H     H_    0.650335 0.736529 0.135974 0.220115
H18   H     H_    0.344358 0.101596 0.758103 0.316128
H19   H     H_    0.565577 0.116904 0.196918 0.342038
H20   H     H_    0.864348 0.825734 0.562407 0.318946
H21   H     H_    0.086779 0.147326 0.570091 0.345815
H22   H     H_    0.852487 0.534665 0.859399 0.326555
H23   H     H_    0.901888 0.797291 0.354377 0.165578
H24   H     H_    0.247749 0.645108 0.813401 0.318853
H25   H     H_    0.215448 0.059783 0.604611 0.311954
H26   H     H_    0.749602 0.147790 0.348127 0.314760
H27   H     H_    0.483131 0.211459 0.097878 0.351430
H28   H     H_    0.464858 0.855420 0.831888 0.315810
H29   H     H_    0.064509 0.619466 0.188635 0.314671
H30   H     H_    0.169656 0.455224 0.752115 0.328777
H31   H     H_    0.135350 0.197464 0.637225 0.105316
H32   H     H_    0.802745 0.321860 0.943124 0.156333
H33   H     H_    0.255291 0.730236 0.880678 0.119111
H34   H     H_    0.249255 0.922029 0.720333 0.131070
H35   H     H_    0.778990 0.038773 0.288508 0.125193
H36   H     H_    0.706708 0.228951 0.970263 0.150078
N1    N     N_3   0.243349 0.022985 0.250725 -0.586639
N2    N     N_3   0.731645 0.080843 0.726064 -0.596312
N3    N     N_3   0.907557 0.281417 0.287789 -0.558873
N4    N     N_3   0.073864 0.730879 0.731359 -0.584688
N5    N     N_3   0.243545 0.252243 0.018023 -0.584283
N6    N     N_3   0.709267 0.712070 0.091419 -0.565418
O1    O     O_R   0.124540 0.978640 0.385460 -0.492366
O2    O     O_R   0.124540 0.385460 0.978640 -0.474047
O3    O     O_R   0.021360 0.875460 0.614540 -0.540485
O4    O     O_R   0.978640 0.124540 0.385460 -0.468901
O5    O     O_R   0.013780 0.867370 0.487190 -0.474482
O6    O     O_R   0.986220 0.132630 0.512810 -0.499008
O7    O     O_R   0.867370 0.487190 0.013780 -0.485230
O8    O     O_R   0.132630 0.512810 0.986220 -0.446494
O9    O     O_R   0.487190 0.013780 0.867370 -0.410158
O10   O     O_R   0.512810 0.986220 0.132630 -0.438621
O11   O     O_R   0.512810 0.132630 0.986220 -0.452858
O12   O     O_R   0.875460 0.021360 0.614540 -0.500534
O13   O     O_R   0.487190 0.867370 0.013780 -0.461360
O14   O     O_R   0.986220 0.512810 0.132630 -0.456323
O15   O     O_R   0.013780 0.487190 0.867370 -0.472262
O16   O     O_R   0.132630 0.986220 0.512810 -0.432321
O17   O     O_R   0.867370 0.013780 0.487190 -0.447297
O18   O     O_3   0.405681 0.091614 0.759157 -0.672037
O19   O     O_3   0.534055 0.077235 0.196925 -0.670946
O20   O     O_3   0.884627 0.813331 0.503976 -0.687497
O21   O     O_3   0.108956 0.177616 0.506692 -0.640421
O22   O     O_3   0.835591 0.477711 0.887011 -0.671679
O23   O     O_R   0.978640 0.385460 0.124540 -0.496156
O24   O     O_3   0.237845 0.588743 0.857322 -0.684628
O25   O     O_3   0.209769 0.024278 0.572318 -0.665609
O26   O     O_3   0.759290 0.119617 0.407677 -0.691702
O27   O     O_3   0.543157 0.214700 0.057287 -0.674985
O28   O     O_3   0.491930 0.839959 0.879995 -0.678029
O29   O     O_3   0.055166 0.561764 0.196744 -0.662061
O30   O     O_3   0.142281 0.412645 0.750991 -0.689993
O31   O     O_R   0.021360 0.614540 0.875460 -0.474509
O32   O     O_R   0.385460 0.124540 0.978640 -0.522346
O33   O     O_R   0.614540 0.875460 0.021360 -0.496471
O34   O     O_R   0.614540 0.021360 0.875460 -0.544587
O35   O     O_R   0.385460 0.978640 0.124540 -0.546125
O36   O     O_R   0.875460 0.614540 0.021360 -0.499816

loop_
_geom_bond_atom_site_label_1
_geom_bond_atom_site_label_2
_ccdc_geom_bond_type
C2    C44   A    
H15   N5    S    
Cu1   O17   S    
C47   O18   S    
C6    C45   A    
C14   O5    A    
C39   C65   A    
C74   C94   A    
C79   C93   A    
C82   H34   S    
H30   O30   S    
C50   C79   A    
C52   O22   S    
C72   C85   A    
C75   C95   A    
C47   C70   A    
H20   O20   S    
H7    N2    S    
C22   O33   A    
H26   O26   S    
C69   C83   A    
H10   N3    S    
C71   C84   A    
C80   C87   A    
H18   O18   S    
C27   O12   A    
Cu2   O12   S    
C57   O28   S    
C82   C88   A    
C58   C71   A    
C57   C59   A    
C54   C68   A    
C76   C98   A    
H28   O28   S    
C78   C91   A    
C55   C67   A    
C2    C32   A    
C49   C81   A    
C15   C35   A    
C61   N1    S    
C3    C12   A    
C20   O35   A    
C4    C96   A    
Cu4   O14   S    
Cu3   O7    S    
C78   C96   A    
C21   C39   S    
C16   O6    A    
C1    C28   A    
C24   C38   S    
Cu5   Cu6   S    
C77   C99   A    
C58   O29   S    
C10   C96   A    
Cu2   O3    S    
C36   C63   A    
C17   O7    A    
C8    C101  A    
C9    C95   A    
C12   C98   A    
Cu1   O1    S    
C25   C34   S    
C6    C31   A    
C28   C81   A    
C11   C31   A    
C33   C59   A    
C7    C30   A    
Cu3   O23   S    
C64   N4    S    
C32   C48   A    
C44   C65   A    
C42   C81   A    
C41   C62   A    
C18   O2    A    
C63   N3    S    
C4    C69   A    
C49   O19   S    
C79   C97   A    
C1    C34   A    
C15   C29   A    
C14   C45   S    
C38   C64   A    
C56   O27   S    
C21   O32   A    
C55   O26   S    
C77   C90   A    
C84   H3    S    
C21   O11   A    
C11   C97   A    
Cu6   O34   S    
Cu5   O32   S    
C86   H36   S    
C7    C46   A    
C8    C94   A    
C68   C101  A    
H27   O27   S    
C85   H2    S    
C86   C90   A    
C33   C92   A    
H22   O22   S    
C85   C89   A    
C27   C35   S    
H11   N4    S    
C98   C102  A    
C34   C61   A    
Cu2   O6    S    
C31   C37   A    
C15   C55   A    
C54   O25   S    
C13   C99   A    
C1    C54   A    
C17   C43   S    
Cu4   O31   S    
C13   C33   A    
C37   C38   A    
C18   O8    A    
C18   C44   S    
C7    C51   A    
C26   C58   A    
C10   C30   A    
Cu1   O4    S    
Cu5   O9    S    
H29   O29   S    
C94   C100  A    
C17   O36   A    
C80   H35   S    
C22   C40   S    
H13   N4    S    
C50   O20   S    
C20   O10   A    
H24   O24   S    
C6    C50   A    
C4    C11   A    
H25   O25   S    
C42   C61   A    
Cu4   O36   S    
C67   C100  A    
C91   H31   S    
C88   H1    S    
Cu1   O5    S    
Cu5   O13   S    
C23   O23   A    
C26   C30   A    
C9    C100  A    
H5    N1    S    
C14   O3    A    
C16   O4    A    
C74   C87   A    
C52   C92   A    
C53   C76   A    
H19   O19   S    
C16   C46   S    
C52   C77   A    
C29   C70   A    
Cu6   O11   S    
C26   C36   A    
C48   C56   A    
Cu3   O2    S    
H16   N6    S    
C56   C73   A    
Cu6   O33   S    
C24   O31   A    
C83   H4    S    
H21   O21   S    
C67   C80   A    
H6    N1    S    
C5    C97   A    
C47   C75   A    
C2    C53   A    
C19   O34   A    
C20   C42   S    
C66   N6    S    
Cu6   O10   S    
C9    C29   A    
C25   O16   A    
C60   O30   S    
C83   C91   A    
Cu3   Cu4   S    
Cu5   O35   S    
C45   C64   A    
C95   C101  A    
C43   C92   A    
H9    N3    S    
C46   C63   A    
C25   O1    A    
C19   O9    A    
C51   O21   S    
H14   N5    S    
C51   C78   A    
C68   C82   A    
C5    C10   A    
C5    C71   A    
Cu4   O8    S    
H8    N2    S    
C22   O13   A    
C23   O14   A    
C72   C102  A    
C60   C69   A    
C43   C66   A    
C89   H33   S    
C53   O24   S    
Cu3   O15   S    
C24   O15   A    
C35   C62   A    
C84   C93   A    
C57   C72   A    
C65   N5    S    
C3    C73   A    
C73   C86   A    
C37   C60   A    
H17   N6    S    
Cu2   O16   S    
C3    C99   A    
C75   C88   A    
C87   H12   S    
C8    C28   A    
C23   C36   S    
C62   N2    S    
Cu1   Cu2   S    
C40   C59   A    
C49   C74   A    
C41   C70   A    
C76   C89   A    
C40   C66   A    
C90   H32   S    
C13   C102  A    
C93   H23   S    
C12   C32   A    
C19   C41   S    
C27   O17   A    
C39   C48   A    
