data_mof_unit_16467.cif
_audit_creation_date              2012-12-11T19:47:16-0500
_audit_creation_method            fapswitch 2.2
_symmetry_space_group_name_H-M    P1
_symmetry_Int_Tables_number       1
_space_group_crystal_system       triclinic
_cell_length_a                    8.281724
_cell_length_b                    15.117416
_cell_length_c                    18.847758
_cell_angle_alpha                 102.813014
_cell_angle_beta                  91.182897
_cell_angle_gamma                 99.502648
_cell_volume                      2265.34845099

loop_
_atom_site_label
_atom_site_type_symbol
_atom_type_description
_atom_site_fract_x
_atom_site_fract_y
_atom_site_fract_z
_atom_type_partial_charge
Ba1   Ba    Ba6+2 0.853520 0.540910 0.466490 1.710382
Ba2   Ba    Ba6+2 0.336320 0.459170 0.533520 1.698551
C1    C     C_3   0.720055 0.878299 0.310306 -0.309891
C2    C     C_R   0.918856 0.394175 0.087604 -0.001162
C3    C     C_R   0.760240 0.424800 0.950831 -0.054763
C4    C     C_3   0.149618 0.731320 0.273593 0.290635
C5    C     C_R   0.927976 0.459392 0.976123 -0.017547
C6    C     C_R   0.709161 0.421013 0.878720 -0.114657
C7    C     C_R   0.814635 0.454806 0.830110 -0.045289
C8    C     C_R   0.975966 0.498475 0.855655 0.030057
C9    C     C_R   0.031971 0.502763 0.929448 0.040771
C10   C     C_R   0.760781 0.448368 0.757009 0.032694
C11   C     C_R   0.869333 0.482756 0.709278 -0.236740
C12   C     C_3   0.670810 0.783222 0.325757 0.369173
C13   C     C_R   0.026763 0.531210 0.733221 0.032581
C14   C     C_R   0.079872 0.539930 0.807998 -0.012825
C15   C     C_R   0.148522 0.508904 0.074704 0.031396
C16   C     C_3   0.171340 0.771133 0.205835 -0.280760
C17   C     C_R   0.204825 0.513445 0.148471 -0.021296
C18   C     C_R   0.107054 0.464798 0.193820 -0.057675
C19   C     C_R   0.967920 0.402269 0.160426 0.012568
C20   C     C_R   0.232773 0.589873 0.837170 -0.022457
C21   C     C_R   0.288160 0.594619 0.908350 -0.075534
C22   C     C_R   0.191279 0.551351 0.956163 0.038273
C23   C     C_3   0.589996 0.255906 0.298815 0.217280
C24   C     C_R   0.247510 0.556942 0.029768 0.026993
C25   C     C_R   0.401609 0.607970 0.060012 -0.061679
C26   C     C_R   0.361460 0.563875 0.175813 -0.062770
C27   C     C_R   0.457063 0.610625 0.130708 -0.042634
C28   C     C_3   0.324141 0.759056 0.683557 0.232590
C29   C     C_R   0.418263 0.566487 0.247583 0.002420
C30   C     C_R   0.309359 0.531563 0.295030 -0.188277
C31   C     C_R   0.156394 0.476942 0.269492 0.127243
C32   C     C_R   0.844990 0.175767 0.559594 0.000374
C33   C     C_R   0.780978 0.080927 0.549794 -0.055339
C34   C     C_3   0.605278 0.178508 0.232360 -0.353654
C35   C     C_R   0.648338 0.889951 0.529506 -0.042001
C36   C     C_R   0.800547 0.928613 0.567400 -0.040333
C37   C     C_R   0.865946 0.021722 0.577192 -0.081149
C38   C     C_R   0.580974 0.794599 0.519012 0.010550
C39   C     C_R   0.429824 0.760890 0.479345 -0.282918
C40   C     C_3   0.421316 0.801279 0.756998 -0.283622
C41   C     C_R   0.605240 0.195739 0.490441 0.000525
C42   C     C_R   0.540523 0.101669 0.480693 -0.034966
C43   C     C_R   0.627145 0.044079 0.511064 0.010102
C44   C     C_R   0.390862 0.063661 0.441201 -0.049890
C45   C     C_3   0.023170 0.279374 0.733903 0.357648
C46   C     C_R   0.325146 0.971852 0.432645 -0.105238
C47   C     C_R   0.408239 0.913078 0.461677 -0.012354
C48   C     C_R   0.561465 0.948800 0.500658 0.028359
C49   C     C_R   0.341342 0.819647 0.452552 0.054441
C50   C     C_R   0.749740 0.232634 0.534168 -0.271079
C51   C     C_3   0.990656 0.220299 0.320344 0.224432
C52   C     C_3   0.106007 0.154608 0.289186 -0.313395
C53   C     C_3   0.821519 0.738063 0.697034 0.232236
C54   C     C_3   0.910452 0.834920 0.735810 -0.348056
C55   C     C_1   0.010672 0.251996 0.397311 0.205278
C56   C     C_3   0.985063 0.242131 0.803025 -0.236176
C57   C     C_2   0.767485 0.682003 0.752517 0.780976
C58   C     C_2   0.524165 0.330597 0.272081 0.872512
C59   C     C_2   0.123378 0.271022 0.861807 0.904193
C60   C     C_2   0.932581 0.138780 0.785077 0.856227
C61   C     C_2   0.626950 0.401856 0.998755 0.859741
C62   C     C_2   0.009743 0.776352 0.170318 0.972473
C63   C     C_2   0.285984 0.834235 0.648341 0.794258
C64   C     C_3   0.512961 0.222977 0.681671 0.303470
C65   C     C_3   0.451026 0.128960 0.696689 -0.203479
C66   C     C_R   0.994949 0.454924 0.046202 0.044331
H1    H     H_    0.728963 0.783486 0.379393 0.071270
H2    H     H_    0.855591 0.896519 0.311075 0.159753
H3    H     H_    0.938314 0.878997 0.696778 0.149336
H4    H     H_    0.029482 0.833786 0.762946 0.113709
H5    H     H_    0.832863 0.868539 0.777243 0.107533
H6    H     H_    0.535658 0.769800 0.328069 -0.113687
H7    H     H_    0.674549 0.930570 0.352523 0.039653
H8    H     H_    0.710661 0.284947 0.327488 0.003443
H9    H     H_    0.489808 0.159000 0.197105 0.117965
H10   H     H_    0.707878 0.200749 0.199653 0.121873
H11   H     H_    0.627044 0.115701 0.249738 0.116357
H12   H     H_    0.461613 0.747592 0.780581 0.126576
H13   H     H_    0.666190 0.879414 0.256122 0.135581
H14   H     H_    0.237406 0.727823 0.165398 -0.003083
H15   H     H_    0.096417 0.349937 0.748849 0.056776
H16   H     H_    0.904584 0.285668 0.709062 -0.150651
H17   H     H_    0.880080 0.272928 0.826978 -0.020709
H18   H     H_    0.647826 0.231933 0.681023 -0.058559
H19   H     H_    0.460027 0.224186 0.627444 0.074398
H20   H     H_    0.509044 0.076292 0.660372 0.093024
H21   H     H_    0.316129 0.110477 0.686085 0.183194
H22   H     H_    0.066642 0.663450 0.260176 0.050160
H23   H     H_    0.531996 0.850722 0.750636 0.115696
H24   H     H_    0.482030 0.129116 0.754271 0.187301
H25   H     H_    0.826728 0.477060 0.653542 0.063197
H26   H     H_    0.582049 0.393791 0.861734 0.166828
H27   H     H_    0.896004 0.357221 0.189248 0.136975
H28   H     H_    0.313981 0.625298 0.805105 0.118932
H29   H     H_    0.576070 0.651016 0.149548 0.160361
H30   H     H_    0.351347 0.538450 0.351041 0.078168
H31   H     H_    0.820601 0.338301 0.064247 0.077324
H32   H     H_    0.409945 0.632870 0.923692 0.083067
H33   H     H_    0.272164 0.721264 0.291485 -0.072326
H34   H     H_    0.343791 0.838604 0.796380 0.114382
H35   H     H_    0.484230 0.647450 0.030715 0.094153
H36   H     H_    0.874185 0.887461 0.588446 0.136257
H37   H     H_    0.983786 0.046482 0.606810 0.129806
H38   H     H_    0.208257 0.948463 0.402384 0.103270
H39   H     H_    0.319513 0.104228 0.417420 0.119406
H40   H     H_    0.376085 0.689101 0.472849 0.059376
H41   H     H_    0.795218 0.305817 0.543367 0.078262
H42   H     H_    0.248245 0.840906 0.221637 0.094770
H43   H     H_    0.392872 0.715399 0.645112 0.035269
H44   H     H_    0.977553 0.722087 0.818188 0.269541
H45   H     H_    0.867485 0.178509 0.309677 -0.008726
H46   H     H_    0.346210 0.343124 0.344544 0.287165
H47   H     H_    0.981912 0.225153 0.936729 0.270697
H48   H     H_    0.749380 0.031103 0.779530 0.310493
H49   H     H_    0.532898 0.430148 0.097051 0.339015
H50   H     H_    0.943791 0.638195 0.137845 0.273009
H51   H     H_    0.147880 0.743018 0.567805 0.283390
H52   H     H_    0.052248 0.110783 0.235904 0.126325
H53   H     H_    0.124772 0.108415 0.325783 0.066976
H54   H     H_    0.223994 0.193322 0.278363 0.160022
H55   H     H_    0.901791 0.700792 0.660343 0.050145
N1    N     N_1   0.023895 0.283627 0.458267 -0.234664
O1    O     O_2   0.871960 0.437280 0.322960 -0.473461
O2    O     O_2   0.183907 0.178125 0.549106 -0.493972
O3    O     O_3   0.110093 0.222001 0.685488 -0.576806
O4    O     O_3   0.121410 0.444460 0.412450 -0.485508
O5    O     O_3   0.580430 0.613240 0.540320 -0.460124
O6    O     O_2   0.337390 0.273050 0.457610 -0.443681
O7    O     O_3   0.481597 0.216810 0.343931 -0.687630
O8    O     O_2   0.427133 0.462525 0.755408 -0.429387
O9    O     O_3   0.465609 0.291628 0.736295 -0.548081
O10   O     O_3   0.661450 0.607570 0.372550 -0.487287
O11   O     O_2   0.750052 0.542627 0.241374 -0.421569
O12   O     O_3   0.680412 0.748452 0.659364 -0.661415
O13   O     O_3   0.003138 0.292926 0.283971 -0.641919
O14   O     O_3   0.723955 0.717152 0.270636 -0.580908
O15   O     O_2   0.852310 0.726980 0.542430 -0.465809
O16   O     O_3   0.084010 0.657370 0.410280 -0.494163
O17   O     O_2   0.005611 0.819957 0.462105 -0.449750
O18   O     O_2   0.636565 0.629347 0.741319 -0.565519
O19   O     O_R   0.862039 0.687095 0.816187 -0.750417
O20   O     O_2   0.589115 0.360641 0.222723 -0.597532
O21   O     O_R   0.388254 0.365144 0.300652 -0.789409
O22   O     O_2   0.257673 0.309899 0.849777 -0.518254
O23   O     O_3   0.083508 0.792744 0.327559 -0.607082
O24   O     O_R   0.098454 0.255091 0.931373 -0.695209
O25   O     O_2   0.031387 0.088311 0.763747 -0.591560
O26   O     O_R   0.770796 0.100906 0.794025 -0.763990
O27   O     O_2   0.516725 0.336163 0.976286 -0.538135
O28   O     O_R   0.625415 0.455967 0.069053 -0.744427
O29   O     O_2   0.973596 0.851446 0.170416 -0.578701
O30   O     O_R   0.901681 0.696674 0.135432 -0.710421
O31   O     O_2   0.344001 0.915079 0.673708 -0.605598
O32   O     O_R   0.178397 0.812017 0.587124 -0.728475
O33   O     O_2   0.317750 0.562750 0.677090 -0.424890
O34   O     O_3   0.068300 0.555620 0.587560 -0.495806
O35   O     O_3   0.528270 0.392500 0.627460 -0.480197
O36   O     O_3   0.173896 0.709653 0.696617 -0.710879
O37   O     O_3   0.609290 0.386840 0.459690 -0.473630
O38   O     O_3   0.105700 0.342700 0.589730 -0.448568
P1    P     P_3+3 0.039430 0.410940 0.333230 1.006188
P2    P     P_3+3 0.676770 0.715000 0.563590 0.984780
P3    P     P_3+3 0.129738 0.773568 0.413374 0.978421
P4    P     P_3+3 0.150290 0.589140 0.666780 0.956057
P5    P     P_3+3 0.059863 0.227677 0.596072 0.986787
P6    P     P_3+3 0.637156 0.607355 0.281058 1.021588
P7    P     P_3+3 0.519983 0.268795 0.437066 0.909315
P8    P     P_3+3 0.546832 0.399570 0.720401 1.043129

loop_
_geom_bond_atom_site_label_1
_geom_bond_atom_site_label_2
_ccdc_geom_bond_type
C56   C60   S    
C53   C54   S    
C40   H12   S    
H51   O32   S    
C4    O23   S    
C39   H40   S    
C52   H52   S    
C25   C27   A    
C53   C57   S    
Ba1   Ba2   S    
C33   C37   A    
C17   C18   A    
Ba1   O4    S    
C41   C42   A    
C16   C62   S    
Ba2   O38   S    
H48   O26   S    
C41   P7    S    
C51   C52   S    
C5    C9    A    
C10   C11   A    
C65   H20   S    
O13   P1    S    
C51   O13   S    
C15   C24   A    
C12   H6    S    
H44   O19   S    
C26   C27   A    
C60   O25   D    
C59   O24   S    
Ba1   O1    S    
C38   P2    S    
C63   O32   S    
Ba1   O5    S    
C34   H9    S    
C36   C37   A    
C41   C50   A    
O6    P7    D    
C13   C14   A    
C62   O30   S    
C9    C22   A    
C65   H21   S    
Ba2   O5    S    
C3    C61   S    
O14   P6    S    
C32   C33   A    
C4    H33   S    
C36   H36   S    
O23   P3    S    
C16   H14   S    
C5    C66   A    
C23   O7    S    
C46   H38   S    
C12   O14   S    
C57   O18   D    
C42   C44   A    
C6    C7    A    
C47   C49   A    
C1    H13   S    
O35   P8    S    
C21   C22   A    
C13   P4    S    
H50   O30   S    
C23   C58   S    
C45   H15   S    
C1    H7    S    
C7    C8    A    
Ba2   P4    S    
Ba1   O15   S    
O37   P7    S    
C56   C59   S    
O7    P7    S    
C64   C65   S    
C52   H54   S    
C57   O19   S    
O1    P1    D    
O8    P8    D    
C40   H34   S    
Ba2   O37   S    
C51   H45   S    
C44   C46   A    
C4    C16   S    
C53   H55   S    
C1    H2    S    
C6    H26   S    
Ba1   P2    S    
O2    P5    D    
C64   H19   S    
C3    C5    A    
C51   C55   S    
Ba2   O35   S    
C10   P8    S    
C19   H27   S    
C54   H4    S    
C4    H22   S    
H47   O24   S    
O4    P1    S    
O5    P2    S    
C11   H25   S    
C28   O36   S    
C59   O22   D    
C35   C36   A    
C64   O9    S    
C29   C30   A    
Ba2   O34   S    
C54   H3    S    
C44   H39   S    
C24   C25   A    
C45   H16   S    
C29   P6    S    
C2    C19   A    
C17   C26   A    
Ba1   O16   S    
C61   O27   D    
C1    C12   S    
C18   C31   A    
C38   C39   A    
C52   H53   S    
C53   O12   S    
O11   P6    D    
O36   P4    S    
C11   C13   A    
O9    P8    S    
C12   H1    S    
O10   P6    S    
C49   P3    S    
C58   O21   S    
C32   P5    S    
C33   C43   A    
C56   H17   S    
Ba1   O10   S    
Ba2   O6    S    
C42   C43   A    
O34   P4    S    
C2    C66   A    
O12   P2    S    
O16   P3    S    
C37   H37   S    
O15   P2    D    
C15   C66   A    
C14   C20   A    
C54   H5    S    
C60   O26   S    
C31   P1    S    
C20   H28   S    
C26   C29   A    
C16   H42   S    
H46   O21   S    
C22   C24   A    
C34   H11   S    
O33   P4    D    
C64   H18   S    
C3    C6    A    
C45   O3    S    
C50   H41   S    
C35   C38   A    
C32   C50   A    
C27   H29   S    
C28   H43   S    
C23   H8    S    
O17   P3    D    
C63   O31   D    
C8    C14   A    
C30   C31   A    
C55   N1    T    
C35   C48   A    
Ba1   O34   S    
C43   C48   A    
Ba2   O33   S    
C46   C47   A    
C62   O29   D    
C25   H35   S    
C65   H24   S    
C15   C17   A    
C30   H30   S    
C21   H32   S    
H49   O28   S    
C7    C10   A    
C61   O28   S    
C28   C63   S    
C8    C9    A    
C23   C34   S    
Ba1   O37   S    
O38   P5    S    
C18   C19   A    
Ba1   P1    S    
O3    P5    S    
C47   C48   A    
C2    H31   S    
C20   C21   A    
C28   C40   S    
C34   H10   S    
C39   C49   A    
C58   O20   D    
C40   H23   S    
C45   C56   S    
Ba2   O4    S    
