data_mof_unit_14783.cif
_audit_creation_date              2013-03-05T16:06:22-0500
_audit_creation_method            fapswitch 2.2
_symmetry_space_group_name_H-M    P1
_symmetry_Int_Tables_number       1
_space_group_crystal_system       triclinic
_cell_length_a                    10.828075
_cell_length_b                    9.505161
_cell_length_c                    27.832465
_cell_angle_alpha                 90.001214
_cell_angle_beta                  90.209813
_cell_angle_gamma                 90.001242
_cell_volume                      2864.57034835

loop_
_atom_site_label
_atom_site_type_symbol
_atom_site_description
_atom_site_fract_x
_atom_site_fract_y
_atom_site_fract_z
_atom_type_partial_charge
O1    O     O_R   0.319640 0.618740 0.500000 -0.593697
O2    O     O_R   0.680360 0.381260 0.500000 -0.593202
O3    O     O_R   0.680360 0.618740 0.500000 -0.593691
O4    O     O_R   0.319640 0.381260 0.500000 -0.593249
C1    C     C_R   0.262024 0.500002 0.499963 0.796401
C2    C     C_R   0.737976 0.500004 0.500039 0.796422
O5    O     O_R   0.500020 0.618770 0.430260 -0.574372
O6    O     O_R   0.499980 0.381230 0.569740 -0.576642
O7    O     O_R   0.499980 0.618770 0.569740 -0.574354
O8    O     O_R   0.500020 0.381230 0.430260 -0.576677
C3    C     C_R   0.499453 0.499977 0.407257 0.821612
C4    C     C_R   0.500561 0.499977 0.592738 0.821588
Cu1   Cu    Cu3+1 0.500000 0.640660 0.500000 0.967612
Cu2   Cu    Cu3+1 0.500000 0.359340 0.500000 0.958702
C5    C     C_R   0.392683 0.441801 0.178700 0.600337
C6    C     C_R   0.606766 0.441160 0.821282 0.600600
O9    O     O_2   0.288566 0.437307 0.205091 -0.495840
O10   O     O_2   0.710855 0.435956 0.794889 -0.495766
N1    N     N_R   0.503376 0.458816 0.201763 -0.449604
N2    N     N_R   0.496152 0.458841 0.798217 -0.449581
C7    C     C_R   0.612195 0.461482 0.177276 0.605278
C8    C     C_R   0.387346 0.462138 0.822706 0.604828
C9    C     C_R   0.537964 0.360606 0.281568 -0.137121
C10   C     C_R   0.460594 0.361075 0.718403 -0.137015
C11   C     C_R   0.535450 0.371140 0.331286 -0.194334
C12   C     C_R   0.463240 0.371582 0.668685 -0.194454
C13   C     C_R   0.467968 0.614989 0.325068 -0.177890
C14   C     C_R   0.533046 0.614579 0.674917 -0.177989
C15   C     C_R   0.469784 0.603528 0.274407 0.345129
C16   C     C_R   0.531029 0.603170 0.725577 0.345153
C17   C     C_R   0.505229 0.475315 0.253023 0.243545
C18   C     C_R   0.494387 0.475385 0.746957 0.243498
C19   C     C_R   0.499861 0.437235 0.101964 -0.044588
C20   C     C_R   0.499571 0.437234 0.898017 -0.044609
C21   C     C_R   0.387696 0.430227 0.127943 -0.064806
C22   C     C_R   0.611708 0.429626 0.872039 -0.064739
C23   C     C_R   0.275859 0.411986 0.102174 -0.020482
C24   C     C_R   0.723477 0.410859 0.897810 -0.020525
C25   C     C_R   0.612588 0.451125 0.127102 -0.021173
C26   C     C_R   0.386903 0.451734 0.872880 -0.021187
C27   C     C_R   0.500769 0.497276 0.353917 -0.139640
C28   C     C_R   0.499144 0.497282 0.646068 -0.139356
C29   C     C_R   0.385904 0.434624 0.974522 0.052434
C30   C     C_R   0.613513 0.434046 0.025459 0.052462
C31   C     C_R   0.613021 0.424655 0.974459 0.038617
C32   C     C_R   0.386358 0.425232 0.025523 0.038606
C33   C     C_R   0.499555 0.431660 0.949137 0.075569
C34   C     C_R   0.499852 0.431661 0.050844 0.075571
C35   C     C_R   0.275289 0.450662 0.947941 -0.193931
C36   C     C_R   0.724191 0.449521 0.052040 -0.193895
C37   C     C_R   0.276062 0.458699 0.898222 -0.121507
C38   C     C_R   0.723451 0.457537 0.101759 -0.121523
O11   O     O_2   0.279955 0.477516 0.798473 -0.504227
O12   O     O_2   0.719655 0.476193 0.201512 -0.504072
C39   C     C_R   0.276511 0.409343 0.052100 -0.231203
C40   C     C_R   0.722807 0.408221 0.947883 -0.231221
H1    H     H_    0.436301 0.280296 0.647835 0.183417
H2    H     H_    0.561530 0.279510 0.352120 0.183803
H3    H     H_    0.433320 0.262802 0.734962 0.176698
H4    H     H_    0.564314 0.262016 0.265002 0.176893
H5    H     H_    0.188715 0.472150 0.879687 0.202804
H6    H     H_    0.810846 0.470546 0.120294 0.202941
H7    H     H_    0.186173 0.462553 0.964525 0.141528
H8    H     H_    0.813353 0.460974 0.035458 0.141476
H9    H     H_    0.188845 0.391106 0.034653 0.133705
H10   H     H_    0.810404 0.389565 0.965330 0.133757
C41   C     C_R   0.063861 0.372140 0.499972 -0.167746
C42   C     C_R   0.936138 0.627884 0.500036 -0.165908
C43   C     C_R   0.936134 0.372140 0.500027 -0.167665
C44   C     C_R   0.063867 0.627884 0.499973 -0.165951
H11   H     H_    0.111918 0.272181 0.499948 0.148294
H12   H     H_    0.888077 0.727842 0.500067 0.148285
H13   H     H_    0.888074 0.272181 0.500048 0.148321
H14   H     H_    0.111930 0.727841 0.499946 0.148257
C45   C     C_R   0.871792 0.500011 0.500047 -0.019587
C46   C     C_R   0.128208 0.500009 0.499956 -0.019585
C47   C     C_R   0.408432 0.074426 0.477248 -0.009654
C48   C     C_R   0.591977 0.925604 0.522476 0.003100
C49   C     C_R   0.591576 0.074433 0.522747 -0.009644
C50   C     C_R   0.408036 0.925596 0.477514 0.003456
H15   H     H_    0.335329 0.130382 0.458823 0.129215
H16   H     H_    0.665812 0.869640 0.540422 0.134343
H17   H     H_    0.664692 0.130392 0.541164 0.129339
H18   H     H_    0.334239 0.869626 0.459541 0.133970
N3    N     N_R   0.500000 0.852070 0.500000 -0.167196
N4    N     N_R   0.500000 0.147930 0.500000 -0.167695
C51   C     C_1   0.433943 0.748178 0.346418 0.386636
N5    N     N_1   0.406738 0.855258 0.363094 -0.275925
C52   C     C_1   0.568569 0.747241 0.653560 0.386372
N6    N     N_1   0.596997 0.853903 0.636881 -0.275924
N7    N     N_R   0.435614 0.721046 0.244558 0.125375
O13   O     O_R   0.333979 0.789968 0.252673 -0.313666
O14   O     O_R   0.503027 0.755661 0.207806 -0.338112
N8    N     N_R   0.566203 0.720297 0.755431 0.125486
O15   O     O_R   0.668510 0.787969 0.747363 -0.313084
O16   O     O_R   0.499029 0.755711 0.792161 -0.338249
C53   C     C_1   0.157285 0.394722 0.125258 0.357462
N9    N     N_1   0.062208 0.380762 0.143524 -0.221503
C54   C     C_1   0.842009 0.393120 0.874733 0.357637
N10   N     N_1   0.937058 0.378787 0.856477 -0.221281

loop_
_geom_bond_atom_site_label_1
_geom_bond_atom_site_label_2
_geom_bond_distance
_ccdc_geom_bond_type
C16   C18   1.410162 A    
C51   N5    1.157208 T    
C35   H7    1.077135 S    
C13   C15   1.414428 A    
C36   H8    1.077130 S    
C37   H5    1.083249 S    
C50   H18   1.081122 S    
O3    C2    1.289571 A    
N1    C17   1.435335 S    
C23   C53   1.447142 S    
C53   N9    1.157489 T    
C2    C45   1.448975 S    
C42   C45   1.400979 A    
O5    C3    1.298006 A    
C19   C25   1.410875 A    
C20   C26   1.410885 A    
C24   C54   1.447171 S    
C21   C23   1.415824 A    
C10   C12   1.387779 A    
C7    O12   1.350098 S    
C14   C28   1.421375 A    
C48   H16   1.081089 S    
O7    Cu1   1.952161 S    
C5    N1    1.367184 A    
C31   C40   1.411069 A    
C35   C37   1.385984 A    
C32   C39   1.411080 A    
C44   H14   1.083306 S    
C36   C38   1.385960 A    
C43   H13   1.083303 S    
C14   C52   1.446734 S    
C20   C22   1.417320 A    
O3    Cu1   1.964039 S    
C6    N2    1.367218 A    
C16   N8    1.439643 S    
C25   C38   1.395871 A    
Cu1   Cu2   2.673992 S    
O2    C2    1.289608 A    
C5    C21   1.417790 A    
C39   H9    1.078676 S    
C8    O11   1.350095 S    
C31   C33   1.415733 A    
C9    H4    1.083123 S    
C32   C34   1.415733 A    
C4    C28   1.484671 S    
Cu2   N4    2.009487 S    
O8    Cu2   1.952161 S    
C11   C27   1.406041 A    
N7    O13   1.301213 A    
C48   C49   1.414669 A    
C29   C35   1.413752 A    
C42   H12   1.083306 S    
C41   C43   1.383036 A    
C9    C17   1.394155 A    
C12   H1    1.083252 S    
N8    O16   1.301114 A    
C10   C18   1.394231 A    
C50   N3    1.366447 A    
N7    O14   1.301108 A    
C13   C27   1.421521 A    
C54   N10   1.157502 T    
C7    C25   1.399957 A    
C47   H15   1.081426 S    
O6    C4    1.297559 A    
C8    C26   1.399977 A    
C13   C51   1.446763 S    
C48   N3    1.366430 A    
C6    O10   1.348496 S    
N2    C8    1.363622 A    
C47   N4    1.366593 A    
C44   C46   1.400989 A    
O1    C1    1.289561 A    
O1    Cu1   1.964030 S    
C11   H2    1.083222 S    
C15   N7    1.439661 S    
C30   C31   1.422251 A    
C12   C28   1.405965 A    
N2    C18   1.435404 S    
C47   C50   1.414680 A    
C30   C36   1.413749 A    
C5    O9    1.348494 S    
O6    Cu2   1.952153 S    
N1    C7    1.363600 A    
O7    C4    1.297971 A    
O4    C1    1.289619 A    
C41   C46   1.400958 A    
C26   C37   1.395906 A    
C1    C46   1.448977 S    
C22   C24   1.415847 A    
C15   C17   1.410112 A    
C38   H6    1.083207 S    
C6    C22   1.417766 A    
C49   H17   1.081425 S    
C10   H3    1.083135 S    
C40   H10   1.078671 S    
C14   C16   1.414396 A    
C19   C21   1.417308 A    
C43   C45   1.400966 A    
C41   H11   1.083304 S    
C9    C11   1.387759 A    
O4    Cu2   1.964039 S    
N8    O15   1.301221 A    
O2    Cu2   1.964030 S    
C29   C32   1.422267 A    
O8    C3    1.297657 A    
C23   C39   1.393958 A    
O5    Cu1   1.952153 S    
C24   C40   1.393935 A    
C42   C44   1.383067 A    
C3    C27   1.484926 S    
Cu1   N3    2.009486 S    
C19   C34   1.423789 A    
C20   C33   1.423789 A    
C52   N6    1.157222 T    
C29   C33   1.421541 A    
C49   N4    1.366589 A    
C30   C34   1.421533 A    
