data_mof_unit_52093.cif
_audit_creation_date              2012-12-11T15:42:48-0500
_audit_creation_method            fapswitch 2.2
_symmetry_space_group_name_H-M    P1
_symmetry_Int_Tables_number       1
_space_group_crystal_system       triclinic
_cell_length_a                    6.928987
_cell_length_b                    14.552708
_cell_length_c                    16.191798
_cell_angle_alpha                 90.44606
_cell_angle_beta                  90.017727
_cell_angle_gamma                 90.065791
_cell_volume                      1632.65780697

loop_
_atom_site_label
_atom_site_type_symbol
_atom_type_description
_atom_site_fract_x
_atom_site_fract_y
_atom_site_fract_z
_atom_type_partial_charge
O1    O     O_R   0.505810 0.583360 0.413880 -0.541123
O2    O     O_R   0.175870 0.595480 0.585520 -0.530998
O3    O     O_R   0.005540 0.416640 0.586120 -0.544059
C1    C     C_R   0.344904 0.614895 0.616594 0.684302
O4    O     O_R   0.176100 0.594390 0.414490 -0.543861
O5    O     O_R   0.005770 0.415540 0.413870 -0.552196
C2    C     C_R   0.345222 0.616494 0.385736 0.688218
O6    O     O_R   0.505580 0.584460 0.586130 -0.544240
O7    O     O_3   0.339190 0.441320 0.500000 -0.373766
V1    V     V_3+5 0.064350 0.510890 0.500000 1.430954
O8    O     O_R   0.676050 0.404520 0.414480 -0.528972
C3    C     C_R   0.845793 0.379351 0.387978 0.667033
O9    O     O_R   0.675830 0.405610 0.585510 -0.545230
C4    C     C_R   0.845057 0.383690 0.613748 0.741864
V2    V     V_3+5 0.564340 0.489110 0.500000 1.437325
O10   O     O_3   0.839370 0.558680 0.500000 -0.367244
C5    C     C_2   0.720387 0.209062 0.786154 -0.111941
C6    C     C_2   0.885814 0.181625 0.822405 -0.298950
H1    H     H_    0.584221 0.180641 0.807275 0.133710
H2    H     H_    0.023702 0.209309 0.803377 0.124976
C7    C     C_2   0.708000 0.277581 0.718260 -0.127297
C8    C     C_2   0.861611 0.315513 0.680553 -0.290604
H3    H     H_    0.563840 0.296784 0.698532 0.131695
C9    C     C_R   0.032760 0.189322 0.243418 -0.134532
H4    H     H_    0.157008 0.144831 0.235984 0.155757
C10   C     C_R   0.021915 0.249055 0.312262 -0.013151
C11   C     C_R   0.858287 0.307491 0.321774 -0.128523
C12   C     C_R   0.706057 0.299235 0.264618 -0.077393
H5    H     H_    0.579244 0.342291 0.270295 0.132644
C13   C     C_R   0.715869 0.236688 0.198675 -0.126428
H6    H     H_    0.595548 0.232180 0.156103 0.122954
C14   C     C_R   0.880493 0.182135 0.186648 -0.095507
C15   C     C_R   0.221273 0.752381 0.692689 -0.082028
H7    H     H_    0.110618 0.757087 0.645574 0.160394
C16   C     C_R   0.231159 0.820376 0.754966 0.003073
C17   C     C_R   0.378759 0.815733 0.815822 -0.162828
C18   C     C_R   0.514379 0.744328 0.810646 -0.084446
H8    H     H_    0.625037 0.739626 0.857760 0.158790
C19   C     C_R   0.504452 0.676315 0.748380 0.004619
C20   C     C_R   0.356904 0.680987 0.687507 -0.163317
C21   C     C_R   0.188440 0.723525 0.284033 -0.149489
H9    H     H_    0.047594 0.705398 0.307877 0.117329
C22   C     C_R   0.199687 0.786639 0.219290 -0.142864
H10   H     H_    0.066936 0.815317 0.195458 0.118984
C23   C     C_R   0.379378 0.812434 0.185950 -0.046477
C24   C     C_R   0.547506 0.773331 0.219305 -0.148043
C25   C     C_R   0.536259 0.710215 0.284052 -0.145220
H11   H     H_    0.669004 0.681540 0.307892 0.118449
C26   C     C_R   0.356561 0.684403 0.317377 -0.048032
O11   O     O_R   0.230120 0.912300 0.917180 -0.544209
O12   O     O_R   0.559740 0.902430 0.088770 -0.543986
O13   O     O_R   0.729930 0.081310 0.089370 -0.538552
C27   C     C_R   0.390655 0.880312 0.117564 0.693182
O14   O     O_R   0.559840 0.901330 0.917750 -0.531223
O15   O     O_R   0.730030 0.080210 0.917120 -0.536936
C28   C     C_R   0.390792 0.881865 0.886710 0.683612
O16   O     O_R   0.230020 0.913400 0.089430 -0.541102
O17   O     O_3   0.396460 0.055470 0.003290 -0.373589
V3    V     V_3+5 0.671360 0.985960 0.003250 1.440187
O18   O     O_R   0.059740 0.091300 0.917690 -0.551489
C29   C     C_R   0.891035 0.113177 0.889405 0.746092
O19   O     O_R   0.059640 0.092400 0.088720 -0.544933
C30   C     C_R   0.890664 0.114771 0.117375 0.692043
V4    V     V_3+5 0.171350 0.007820 0.003190 1.414636
O20   O     O_3   0.896380 0.938200 0.003220 -0.368249
C31   C     C_2   0.092877 0.898268 0.751646 0.381458
H12   H     H_    0.125659 0.963189 0.781732 0.043891
O21   O     O_2   0.940904 0.891303 0.713849 -0.530921
C32   C     C_2   0.642594 0.598364 0.751730 0.374700
H13   H     H_    0.609761 0.533459 0.721619 0.045422
O22   O     O_2   0.794494 0.605257 0.789588 -0.533757
H14   H     H_    0.688347 0.791465 0.195461 0.116657
H15   H     H_    0.006931 0.297086 0.698454 0.128386
C33   C     C_2   0.176403 0.243855 0.375795 0.365719
H16   H     H_    0.151455 0.268254 0.438268 0.066566
O23   O     O_2   0.333008 0.209750 0.359652 -0.537915

loop_
_geom_bond_atom_site_label_1
_geom_bond_atom_site_label_2
_ccdc_geom_bond_type
C31   O21   D    
O15   V3    S    
O11   V4    S    
C21   H9    S    
C16   C17   A    
C1    O6    A    
C25   C26   A    
C23   C24   A    
C10   C11   A    
O19   C30   A    
C33   O23   D    
C17   C18   A    
C9    C10   A    
O5    C3    A    
C13   H6    S    
V2    O10   S    
C32   O22   D    
C10   C33   S    
O19   V4    S    
C5    H1    S    
O8    V2    S    
C1    C20   S    
O1    V2    S    
O7    V1    S    
C24   H14   S    
C31   H12   S    
C23   C27   S    
O9    C4    A    
C21   C22   A    
C21   C26   A    
C15   H7    S    
O14   V3    S    
C7    H3    S    
O17   V4    S    
O14   C28   A    
C15   C20   A    
C33   H16   S    
C3    C11   S    
C9    H4    S    
C2    C26   S    
C19   C20   A    
O4    C2    A    
C27   O16   A    
C16   C31   S    
O17   V3    S    
O11   C28   A    
O18   C29   A    
O12   C27   A    
O2    C1    A    
C22   H10   S    
C9    C14   A    
C18   H8    S    
C17   C28   S    
O13   V3    S    
C25   H11   S    
C5    C6    D    
C19   C32   S    
C22   C23   A    
O3    C4    A    
O6    V2    S    
O9    V2    S    
O12   V3    S    
O2    V1    S    
O16   V4    S    
C24   C25   A    
C12   H5    S    
O1    C2    A    
C14   C30   S    
O13   C30   A    
O5    V1    S    
O8    C3    A    
C6    C29   S    
O18   V4    S    
V4    O20   S    
C4    C8    S    
C12   C13   A    
O7    V2    S    
O4    V1    S    
C18   C19   A    
O3    V1    S    
V1    O10   S    
V3    O20   S    
C13   C14   A    
O15   C29   A    
C15   C16   A    
C6    H2    S    
C32   H13   S    
C5    C7    S    
C11   C12   A    
C8    H15   S    
C7    C8    D    
