data_mof_unit_36971.cif
_audit_creation_date              2012-12-10T16:58:23-0500
_audit_creation_method            fapswitch 2.2
_symmetry_space_group_name_H-M    P1
_symmetry_Int_Tables_number       1
_space_group_crystal_system       triclinic
_cell_length_a                    7.82546
_cell_length_b                    8.71428
_cell_length_c                    22.66279
_cell_angle_alpha                 91.276086
_cell_angle_beta                  84.590301
_cell_angle_gamma                 93.25844
_cell_volume                      1535.85614796

loop_
_atom_site_label
_atom_site_type_symbol
_atom_type_description
_atom_site_fract_x
_atom_site_fract_y
_atom_site_fract_z
_atom_type_partial_charge
C1    C     C_R   0.545112 0.793928 0.498797 0.923062
C2    C     C_R   0.414881 0.435066 0.285200 -0.070322
C3    C     C_R   0.591180 0.633791 0.764034 -0.002835
C4    C     C_R   0.459596 0.438245 0.223085 -0.033549
C5    C     C_R   0.587293 0.488860 0.791097 0.050811
C6    C     C_R   0.624271 0.500830 0.201099 0.155757
C7    C     C_2   0.568688 0.955196 0.492109 -0.033341
C8    C     C_2   0.436246 0.045486 0.512037 -0.033051
C9    C     C_R   0.499867 0.498689 0.611201 0.832833
C10   C     C_R   0.501577 0.502136 0.388205 0.824761
C11   C     C_R   0.687856 0.338151 0.114294 0.516812
C12   C     C_R   0.455656 0.206113 0.502471 0.945474
C13   C     C_R   0.799888 0.572445 0.861883 0.486644
C14   C     C_R   0.733591 0.608837 0.105949 0.540741
C15   C     C_R   0.687722 0.319852 0.865592 0.567600
C16   C     C_R   0.797703 0.591507 0.046286 -0.066121
C17   C     C_R   0.703754 0.309631 0.926850 -0.113447
C18   C     C_R   0.757463 0.450302 0.017933 -0.062721
C19   C     C_R   0.763789 0.444179 0.955945 -0.059107
C20   C     C_R   0.701605 0.319200 0.051823 -0.026259
C21   C     C_R   0.830486 0.573090 0.922367 -0.028429
C22   C     C_R   0.892239 0.710844 0.013696 -0.037475
C23   C     C_R   0.467033 0.376886 0.770388 0.221846
C24   C     C_R   0.653702 0.175101 0.959903 -0.012776
C25   C     C_R   0.916077 0.698323 0.951001 0.049356
C26   C     C_R   0.653483 0.178865 0.022550 0.047520
C27   C     C_2   0.974174 0.843897 0.044693 0.485096
C28   C     C_2   0.585221 0.034278 0.930614 0.504204
C29   C     C_3   0.034610 0.814036 0.915541 -0.742068
C30   C     C_3   0.583832 0.039356 0.058201 -0.700696
C31   C     C_3   0.344630 0.285122 0.813814 -0.650319
C32   C     C_3   0.919529 0.618483 0.220177 -0.584989
C33   C     C_2   0.332919 0.250383 0.683040 0.430909
C34   C     C_R   0.731877 0.578792 0.239880 0.210335
C35   C     C_2   0.740692 0.736987 0.334795 0.465844
C36   C     C_2   0.629503 0.775926 0.667382 0.552384
C37   C     C_2   0.268597 0.335703 0.311124 0.509890
C38   C     C_2   0.562265 0.772705 0.802515 0.595134
C39   C     C_2   0.342623 0.371073 0.180000 0.514822
C40   C     C_3   0.739013 0.011048 0.458037 -0.842667
C41   C     C_3   0.273199 0.990902 0.550107 -0.822470
C42   C     C_3   0.019290 0.397498 0.428652 -0.433951
C43   C     C_3   0.980221 0.603244 0.571570 -0.439999
C44   C     C_R   0.434917 0.378336 0.710092 -0.032453
C45   C     C_R   0.665178 0.609868 0.298448 -0.037496
C46   C     C_R   0.502562 0.504410 0.675450 -0.268519
C47   C     C_R   0.519071 0.521268 0.323008 -0.268321
C48   C     C_R   0.573403 0.637148 0.702832 -0.075858
H1    H     H_    0.973274 0.958844 0.027294 0.060699
H2    H     H_    0.355019 0.324945 0.860258 0.204337
H3    H     H_    0.209922 0.301494 0.804660 0.211298
H4    H     H_    0.967181 0.549047 0.181064 0.210668
H5    H     H_    0.939271 0.742208 0.209478 0.301785
H6    H     H_    0.000898 0.592002 0.255767 0.249940
H7    H     H_    0.263434 0.271143 0.645175 0.070738
H8    H     H_    0.670606 0.771082 0.375884 0.059526
H9    H     H_    0.570947 0.798117 0.627151 0.005225
H10   H     H_    0.287160 0.261220 0.347397 0.032731
H11   H     H_    0.554961 0.762900 0.850267 0.026074
H12   H     H_    0.654310 0.929843 0.930050 0.030442
H13   H     H_    0.333614 0.429309 0.138650 0.029350
H14   H     H_    0.819943 0.917094 0.440516 0.254340
H15   H     H_    0.714283 0.078445 0.418975 0.251473
H16   H     H_    0.820714 0.078833 0.487806 0.265221
H17   H     H_    0.202953 0.087165 0.571673 0.241991
H18   H     H_    0.181537 0.928129 0.522395 0.258484
H19   H     H_    0.305576 0.918336 0.586725 0.255460
H20   H     H_    0.916647 0.326826 0.408751 0.202232
H21   H     H_    0.059428 0.493253 0.398053 0.211035
H22   H     H_    0.121658 0.319204 0.434664 0.196746
H23   H     H_    0.122858 0.882354 0.942588 0.226559
H24   H     H_    0.082755 0.674536 0.591283 0.192099
H25   H     H_    0.876979 0.681162 0.565994 0.208357
H26   H     H_    0.940106 0.508553 0.602691 0.198220
H27   H     H_    0.120961 0.752834 0.882378 0.275290
H28   H     H_    0.958371 0.895067 0.893212 0.263154
H29   H     H_    0.685282 0.000859 0.084223 0.299628
H30   H     H_    0.469458 0.069479 0.088084 0.289134
H31   H     H_    0.543004 0.937929 0.031746 0.195937
H32   H     H_    0.367389 0.160895 0.809931 0.340936
N1    N     N_R   0.683497 0.482361 0.139101 -0.360636
N2    N     N_R   0.689117 0.461472 0.840725 -0.329873
N3    N     N_2   0.950330 0.457950 0.484560 -0.024289
N4    N     N_2   0.049670 0.542050 0.515440 -0.019627
O1    O     O_R   0.389250 0.738570 0.503790 -0.613260
O2    O     O_2   0.878102 0.678834 0.824841 -0.548477
O3    O     O_2   0.715642 0.750119 0.130276 -0.535427
O4    O     O_2   0.677367 0.192694 0.830985 -0.476763
O5    O     O_2   0.047931 0.825306 0.088923 -0.528311
O6    O     O_2   0.446516 0.032538 0.910046 -0.575044
O7    O     O_2   0.328301 0.119904 0.701849 -0.519138
O8    O     O_2   0.874782 0.809035 0.318937 -0.566292
O9    O     O_2   0.746361 0.863744 0.681637 -0.497828
O10   O     O_2   0.126330 0.338445 0.293374 -0.548925
O11   O     O_2   0.535475 0.896573 0.782148 -0.459916
O12   O     O_R   0.610750 0.261430 0.496210 -0.612209
O13   O     O_2   0.264617 0.246932 0.188167 -0.480144
O14   O     O_R   0.678390 0.711620 0.493890 -0.639924
O15   O     O_R   0.321610 0.288380 0.506110 -0.638630
O16   O     O_R   0.355400 0.513520 0.588790 -0.624888
O17   O     O_R   0.644600 0.486480 0.411210 -0.609296
O18   O     O_R   0.644550 0.486570 0.578900 -0.618035
O19   O     O_R   0.355450 0.513430 0.421100 -0.625523
O20   O     O_2   0.674850 0.216395 0.150383 -0.503059
Zn1   Zn    Zn3+2 0.306930 0.518000 0.506610 0.936764
Zn2   Zn    Zn3+2 0.693070 0.482000 0.493390 0.947048

loop_
_geom_bond_atom_site_label_1
_geom_bond_atom_site_label_2
_ccdc_geom_bond_type
C43   H25   S    
C33   H7    S    
C43   H24   S    
C31   H32   S    
C41   H19   S    
C29   H28   S    
C11   N1    A    
O16   Zn1   S    
C40   H15   S    
C10   O19   A    
C19   C21   A    
C24   C26   A    
C14   O3    S    
C33   O7    D    
C39   O13   D    
C3    C48   A    
C42   H22   S    
C40   H14   S    
C18   C19   A    
C32   H4    S    
C12   O15   A    
C21   C25   A    
C30   H29   S    
C36   O9    D    
C3    C38   S    
C9    O18   A    
C22   C25   A    
C38   O11   D    
C7    C40   S    
C36   C48   S    
C11   O20   S    
C37   H10   S    
C35   O8    D    
C43   H26   S    
C28   H12   S    
C9    C46   S    
C6    N1    S    
C42   H20   S    
C43   N4    S    
O1    Zn1   S    
C32   H6    S    
C44   C46   A    
C15   N2    A    
C45   C47   A    
C25   C29   S    
C39   H13   S    
C46   C48   A    
C11   C20   A    
C17   C24   A    
C7    C8    D    
C8    C41   S    
C4    C6    A    
C36   H9    S    
C41   H17   S    
C13   N2    A    
C42   H21   S    
C23   C44   A    
C6    C34   A    
C32   C34   S    
C13   O2    S    
C2    C4    A    
N3    N4    D    
C5    C23   A    
C4    C39   S    
C8    C12   S    
N4    Zn1   S    
C13   C21   A    
O19   Zn1   S    
C34   C45   A    
C30   H31   S    
C26   C30   S    
C9    O16   A    
C22   C27   S    
C14   C16   A    
C1    O1    A    
C31   H2    S    
C35   C45   S    
C32   H5    S    
O17   Zn2   S    
C15   C17   A    
O12   Zn2   S    
C16   C22   A    
C35   H8    S    
C1    C7    S    
C33   C44   S    
C10   O17   A    
C42   N3    S    
C24   C28   S    
C31   H3    S    
C3    C5    A    
O14   Zn2   S    
C1    O14   A    
C41   H18   S    
C29   H27   S    
C2    C47   A    
C40   H16   S    
N3    Zn2   S    
C5    N2    S    
C2    C37   S    
C20   C26   A    
C17   C19   A    
C37   O10   D    
C27   O5    D    
C18   C20   A    
O15   Zn1   S    
C38   H11   S    
C30   H30   S    
C16   C18   A    
O18   Zn2   S    
C10   C47   S    
C12   O12   A    
C28   O6    D    
C14   N1    A    
C27   H1    S    
C23   C31   S    
C15   O4    S    
C29   H23   S    
