data_mof_unit_7596.cif
_audit_creation_date              2012-12-10T18:21:17-0500
_audit_creation_method            fapswitch 2.2
_symmetry_space_group_name_H-M    P1
_symmetry_Int_Tables_number       1
_space_group_crystal_system       triclinic
_cell_length_a                    9.443361
_cell_length_b                    10.667513
_cell_length_c                    17.33528
_cell_angle_alpha                 90.598914
_cell_angle_beta                  85.48128
_cell_angle_gamma                 87.762114
_cell_volume                      1739.39082139

loop_
_atom_site_label
_atom_site_type_symbol
_atom_type_description
_atom_site_fract_x
_atom_site_fract_y
_atom_site_fract_z
_atom_type_partial_charge
C1    C     C_R   0.498229 0.740249 0.498499 0.770208
C2    C     C_R   0.501690 0.259365 0.500574 0.782416
C3    C     C_3   0.373296 0.964759 0.476213 -0.247086
C4    C     C_3   0.626520 0.033513 0.521077 -0.219347
C5    C     C_3   0.480880 0.043832 0.427622 -0.200936
C6    C     C_3   0.518209 0.954729 0.569806 -0.214791
C7    C     C_3   0.502887 0.122193 0.500541 -0.027683
C8    C     C_3   0.496249 0.876777 0.497221 -0.048744
C9    C     C_3   0.395715 0.044252 0.548631 0.238340
C10   C     C_3   0.603216 0.953694 0.448753 0.233981
C11   C     C_3   0.960294 0.394809 0.475112 0.285216
C12   C     C_3   0.039868 0.605417 0.524939 0.283269
C13   C     C_3   0.048735 0.413157 0.544212 -0.102617
C14   C     C_3   0.951187 0.587188 0.455867 -0.100045
C15   C     C_3   0.061900 0.481353 0.430721 -0.075203
C16   C     C_3   0.938083 0.518956 0.569273 -0.075646
C17   C     C_R   0.481580 0.494058 0.649662 0.798386
C18   C     C_R   0.518368 0.511393 0.350730 0.800598
C19   C     C_R   0.477204 0.478742 0.734140 -0.140230
C20   C     C_R   0.522839 0.540753 0.267550 -0.140978
C21   C     C_R   0.584276 0.399870 0.765491 0.064228
C22   C     C_R   0.409918 0.616989 0.240263 0.107425
C23   C     C_R   0.614911 0.419487 0.843664 0.181652
C24   C     C_R   0.378696 0.605053 0.161894 0.184198
C25   C     C_R   0.524352 0.502201 0.890888 0.080611
C26   C     C_R   0.477213 0.538235 0.109825 0.072538
C27   C     C_R   0.407320 0.563646 0.861765 -0.237258
C28   C     C_R   0.602773 0.485507 0.135425 -0.231096
C29   C     C_R   0.383692 0.555805 0.783786 0.120127
C30   C     C_R   0.626877 0.484242 0.213543 0.118895
C31   C     C_2   0.551757 0.529076 0.971397 -0.205269
C32   C     C_2   0.449278 0.518697 0.028412 -0.222030
Cu1   Cu    Cu3+1 0.356850 0.500010 0.499980 0.913308
Cu2   Cu    Cu3+1 0.643150 0.499990 0.500020 0.910397
N1    N     N_3   0.141720 0.500030 0.499940 -0.184791
N2    N     N_3   0.858280 0.499970 0.500060 -0.183746
O1    O     O_R   0.379130 0.683150 0.499960 -0.608048
O2    O     O_R   0.620870 0.316850 0.500040 -0.607105
O3    O     O_R   0.620910 0.683140 0.500000 -0.580794
O4    O     O_R   0.379090 0.316860 0.500000 -0.572088
O5    O     O_R   0.365090 0.500030 0.613580 -0.583112
O6    O     O_R   0.634910 0.499970 0.386420 -0.586384
O7    O     O_R   0.606870 0.500020 0.613610 -0.589001
O8    O     O_R   0.393130 0.499980 0.386390 -0.590460
C33   C     C_3   0.665482 0.297047 0.714990 -0.360942
C34   C     C_3   0.650735 0.164919 0.747829 -0.871143
H1    H     H_    0.740927 0.138678 0.782340 0.255323
H2    H     H_    0.549269 0.157722 0.784091 0.259234
H3    H     H_    0.652921 0.094918 0.699818 0.238433
H4    H     H_    0.625235 0.290794 0.656961 0.212862
H5    H     H_    0.779374 0.319120 0.705013 0.182011
C35   C     C_3   0.329873 0.717111 0.292464 -0.397889
C36   C     C_3   0.375055 0.848734 0.269754 -0.893344
H6    H     H_    0.487380 0.859959 0.281943 0.259482
H7    H     H_    0.365849 0.867253 0.207548 0.251902
H8    H     H_    0.307464 0.919813 0.304248 0.246062
H9    H     H_    0.213222 0.709460 0.291240 0.202011
H10   H     H_    0.351540 0.708882 0.353780 0.227104
C37   C     C_3   0.918605 0.267174 0.446418 -0.390210
C38   C     C_3   0.047508 0.191613 0.408980 -0.926931
H11   H     H_    0.081251 0.231148 0.351749 0.254980
H12   H     H_    0.137915 0.193090 0.446041 0.271245
H13   H     H_    0.020562 0.092384 0.400635 0.253763
H14   H     H_    0.872588 0.214968 0.496565 0.205295
H15   H     H_    0.838575 0.280735 0.403650 0.232817
C39   C     C_3   0.083073 0.732696 0.553830 -0.395264
C40   C     C_3   0.955955 0.809053 0.592220 -0.917443
H16   H     H_    0.868137 0.815662 0.553381 0.269258
H17   H     H_    0.916999 0.764859 0.647174 0.253944
H18   H     H_    0.987863 0.905388 0.605504 0.241561
H19   H     H_    0.163659 0.718650 0.596174 0.239049
H20   H     H_    0.128703 0.785099 0.503693 0.203929
H21   H     H_    0.117447 0.465561 0.372388 0.130138
H22   H     H_    0.882442 0.534507 0.627594 0.125974
C41   C     C_3   0.761379 0.416202 0.235316 -0.382497
C42   C     C_3   0.734851 0.279419 0.253372 -0.854839
H23   H     H_    0.837625 0.230657 0.263200 0.245852
H24   H     H_    0.660273 0.271828 0.305753 0.251748
H25   H     H_    0.689664 0.232697 0.203823 0.254368
H26   H     H_    0.844562 0.418256 0.186258 0.193507
H27   H     H_    0.808956 0.463618 0.283593 0.218814
C43   C     C_3   0.265255 0.639837 0.756077 -0.385175
C44   C     C_3   0.322646 0.761764 0.723306 -0.847032
H28   H     H_    0.390782 0.743040 0.669103 0.247964
H29   H     H_    0.232680 0.826264 0.710593 0.239741
H30   H     H_    0.385487 0.808799 0.765919 0.249457
H31   H     H_    0.204673 0.590618 0.713597 0.214380
H32   H     H_    0.185585 0.664816 0.805070 0.186415
H33   H     H_    0.343468 0.493818 0.014879 0.166057
H34   H     H_    0.657721 0.554184 0.984276 0.150234
H35   H     H_    0.339661 0.626519 0.899482 0.147160
H36   H     H_    0.678797 0.436220 0.094709 0.148625
C45   C     C_3   0.237928 0.656454 0.134907 -0.408552
C46   C     C_3   0.121326 0.562711 0.150753 -0.887445
H37   H     H_    0.150292 0.472515 0.119870 0.251744
H38   H     H_    0.104504 0.544850 0.213761 0.246260
H39   H     H_    0.020120 0.601096 0.130272 0.242372
H40   H     H_    0.202394 0.746811 0.163211 0.213897
H41   H     H_    0.247473 0.678230 0.072315 0.193655
C47   C     C_3   0.745667 0.358063 0.876507 -0.384309
C48   C     C_3   0.706958 0.255279 0.934597 -0.829429
H42   H     H_    0.651322 0.295329 0.988372 0.254202
H43   H     H_    0.636993 0.186788 0.910023 0.255449
H44   H     H_    0.805451 0.204686 0.950175 0.231888
H45   H     H_    0.822983 0.318104 0.830750 0.200781
H46   H     H_    0.806211 0.430115 0.904928 0.173066
H47   H     H_    0.465666 0.083183 0.369692 0.140288
H48   H     H_    0.533954 0.917194 0.628076 0.137472
H49   H     H_    0.269844 0.937640 0.456581 0.140113
H50   H     H_    0.730233 0.060202 0.540559 0.136613
C49   C     C_3   0.268128 0.086851 0.603528 -0.421204
C50   C     C_3   0.311398 0.154152 0.675159 -0.837311
H51   H     H_    0.371272 0.087505 0.710321 0.251480
H52   H     H_    0.377187 0.234814 0.658718 0.257872
H53   H     H_    0.214850 0.189621 0.710639 0.236091
H54   H     H_    0.196559 0.148832 0.572187 0.204524
H55   H     H_    0.208550 0.003281 0.621864 0.201114
C51   C     C_3   0.721240 0.895112 0.392539 -0.398875
C52   C     C_3   0.769616 0.985990 0.329894 -0.897771
H56   H     H_    0.685053 0.002914 0.289822 0.255693
H57   H     H_    0.794127 0.075991 0.356890 0.270812
H58   H     H_    0.866380 0.946586 0.296240 0.250465
H59   H     H_    0.813079 0.867359 0.425501 0.201847
H60   H     H_    0.682972 0.809951 0.364652 0.201170
H61   H     H_    0.093118 0.342621 0.582991 0.123537
H62   H     H_    0.906242 0.659197 0.418101 0.113191

loop_
_geom_bond_atom_site_label_1
_geom_bond_atom_site_label_2
_ccdc_geom_bond_type
C25   C31   S    
C26   C32   S    
C45   C46   S    
C27   C29   A    
C1    C8    S    
C49   C50   S    
Cu2   O6    S    
C42   H25   S    
C6    C9    S    
C50   H52   S    
C20   C30   A    
C36   H6    S    
C34   H3    S    
C47   H45   S    
C48   H42   S    
C44   H28   S    
C10   C51   S    
C22   C24   A    
C11   N2    S    
C19   C21   A    
C42   H24   S    
C13   N1    S    
C18   O6    A    
C14   N2    S    
C36   H8    S    
C33   H5    S    
C43   H31   S    
C38   H12   S    
C51   C52   S    
C2    C7    S    
C17   C19   S    
C11   C15   S    
C39   H20   S    
C12   C16   S    
C27   H35   S    
C49   H54   S    
C41   H26   S    
C45   H41   S    
Cu2   N2    S    
C1    O1    A    
C13   H61   S    
C52   H57   S    
C39   C40   S    
C37   C38   S    
C48   H43   S    
C4    C7    S    
C11   C37   S    
C15   N1    S    
C50   H51   S    
C21   C33   S    
C36   H7    S    
C34   H2    S    
Cu1   O4    S    
C40   H16   S    
C42   H23   S    
C4    C6    S    
C3    C8    S    
C5    C7    S    
C41   H27   S    
C6    C8    S    
C46   H39   S    
C33   C34   S    
C12   C39   S    
Cu1   O1    S    
Cu2   O3    S    
C38   H11   S    
C40   H17   S    
C41   C42   S    
C17   O7    A    
C3    C9    S    
C18   O8    A    
C2    O2    A    
C39   H19   S    
C31   H34   S    
Cu1   Cu2   S    
C37   H14   S    
C28   H36   S    
C51   H60   S    
C9    C49   S    
C12   N1    S    
C46   H38   S    
C35   H10   S    
C44   H29   S    
C12   C14   S    
C48   H44   S    
C21   C23   A    
C32   H33   S    
C16   H22   S    
C20   C22   A    
C4    C10   S    
C19   C29   A    
C35   C36   S    
C22   C35   S    
C5    H47   S    
C52   H58   S    
C7    C9    S    
C4    H50   S    
C34   H1    S    
C15   H21   S    
Cu2   O2    S    
Cu1   O8    S    
C26   C28   A    
C31   C32   D    
Cu2   O7    S    
C24   C26   A    
C3    C5    S    
C52   H56   S    
C25   C27   A    
C47   H46   S    
C14   H62   S    
C49   H55   S    
C40   H18   S    
Cu1   O5    S    
C28   C30   A    
C29   C43   S    
C24   C45   S    
C16   N2    S    
C30   C41   S    
C11   C13   S    
C33   H4    S    
C3    H49   S    
C43   H32   S    
C47   C48   S    
Cu1   N1    S    
C23   C47   S    
C18   C20   S    
C51   H59   S    
C23   C25   A    
C46   H37   S    
C17   O5    A    
C38   H13   S    
C35   H9    S    
C1    O3    A    
C2    O4    A    
C5    C10   S    
C44   H30   S    
C8    C10   S    
C43   C44   S    
C13   C16   S    
C6    H48   S    
C14   C15   S    
C45   H40   S    
C50   H53   S    
C37   H15   S    
