data_mof_unit_8883.cif
_audit_creation_date              2013-03-05T15:56:02-0500
_audit_creation_method            fapswitch 2.2
_symmetry_space_group_name_H-M    P1
_symmetry_Int_Tables_number       1
_space_group_crystal_system       triclinic
_cell_length_a                    12.342264
_cell_length_b                    13.210896
_cell_length_c                    17.256739
_cell_angle_alpha                 106.01084
_cell_angle_beta                  74.333288
_cell_angle_gamma                 116.994534
_cell_volume                      2375.22585654

loop_
_atom_site_label
_atom_site_type_symbol
_atom_site_description
_atom_site_fract_x
_atom_site_fract_y
_atom_site_fract_z
_atom_type_partial_charge
O1    O     O_R   0.025490 0.682370 0.523640 -0.553227
O2    O     O_R   0.194150 0.640180 0.491890 -0.605434
C1    C     C_R   0.144234 0.713690 0.507347 0.807812
O3    O     O_R   0.905900 0.523560 0.631310 -0.594980
O4    O     O_R   0.074570 0.481370 0.599560 -0.572223
C2    C     C_R   0.985238 0.500983 0.652064 0.799903
Cu1   Cu    Cu3+1 0.900140 0.524980 0.518800 0.997100
Cu2   Cu    Cu3+1 0.099860 0.475020 0.481200 0.989986
O5    O     O_R   0.805850 0.359820 0.508110 -0.589313
O6    O     O_R   0.974510 0.317630 0.476360 -0.536883
O7    O     O_R   0.925430 0.518630 0.400440 -0.557739
O8    O     O_R   0.094100 0.476440 0.368690 -0.604594
C3    C     C_R   0.856054 0.285627 0.487281 0.823331
C4    C     C_R   0.015022 0.499409 0.347922 0.839789
C5    C     C_R   0.970344 0.492725 0.737092 -0.055030
C6    C     C_R   0.016323 0.424929 0.755947 -0.094117
C7    C     C_R   0.002171 0.416223 0.836551 -0.128651
C8    C     C_R   0.943505 0.476628 0.899921 0.167719
C9    C     C_R   0.894226 0.543508 0.881276 0.197044
C10   C     C_R   0.907235 0.549632 0.799440 -0.171442
C11   C     C_R   0.991151 0.561813 0.154520 -0.231260
C12   C     C_R   0.988589 0.571924 0.237437 0.311071
C13   C     C_R   0.071959 0.426319 0.202506 -0.224226
C14   C     C_R   0.076657 0.417769 0.119338 0.201276
C15   C     C_R   0.033832 0.485140 0.095489 0.106064
C16   C     C_2   0.937685 0.470835 0.984666 -0.227912
C17   C     C_2   0.036379 0.480516 0.009357 -0.183391
C18   C     C_R   0.026124 0.500748 0.261710 -0.183813
H1    H     H_    0.062884 0.378196 0.708310 0.171365
H2    H     H_    0.101318 0.372019 0.221195 0.175280
H3    H     H_    0.121227 0.488441 0.966439 0.192272
H4    H     H_    0.963537 0.617116 0.135550 0.188931
H5    H     H_    0.870861 0.601582 0.784646 0.150447
H6    H     H_    0.853521 0.462987 0.028326 0.173638
H7    H     H_    0.037763 0.362335 0.849471 0.151882
C19   C     C_R   0.732722 0.964844 0.403242 -0.167340
H8    H     H_    0.767501 0.903181 0.363473 0.239097
C20   C     C_R   0.775106 0.161896 0.472778 -0.179736
C21   C     C_R   0.180700 0.914247 0.573472 -0.209128
C22   C     C_R   0.262370 0.021591 0.606406 -0.173539
C23   C     C_R   0.389574 0.053420 0.584289 0.327091
C24   C     C_R   0.436054 0.984545 0.516151 -0.018787
C25   C     C_R   0.351190 0.876385 0.481504 -0.025427
C26   C     C_R   0.563263 0.016975 0.482362 0.054209
C27   C     C_R   0.605252 0.934985 0.427363 -0.041985
C28   C     C_R   0.518884 0.828708 0.393417 0.311942
C29   C     C_R   0.394203 0.806419 0.414888 -0.237131
C30   C     C_R   0.648600 0.131181 0.496868 -0.182233
C31   C     C_R   0.818167 0.075943 0.428986 0.318491
C32   C     C_R   0.225074 0.837454 0.516644 -0.050567
H9    H     H_    0.616251 0.198556 0.523687 0.198528
H10   H     H_    0.083511 0.887035 0.599145 0.178101
H11   H     H_    0.226210 0.074551 0.656276 0.187798
H12   H     H_    0.330474 0.729215 0.382250 0.203506
C33   C     C_R   0.600884 0.598741 0.658418 -0.188374
H13   H     H_    0.788277 0.646830 0.666369 0.120504
H14   H     H_    0.582126 0.638201 0.721475 0.186830
N1    N     N_R   0.749710 0.562810 0.547300 -0.188017
C34   C     C_R   0.256249 0.364648 0.381188 0.130944
C35   C     C_R   0.350348 0.326433 0.355186 -0.186725
C36   C     C_R   0.442551 0.363347 0.402063 0.213382
C37   C     C_R   0.443865 0.446873 0.474955 -0.023502
C38   C     C_R   0.340944 0.479385 0.501589 0.174992
C39   C     C_R   0.539831 0.498889 0.524771 -0.064331
C40   C     C_R   0.509786 0.543883 0.608340 0.017527
C41   C     C_R   0.392295 0.544204 0.637855 0.263111
C42   C     C_R   0.334199 0.549674 0.580588 0.079698
C43   C     C_R   0.664300 0.511885 0.495883 0.122508
C44   C     C_R   0.720188 0.607832 0.626521 0.085920
N2    N     N_R   0.249640 0.437820 0.453210 -0.194183
H15   H     H_    0.694755 0.482398 0.432861 0.149161
H16   H     H_    0.184664 0.331443 0.344615 0.152078
H17   H     H_    0.348119 0.263418 0.299306 0.164168
C45   C     C_3   0.123247 0.333028 0.059489 -0.805203
H18   H     H_    0.115849 0.325516 0.995417 0.232774
H19   H     H_    0.221546 0.359958 0.062457 0.247456
H20   H     H_    0.068736 0.245880 0.075998 0.236968
N3    N     N_R   0.947074 0.100460 0.406276 0.127133
O9    O     O_R   0.012376 0.129158 0.462937 -0.328709
O10   O     O_R   0.991992 0.069889 0.330720 -0.355609
N4    N     N_R   0.555390 0.742912 0.336523 0.119197
O11   O     O_R   0.504520 0.689387 0.271495 -0.341751
O12   O     O_R   0.617649 0.701029 0.358242 -0.331612
N5    N     N_R   0.466213 0.144640 0.639185 0.098658
O13   O     O_R   0.541901 0.127134 0.668365 -0.339700
O14   O     O_R   0.446334 0.237563 0.670302 -0.345283
N6    N     N_R   0.953654 0.658293 0.295146 0.136991
O15   O     O_R   0.868132 0.681784 0.283703 -0.302245
O16   O     O_R   0.020634 0.726561 0.350814 -0.334156
N7    N     N_R   0.348444 0.568520 0.724395 0.118771
O17   O     O_R   0.363992 0.519897 0.774208 -0.349139
O18   O     O_R   0.275879 0.622294 0.752023 -0.367843
C46   C     C_3   0.522903 0.297328 0.378221 -0.847790
H21   H     H_    0.605663 0.338218 0.333605 0.235276
H22   H     H_    0.549221 0.290510 0.432580 0.226220
H23   H     H_    0.472076 0.206962 0.348711 0.245528
C47   C     C_3   0.346510 0.670723 0.588217 -0.655086
H24   H     H_    0.258107 0.677969 0.617559 0.248958
H25   H     H_    0.385125 0.698484 0.528170 0.227438
H26   H     H_    0.415078 0.735393 0.627517 0.215464
C48   C     C_3   0.832214 0.613183 0.945407 -0.815901
H27   H     H_    0.836946 0.614476 0.008807 0.238447
H28   H     H_    0.877676 0.704271 0.936081 0.238697
H29   H     H_    0.733717 0.577720 0.939357 0.246795

loop_
_geom_bond_atom_site_label_1
_geom_bond_atom_site_label_2
_geom_bond_distance
_ccdc_geom_bond_type
N6    O15   1.301231 A    
C48   H27   1.106354 S    
C23   C24   1.434913 A    
C9    C10   1.398383 A    
C8    C16   1.466193 S    
C47   H24   1.107127 S    
Cu1   Cu2   2.703652 S    
C41   N7    1.443268 S    
C20   C31   1.414410 A    
C27   C28   1.405557 A    
Cu1   O7    1.965000 S    
C16   C17   1.338106 D    
C46   H21   1.109839 S    
C45   H19   1.110316 S    
C39   C43   1.425539 A    
C19   H8    1.081110 S    
N5    O14   1.301602 A    
O4    C2    1.301539 A    
O7    C4    1.302031 A    
C36   C46   1.510091 S    
C33   C40   1.405613 A    
C5    C6    1.397131 A    
C35   H17   1.083674 S    
C31   N3    1.433615 S    
C8    C9    1.415795 A    
O5    C3    1.307888 A    
C37   C39   1.448897 A    
N4    O12   1.301159 A    
C2    C5    1.457079 S    
C16   H6    1.086309 S    
C30   H9    1.077705 S    
C6    C7    1.384671 A    
C45   H20   1.110653 S    
C13   C14   1.395545 A    
Cu1   N1    2.037741 S    
C20   C30   1.393795 A    
C34   H16   1.080713 S    
C41   C42   1.401833 A    
C34   C35   1.389583 A    
C48   H28   1.110804 S    
C12   C18   1.411298 A    
C11   C12   1.392908 A    
C24   C26   1.421726 A    
O3    Cu1   1.967459 S    
C47   H25   1.104364 S    
C1    C32   1.468120 S    
N4    O11   1.301239 A    
C5    C10   1.400819 A    
C11   H4    1.084135 S    
C38   C42   1.427670 A    
C45   H18   1.107464 S    
C17   H3    1.086511 S    
C13   H2    1.084708 S    
C14   C15   1.409796 A    
O3    C2    1.299833 A    
C21   C22   1.384639 A    
N3    O9    1.301209 A    
C6    H1    1.083597 S    
C12   N6    1.437874 S    
C23   N5    1.436590 S    
C35   C36   1.401077 A    
O1    C1    1.299727 A    
C37   C38   1.442370 A    
C28   N4    1.436129 S    
N7    O18   1.301632 A    
C38   N2    1.400680 A    
Cu2   O8    1.967459 S    
C7    C8    1.404447 A    
C19   C27   1.406245 A    
N1    C44   1.354492 A    
C13   C18   1.403319 A    
N5    O13   1.301589 A    
C3    C20   1.469528 S    
C33   C44   1.387007 A    
C29   H12   1.081788 S    
C10   H5    1.084438 S    
N1    C43   1.372295 A    
C22   C23   1.397480 A    
O8    C4    1.300322 A    
C40   C41   1.402762 A    
C46   H23   1.111464 S    
N6    O16   1.301445 A    
C24   C25   1.415823 A    
C47   H26   1.113576 S    
C26   C27   1.421084 A    
Cu1   O5    1.933360 S    
C11   C15   1.402353 A    
C28   C29   1.390305 A    
O1    Cu1   1.943590 S    
O2    Cu2   1.933359 S    
O6    C3    1.298365 A    
O4    Cu2   1.964999 S    
C22   H11   1.083138 S    
C25   C32   1.410889 A    
C15   C17   1.463006 S    
Cu2   N2    2.025779 S    
C39   C40   1.417388 A    
C33   H14   1.081671 S    
O2    C1    1.305862 A    
C9    C48   1.509280 S    
C14   C45   1.508780 S    
N7    O17   1.301518 A    
C46   H22   1.109628 S    
C43   H15   1.074349 S    
C21   H10   1.083398 S    
N3    O10   1.301089 A    
C36   C37   1.424502 A    
C42   C47   1.507253 S    
C34   N2    1.356424 A    
C21   C32   1.398708 A    
Cu2   O6    1.943592 S    
H13   C44   1.080805 S    
C48   H29   1.110312 S    
C7    H7    1.083430 S    
C4    C18   1.461061 S    
C25   C29   1.409758 A    
C19   C31   1.397109 A    
C26   C30   1.392766 A    
