data_mof_unit_57197.cif
_audit_creation_date              2012-12-10T18:43:04-0500
_audit_creation_method            fapswitch 2.2
_symmetry_space_group_name_H-M    P1
_symmetry_Int_Tables_number       1
_space_group_crystal_system       triclinic
_cell_length_a                    8.733932
_cell_length_b                    19.435638
_cell_length_c                    18.164099
_cell_angle_alpha                 90.192581
_cell_angle_beta                  97.957383
_cell_angle_gamma                 90.160804
_cell_volume                      3053.62495977

loop_
_atom_site_label
_atom_site_type_symbol
_atom_type_description
_atom_site_fract_x
_atom_site_fract_y
_atom_site_fract_z
_atom_type_partial_charge
C1    C     C_R   0.499926 0.367486 0.499862 0.812262
C2    C     C_R   0.500074 0.632514 0.500138 0.812260
C3    C     C_R   0.380393 0.964891 0.527784 -0.117923
C4    C     C_R   0.619603 0.035109 0.472216 -0.117921
C5    C     C_R   0.381578 0.036529 0.527039 -0.203793
C6    C     C_R   0.618419 0.963471 0.472961 -0.203793
C7    C     C_R   0.500802 0.071981 0.498930 0.146319
C8    C     C_R   0.499195 0.928020 0.501071 0.146316
C9    C     C_R   0.400341 0.458244 0.714184 0.081356
C10   C     C_R   0.599659 0.541756 0.285816 0.081358
C11   C     C_R   0.398444 0.457451 0.791363 -0.285009
C12   C     C_R   0.601556 0.542549 0.208637 -0.285010
C13   C     C_R   0.499840 0.500094 0.838425 0.111197
C14   C     C_R   0.500160 0.499906 0.161575 0.111198
C15   C     C_R   0.601196 0.542756 0.805157 -0.284525
C16   C     C_R   0.398804 0.457244 0.194843 -0.284527
C17   C     C_R   0.599413 0.541896 0.727721 0.082952
C18   C     C_R   0.400586 0.458104 0.272279 0.082951
C19   C     C_R   0.525591 0.561106 0.963277 -0.177780
C20   C     C_R   0.474409 0.438894 0.036723 -0.177780
C21   C     C_R   0.525682 0.561055 0.040646 -0.176492
C22   C     C_R   0.474318 0.438945 0.959354 -0.176492
C23   C     C_R   0.203559 0.499981 0.481014 0.889399
C24   C     C_R   0.796441 0.500019 0.518986 0.889400
C25   C     C_R   0.500093 0.499949 0.078722 0.118716
C26   C     C_R   0.499907 0.500051 0.921278 0.118716
C27   C     C_2   0.037831 0.500025 0.470496 -0.372814
C28   C     C_2   0.962169 0.499975 0.529504 -0.372814
C29   C     C_R   0.505733 0.744831 0.434876 -0.189714
C30   C     C_R   0.494274 0.255169 0.565125 -0.189716
C31   C     C_R   0.506555 0.816383 0.435690 -0.252288
C32   C     C_R   0.493451 0.183617 0.564311 -0.252294
C33   C     C_R   0.498440 0.852445 0.501971 0.017126
C34   C     C_R   0.501557 0.147555 0.498029 0.017130
C35   C     C_R   0.488611 0.816419 0.568300 0.465483
C36   C     C_R   0.511377 0.183580 0.431700 0.465490
C37   C     C_R   0.492563 0.744141 0.567315 -0.298584
C38   C     C_R   0.507426 0.255858 0.432685 -0.298592
C39   C     C_R   0.499138 0.708135 0.500675 -0.081298
C40   C     C_R   0.500860 0.291865 0.499325 -0.081296
Cu1   Cu    Cu3+1 0.499960 0.500000 0.573360 0.933326
Cu2   Cu    Cu3+1 0.500040 0.500000 0.426640 0.933326
H1    H     H_    0.977842 0.500120 0.413896 0.172494
H2    H     H_    0.022158 0.499879 0.586104 0.172494
H3    H     H_    0.683063 0.575891 0.838703 0.129662
H4    H     H_    0.316937 0.424108 0.161297 0.129662
H5    H     H_    0.678050 0.574796 0.702843 0.119239
H6    H     H_    0.321949 0.425204 0.297156 0.119238
H7    H     H_    0.543049 0.609456 0.936181 0.127411
H8    H     H_    0.456952 0.390544 0.063819 0.127410
H9    H     H_    0.543201 0.609370 0.070476 0.127592
H10   H     H_    0.456799 0.390630 0.929524 0.127592
H11   H     H_    0.511392 0.718309 0.382789 0.159990
H12   H     H_    0.488625 0.281691 0.617211 0.159993
H13   H     H_    0.512313 0.843823 0.384314 0.155028
H14   H     H_    0.487701 0.156177 0.615686 0.155030
H15   H     H_    0.492606 0.716147 0.618703 0.151662
H16   H     H_    0.507376 0.283853 0.381297 0.151659
H17   H     H_    0.286105 0.938205 0.548440 0.133595
H18   H     H_    0.713890 0.061796 0.451559 0.133595
H19   H     H_    0.288687 0.064345 0.547520 0.133240
H20   H     H_    0.711310 0.935655 0.452480 0.133239
H21   H     H_    0.321616 0.425366 0.678617 0.117412
H22   H     H_    0.678384 0.574634 0.321383 0.117411
H23   H     H_    0.316494 0.424359 0.813770 0.128794
H24   H     H_    0.683506 0.575641 0.186230 0.128794
N1    N     N_R   0.499980 0.500020 0.683620 -0.172574
N2    N     N_R   0.500020 0.499980 0.316380 -0.172574
O1    O     O_R   0.499930 0.400180 0.561970 -0.591683
O2    O     O_R   0.500070 0.599820 0.438030 -0.591682
O3    O     O_R   0.500010 0.400190 0.438070 -0.591850
O4    O     O_R   0.499990 0.599810 0.561930 -0.591849
O5    O     O_R   0.274810 0.500000 0.547650 -0.583446
O6    O     O_R   0.725190 0.500000 0.452350 -0.583446
O7    O     O_R   0.274880 0.500000 0.423750 -0.592245
O8    O     O_R   0.725120 0.500000 0.576250 -0.592245
O9    O     O_3   0.491545 0.852927 0.634319 -0.582362
C41   C     C_3   0.366042 0.833522 0.671329 0.043679
H25   H     H_    0.393354 0.785201 0.702933 0.149617
H26   H     H_    0.256999 0.826551 0.632000 0.130680
C42   C     C_3   0.338626 0.889735 0.726435 -0.777689
H27   H     H_    0.310042 0.938859 0.696664 0.242544
H28   H     H_    0.240939 0.874970 0.756333 0.199356
H29   H     H_    0.443931 0.897248 0.767565 0.251941
O10   O     O_3   0.508434 0.147072 0.365681 -0.582365
C43   C     C_3   0.633916 0.166482 0.328659 0.043676
H30   H     H_    0.742965 0.173465 0.367981 0.130685
H31   H     H_    0.606575 0.214798 0.297050 0.149619
C44   C     C_3   0.661338 0.110266 0.273558 -0.777689
H32   H     H_    0.556023 0.102739 0.232438 0.251945
H33   H     H_    0.759003 0.125038 0.243648 0.199355
H34   H     H_    0.689959 0.061149 0.303336 0.242540

loop_
_geom_bond_atom_site_label_1
_geom_bond_atom_site_label_2
_ccdc_geom_bond_type
C30   C32   A    
Cu1   Cu2   S    
C42   H27   S    
Cu1   N1    S    
O9    C41   S    
C30   H12   S    
Cu2   O7    S    
C1    O3    A    
Cu1   O1    S    
C19   C21   A    
C43   H31   S    
C20   C25   A    
C18   N2    A    
Cu2   O2    S    
C19   C26   A    
C20   H8    S    
C1    C40   S    
C38   H16   S    
C2    C39   S    
C31   C33   A    
C23   C27   S    
C44   H33   S    
C34   C36   A    
Cu2   N2    S    
C4    H18   S    
C23   O5    A    
C4    C7    A    
C2    O4    A    
C42   H28   S    
C37   C39   A    
C17   N1    A    
Cu2   O6    S    
C5    H19   S    
C24   C28   S    
C4    C6    A    
C3    C8    A    
C16   H4    S    
C5    C7    A    
C41   H25   S    
C24   O8    A    
C6    C8    A    
O10   C43   S    
C12   H24   S    
C35   O9    S    
C1    O1    A    
C32   C34   A    
C9    N1    A    
C19   H7    S    
C29   C39   A    
C30   C40   A    
C44   H34   S    
C9    C11   A    
C10   C12   A    
Cu1   O4    S    
C12   C14   A    
C13   C15   A    
C7    C34   S    
C14   C16   A    
C13   C26   S    
C15   H3    S    
C21   H9    S    
C42   H29   S    
C23   O7    A    
C43   H30   S    
C22   H10   S    
C15   C17   A    
C21   C25   A    
C35   C37   A    
C9    H21   S    
C10   H22   S    
C17   H5    S    
C20   C22   A    
C3    C5    A    
C43   C44   S    
C18   H6    S    
C10   N2    A    
C36   O10   S    
C6    H20   S    
C36   C38   A    
C29   C31   A    
Cu1   O8    S    
C38   C40   A    
C11   C13   A    
C41   C42   S    
C24   O6    A    
C29   H11   S    
Cu2   O3    S    
C33   C35   A    
C28   H2    S    
C41   H26   S    
C8    C33   S    
C14   C25   S    
Cu1   O5    S    
C27   H1    S    
C16   C18   A    
C22   C26   A    
C27   C28   D    
C31   H13   S    
C44   H32   S    
C2    O2    A    
C32   H14   S    
C37   H15   S    
C11   H23   S    
C3    H17   S    
