data_mof_unit_31750.cif
_audit_creation_date              2013-03-05T15:42:07-0500
_audit_creation_method            fapswitch 2.2
_symmetry_space_group_name_H-M    P1
_symmetry_Int_Tables_number       1
_space_group_crystal_system       triclinic
_cell_length_a                    21.989898
_cell_length_b                    7.207788
_cell_length_c                    15.007081
_cell_angle_alpha                 90.085846
_cell_angle_beta                  107.644527
_cell_angle_gamma                 90.097488
_cell_volume                      2266.69152388

loop_
_atom_site_label
_atom_site_type_symbol
_atom_site_description
_atom_site_fract_x
_atom_site_fract_y
_atom_site_fract_z
_atom_type_partial_charge
O1    O     O_R   0.584770 0.505770 0.002090 -0.521330
O2    O     O_R   0.415230 0.005770 0.997910 -0.518608
O3    O     O_R   0.467060 0.173340 0.861950 -0.525738
O4    O     O_R   0.532940 0.673340 0.138050 -0.539440
C1    C     C_R   0.456402 0.344335 0.825683 0.904346
C2    C     C_R   0.543963 0.844473 0.174370 0.908252
O5    O     O_R   0.587510 0.175890 0.993210 -0.556837
O6    O     O_R   0.412490 0.675890 0.006790 -0.565034
O7    O     O_R   0.536540 0.008150 0.130100 -0.561225
O8    O     O_R   0.463460 0.508150 0.869900 -0.566670
C3    C     C_R   0.613614 0.344917 0.000515 0.822802
C4    C     C_R   0.386508 0.844552 0.000015 0.827153
O9    O     O_3   0.483140 0.340040 0.044760 -0.282001
O10   O     O_3   0.516860 0.840040 0.955240 -0.279904
V1    V     V_3+5 0.503130 0.064190 0.991700 1.271733
V2    V     V_3+5 0.496870 0.564190 0.008300 1.262628
C5    C     C_2   0.215936 0.730654 0.011852 -0.038490
C6    C     C_2   0.784714 0.229756 0.991844 -0.033912
C7    C     C_2   0.182534 0.888392 0.010524 -0.141364
C8    C     C_2   0.817591 0.387369 0.989813 -0.144689
H1    H     H_    0.192504 0.597403 0.010142 0.118500
H2    H     H_    0.808557 0.096751 0.996346 0.122635
H3    H     H_    0.206804 0.021390 0.019535 0.120707
H4    H     H_    0.792982 0.519554 0.978304 0.120248
C9    C     C_2   0.285674 0.727052 0.021477 -0.097493
C10   C     C_2   0.715033 0.225471 0.982353 -0.088855
C11   C     C_2   0.316706 0.857033 0.986352 0.195111
C12   C     C_2   0.683516 0.358747 0.014493 0.190000
C13   C     C_R   0.926420 0.887863 0.723837 -0.135490
C14   C     C_R   0.073864 0.388744 0.275627 -0.132384
C15   C     C_R   0.569360 0.848890 0.277019 -0.165861
C16   C     C_R   0.430476 0.349829 0.723284 -0.170867
C17   C     C_R   0.937215 0.922983 0.568541 0.421797
C18   C     C_R   0.064252 0.414385 0.431809 0.425084
C19   C     C_R   0.963986 0.921586 0.665910 -0.078603
C20   C     C_R   0.036657 0.417013 0.334677 -0.089145
C21   C     C_R   0.861101 0.857050 0.685547 -0.093963
C22   C     C_R   0.139632 0.365582 0.312363 -0.092094
C23   C     C_R   0.831305 0.859757 0.587654 0.015563
C24   C     C_R   0.170011 0.365171 0.409955 0.011077
C25   C     C_R   0.870068 0.896889 0.528878 -0.078481
C26   C     C_R   0.130875 0.380786 0.469702 -0.076479
C27   C     C_R   0.764052 0.830697 0.546990 0.016199
C28   C     C_R   0.237754 0.347865 0.449841 0.013710
C29   C     C_R   0.735549 0.848610 0.448169 -0.032388
C30   C     C_R   0.265152 0.337520 0.549174 -0.031636
C31   C     C_R   0.776537 0.866821 0.391352 0.294505
C32   C     C_R   0.223136 0.316537 0.604274 0.290693
C33   C     C_R   0.841208 0.904670 0.432041 -0.042946
C34   C     C_R   0.158002 0.347691 0.565150 -0.022084
C35   C     C_R   0.724592 0.777226 0.601622 -0.052020
C36   C     C_R   0.279077 0.339889 0.393692 -0.053172
C37   C     C_R   0.659626 0.747827 0.561840 -0.037031
C38   C     C_R   0.344580 0.323203 0.432895 -0.032035
C39   C     C_R   0.630498 0.779379 0.467036 0.004534
C40   C     C_R   0.372219 0.326528 0.529447 0.000173
C41   C     C_R   0.667277 0.840156 0.409928 0.068366
C42   C     C_R   0.333333 0.342839 0.588774 0.068500
C43   C     C_R   0.564602 0.750105 0.428992 -0.095945
C44   C     C_R   0.438835 0.317163 0.566804 -0.094956
C45   C     C_R   0.533737 0.778505 0.333599 0.322123
C46   C     C_R   0.468794 0.322541 0.663690 0.313251
C47   C     C_R   0.633975 0.892505 0.317134 -0.096747
C48   C     C_R   0.364418 0.371279 0.685007 -0.088616
H5    H     H_    0.868989 0.931875 0.385385 0.182686
H6    H     H_    0.127903 0.329475 0.609621 0.188431
H7    H     H_    0.631738 0.702087 0.606228 0.123903
H8    H     H_    0.374091 0.313239 0.386849 0.130473
H9    H     H_    0.742619 0.749186 0.675353 0.076097
H10   H     H_    0.262649 0.345562 0.318573 0.077863
H11   H     H_    0.537246 0.701976 0.473654 0.129959
H12   H     H_    0.467576 0.301986 0.519942 0.134311
O11   O     O_R   0.036450 0.233070 0.130130 -0.554145
O12   O     O_R   0.963550 0.733070 0.869870 -0.552910
O13   O     O_R   0.912470 0.560570 0.006790 -0.551865
O14   O     O_R   0.087530 0.060570 0.993210 -0.552783
C49   C     C_R   0.886521 0.391951 0.999261 0.822787
C50   C     C_R   0.113536 0.892250 0.000932 0.823402
O15   O     O_R   0.032920 0.562940 0.138050 -0.554731
O16   O     O_R   0.967080 0.062940 0.861950 -0.555685
O17   O     O_R   0.084790 0.730500 0.002090 -0.562365
O18   O     O_R   0.915210 0.230500 0.997910 -0.563335
C51   C     C_R   0.044950 0.394787 0.174374 0.832536
C52   C     C_R   0.954753 0.894487 0.825511 0.831649
O19   O     O_3   0.016820 0.396170 0.955260 -0.279201
O20   O     O_3   0.983180 0.896170 0.044740 -0.278786
V3    V     V_3+5 0.996880 0.672090 0.008300 1.183417
V4    V     V_3+5 0.003120 0.172090 0.991700 1.181371
H13   H     H_    0.014813 0.943557 0.696986 0.133041
H14   H     H_    0.985967 0.442307 0.304767 0.131993
H15   H     H_    0.834781 0.838532 0.734830 0.058536
H16   H     H_    0.165296 0.347364 0.262245 0.057544
N1    N     N_R   0.756443 0.814544 0.294458 0.093484
O21   O     O_R   0.724276 0.661674 0.268921 -0.300952
O22   O     O_R   0.778096 0.902347 0.234587 -0.301382
N2    N     N_R   0.243532 0.238865 0.696318 0.093432
O23   O     O_R   0.277859 0.088577 0.712122 -0.315881
O24   O     O_R   0.220826 0.303225 0.760808 -0.278851
H17   H     H_    0.312275 0.608950 0.058346 0.116546
H18   H     H_    0.688878 0.104013 0.948043 0.121320
N3    N     N_R   0.281751 0.001118 0.926300 0.092820
O25   O     O_R   0.301479 0.172308 0.938124 -0.312548
O26   O     O_R   0.232163 0.959044 0.856023 -0.273291
N4    N     N_R   0.717969 0.508614 0.071451 0.092180
O27   O     O_R   0.697768 0.678613 0.055819 -0.309381
O28   O     O_R   0.767904 0.473736 0.142357 -0.279227
H19   H     H_    0.657761 0.961603 0.273254 0.133787
H20   H     H_    0.338284 0.411126 0.732286 0.137075
N5    N     N_R   0.466492 0.739019 0.296119 0.085376
O29   O     O_R   0.431001 0.830213 0.224456 -0.409116
O30   O     O_R   0.439069 0.625262 0.339373 -0.381085
N6    N     N_R   0.537458 0.307281 0.698650 0.078934
O31   O     O_R   0.566078 0.253363 0.783653 -0.400858
O32   O     O_R   0.571966 0.337701 0.643329 -0.379474
N7    N     N_R   0.979395 0.948075 0.512268 0.112491
O33   O     O_R   0.030854 0.047586 0.544358 -0.340021
O34   O     O_R   0.974876 0.840757 0.440762 -0.321703
N8    N     N_R   0.024197 0.449634 0.490266 0.121140
O35   O     O_R   0.964146 0.403124 0.461730 -0.316647
O36   O     O_R   0.044473 0.553980 0.564274 -0.327516

loop_
_geom_bond_atom_site_label_1
_geom_bond_atom_site_label_2
_geom_bond_distance
_ccdc_geom_bond_type
C18   N8    1.441696 S    
C22   C24   1.413553 A    
N1    O21   1.301170 A    
C39   C43   1.402593 A    
C15   C45   1.412499 A    
C6    C10   1.495536 S    
O16   C52   1.324296 A    
C45   N5    1.441464 S    
C2    O7    1.340551 A    
O15   V3    2.027241 S    
C31   C33   1.393366 A    
O5    C3    1.335995 A    
C29   C41   1.436747 A    
N3    O25   1.301173 A    
C33   H5    1.077595 S    
C8    C49   1.479286 S    
C49   O18   1.327700 A    
O14   C50   1.332272 A    
N5    O30   1.301737 A    
C38   H8    1.084275 S    
C44   H12   1.084164 S    
N7    O33   1.301045 A    
C22   H16   1.076428 S    
C14   C22   1.393237 A    
C44   C46   1.403080 A    
O6    V2    2.017741 S    
C29   C31   1.422127 A    
C25   C33   1.399656 A    
C14   C51   1.459346 S    
N8    O35   1.301837 A    
N4    O27   1.301265 A    
C17   C19   1.400159 A    
C9    H17   1.086199 S    
C8    H4    1.084444 S    
C28   C30   1.430643 A    
C18   C26   1.423002 A    
N7    O34   1.300919 A    
N2    O24   1.301350 A    
C48   H20   1.078558 S    
O12   V3    2.031473 S    
O14   V4    2.017824 S    
C18   C20   1.399026 A    
C1    C16   1.468744 S    
C28   C36   1.415357 A    
C32   C34   1.392221 A    
C2    C15   1.471117 S    
O2    C4    1.326617 A    
N1    O22   1.301746 A    
C30   C42   1.436007 A    
N6    O32   1.301923 A    
N6    O31   1.300011 A    
C36   C38   1.386520 A    
C41   C47   1.414993 A    
C30   C32   1.422437 A    
C37   C39   1.391102 A    
C42   C48   1.412480 A    
C21   C23   1.415804 A    
C38   C40   1.391191 A    
C17   N7    1.442532 S    
C43   C45   1.401528 A    
C21   H15   1.076719 S    
C4    C11   1.488587 S    
C15   C47   1.399828 A    
C16   C48   1.399699 A    
C13   C52   1.463552 S    
C23   C25   1.425468 A    
O20   V3    1.759919 S    
C23   C27   1.433481 A    
O5    V1    2.015189 S    
C11   N3    1.437750 S    
C5    H1    1.085752 S    
C40   C44   1.402612 A    
C35   C37   1.386995 A    
O4    V2    2.023993 S    
C7    C50   1.480325 S    
C7    H3    1.084516 S    
O11   V4    2.029587 S    
O13   C49   1.331771 A    
C12   N4    1.439911 S    
O6    C4    1.334973 A    
N2    O23   1.301726 A    
C31   N1    1.435234 S    
O1    V2    2.008481 S    
O2    V1    2.007163 S    
C34   H6    1.080966 S    
O17   V3    2.007360 S    
C26   C34   1.395708 A    
C19   H13   1.083949 S    
O13   V3    2.015282 S    
C39   C41   1.414432 A    
O4    C2    1.339485 A    
C47   H19   1.078962 S    
O3    V1    2.027306 S    
O19   V4    1.760481 S    
C20   H14   1.083885 S    
C32   N2    1.431860 S    
C6    H2    1.085786 S    
O12   C52   1.326362 A    
O3    C1    1.340102 A    
N4    O28   1.301798 A    
C9    C11   1.355970 D    
C13   C19   1.390133 A    
C10   C12   1.356204 D    
C14   C20   1.391323 A    
C5    C9    1.496360 S    
C10   H18   1.086149 S    
O7    V1    2.023670 S    
C17   C25   1.426813 A    
C1    O8    1.339090 A    
O16   V4    2.023926 S    
O8    V2    2.021927 S    
N5    O29   1.301078 A    
O15   C51   1.323537 A    
C50   O17   1.327900 A    
C27   C35   1.415888 A    
C3    C12   1.490198 S    
O18   V4    2.008681 S    
C24   C26   1.423043 A    
C5    C7    1.351508 D    
C40   C42   1.413951 A    
C6    C8    1.350878 D    
C37   H7    1.084483 S    
N8    O36   1.301591 A    
C36   H10   1.075325 S    
C16   C46   1.416108 A    
C24   C28   1.432932 A    
C46   N6    1.444877 S    
N3    O26   1.301565 A    
O9    V2    1.761227 S    
C13   C21   1.393137 A    
O10   V1    1.760665 S    
O1    C3    1.326105 A    
C35   H9    1.075795 S    
C27   C29   1.430459 A    
O11   C51   1.325210 A    
C43   H11   1.084368 S    
