data_mof_unit_48889.cif
_audit_creation_date              2012-12-11T16:22:16-0500
_audit_creation_method            fapswitch 2.2
_symmetry_space_group_name_H-M    P1
_symmetry_Int_Tables_number       1
_space_group_crystal_system       triclinic
_cell_length_a                    19.763268
_cell_length_b                    6.945307
_cell_length_c                    17.718918
_cell_angle_alpha                 90.530241
_cell_angle_beta                  108.097008
_cell_angle_gamma                 89.507204
_cell_volume                      2311.67963838

loop_
_atom_site_label
_atom_site_type_symbol
_atom_type_description
_atom_site_fract_x
_atom_site_fract_y
_atom_site_fract_z
_atom_type_partial_charge
O1    O     O_R   0.561700 0.369960 0.440190 -0.541438
O2    O     O_R   0.061700 0.630040 0.940190 -0.545558
O3    O     O_R   0.413790 0.033680 0.407460 -0.530055
O4    O     O_R   0.913790 0.966320 0.907460 -0.539792
O5    O     O_R   0.438300 0.869760 0.559810 -0.514417
O6    O     O_R   0.938300 0.130240 0.059810 -0.511959
C1    C     C_R   0.387726 0.202909 0.384143 0.758446
C2    C     C_R   0.886193 0.797204 0.886436 0.729187
O7    O     O_R   0.559630 0.039830 0.430710 -0.546082
O8    O     O_R   0.059630 0.960170 0.930710 -0.516808
O9    O     O_R   0.585190 0.875950 0.583220 -0.551970
O10   O     O_R   0.085190 0.124050 0.083220 -0.562849
C3    C     C_R   0.580630 0.207318 0.415020 0.692551
C4    C     C_R   0.081889 0.790626 0.916418 0.705092
O11   O     O_R   0.414810 0.363770 0.416780 -0.542942
O12   O     O_R   0.914810 0.636230 0.916780 -0.540525
O13   O     O_3   0.508210 0.205480 0.550010 -0.372685
O14   O     O_3   0.008210 0.794520 0.050010 -0.367109
V1    V     V_3+5 0.498480 0.928140 0.490720 1.416482
V2    V     V_3+5 0.998480 0.071860 0.990720 1.450370
O15   O     O_R   0.586210 0.546600 0.592540 -0.539121
O16   O     O_R   0.086210 0.453400 0.092540 -0.529157
C5    C     C_R   0.613733 0.714640 0.614838 0.662083
C6    C     C_R   0.113325 0.285503 0.115569 0.691482
O17   O     O_R   0.440370 0.540460 0.569290 -0.553855
O18   O     O_R   0.940370 0.459540 0.069290 -0.544304
C7    C     C_R   0.418164 0.709903 0.583575 0.759388
C8    C     C_R   0.921957 0.291264 0.087768 0.736362
V3    V     V_3+5 0.501520 0.428910 0.509280 1.386309
V4    V     V_3+5 0.001520 0.571090 0.009280 1.438567
O19   O     O_3   0.491790 0.701440 0.449990 -0.371340
O20   O     O_3   0.991790 0.298560 0.949990 -0.368549
C9    C     C_R   0.268384 0.875698 0.663603 -0.292681
C10   C     C_R   0.820340 0.096740 0.220964 -0.327595
H1    H     H_    0.226216 0.982374 0.651558 0.140358
H2    H     H_    0.809350 0.956811 0.239875 0.184032
C11   C     C_R   0.316132 0.871011 0.618125 0.422131
C12   C     C_R   0.868748 0.105338 0.177310 0.449437
C13   C     C_R   0.367887 0.722389 0.631393 -0.181037
C14   C     C_R   0.880399 0.281599 0.144966 -0.205921
C15   C     C_R   0.370854 0.583432 0.689608 -0.340828
C16   C     C_R   0.858930 0.449949 0.175419 -0.332572
H3    H     H_    0.409712 0.467746 0.699890 0.149562
H4    H     H_    0.874280 0.588509 0.159424 0.202845
C17   C     C_R   0.324379 0.591766 0.735598 0.417189
C18   C     C_R   0.823131 0.441379 0.232579 0.463436
C19   C     C_R   0.272487 0.738849 0.722727 -0.043245
C20   C     C_R   0.792116 0.265510 0.245183 -0.039543
C21   C     C_R   0.180322 0.596938 0.777387 -0.107757
C22   C     C_R   0.715206 0.409185 0.326087 -0.129013
H5    H     H_    0.181398 0.464844 0.744780 0.134412
H6    H     H_    0.736111 0.551179 0.328087 0.189472
C23   C     C_R   0.135017 0.610724 0.824444 -0.264622
C24   C     C_R   0.666539 0.389250 0.367604 -0.232490
H7    H     H_    0.101674 0.488987 0.826161 0.150197
H8    H     H_    0.657330 0.512265 0.401031 0.137104
C25   C     C_R   0.131835 0.779671 0.867874 -0.074952
C26   C     C_R   0.631078 0.215784 0.367532 -0.107506
C27   C     C_R   0.176419 0.935903 0.863565 0.292772
C28   C     C_R   0.645108 0.059913 0.321867 0.273195
C29   C     C_R   0.220153 0.922106 0.814210 -0.245527
C30   C     C_R   0.696150 0.080139 0.282194 -0.157341
H9    H     H_    0.253986 0.042087 0.811375 0.138350
H10   H     H_    0.703528 0.958836 0.246933 0.145841
C31   C     C_R   0.223075 0.752802 0.771475 0.102550
C32   C     C_R   0.734905 0.252192 0.285986 0.063995
C33   C     C_2   0.715636 0.885898 0.708409 -0.171742
C34   C     C_2   0.208792 0.116386 0.218947 -0.225140
C35   C     C_2   0.682346 0.717066 0.680673 0.142532
C36   C     C_2   0.178393 0.284694 0.186065 0.153851
H11   H     H_    0.691148 0.019381 0.681454 0.111013
H12   H     H_    0.183313 0.982448 0.194009 0.133312
C37   C     C_2   0.787064 0.908112 0.769463 -0.133945
C38   C     C_2   0.272123 0.095810 0.291322 -0.151559
C39   C     C_2   0.815517 0.779968 0.827089 -0.273639
C40   C     C_2   0.327108 0.218625 0.311086 -0.325484
H13   H     H_    0.816147 0.039072 0.767637 0.131855
H14   H     H_    0.274056 0.970451 0.328169 0.152286
H15   H     H_    0.786389 0.654314 0.833527 0.183339
H16   H     H_    0.328373 0.338919 0.273471 0.158701
N1    N     N_2   0.715879 0.536868 0.707858 -0.506988
H17   H     H_    0.725711 0.455550 0.663347 0.252814
C41   C     C_3   0.682439 0.425438 0.755165 -0.579078
H18   H     H_    0.719712 0.310656 0.786599 0.196647
H19   H     H_    0.633077 0.356115 0.717108 0.206716
H20   H     H_    0.669446 0.518050 0.800346 0.194946
N2    N     N_2   0.203012 0.466885 0.221914 -0.508085
H21   H     H_    0.224539 0.471364 0.282853 0.270096
C42   C     C_3   0.237092 0.587743 0.178219 -0.561390
H22   H     H_    0.267127 0.704005 0.217557 0.188670
H23   H     H_    0.196706 0.655278 0.127085 0.208589
H24   H     H_    0.274920 0.502720 0.155915 0.182914
O21   O     O_3   0.307284 0.989989 0.552864 -0.574527
C43   C     C_3   0.293108 0.184575 0.567539 0.083018
H25   H     H_    0.332477 0.274525 0.551093 0.152437
H26   H     H_    0.299591 0.219504 0.630906 0.127342
C44   C     C_3   0.218656 0.240152 0.514096 -0.332748
H27   H     H_    0.216079 0.218949 0.451029 0.202822
H28   H     H_    0.178299 0.145774 0.526447 0.196159
C45   C     C_3   0.200759 0.449664 0.526606 -0.813383
H29   H     H_    0.201406 0.473528 0.588867 0.237619
H30   H     H_    0.146755 0.484979 0.486421 0.226906
H31   H     H_    0.239642 0.546878 0.512919 0.239776
O22   O     O_3   0.906442 0.942375 0.168524 -0.564414
C46   C     C_3   0.962222 0.908154 0.240231 0.082847
H32   H     H_    0.977415 0.753957 0.240788 0.127486
H33   H     H_    0.945776 0.935879 0.293904 0.099260
C47   C     C_3   0.028743 0.026468 0.246205 -0.308876
H34   H     H_    0.048705 0.986804 0.196254 0.217094
H35   H     H_    0.015896 0.182671 0.243222 0.164638
C48   C     C_3   0.087201 0.987397 0.324293 -0.855429
H36   H     H_    0.067984 0.021439 0.375567 0.230204
H37   H     H_    0.133681 0.079815 0.328571 0.239213
H38   H     H_    0.104376 0.834163 0.327252 0.238192
O23   O     O_3   0.327441 0.448995 0.790339 -0.583521
C49   C     C_3   0.374133 0.507153 0.864728 0.075956
H39   H     H_    0.363855 0.658900 0.879739 0.118064
H40   H     H_    0.430214 0.493404 0.864387 0.120795
C50   C     C_3   0.363029 0.376702 0.928766 -0.290575
H41   H     H_    0.307026 0.390820 0.928886 0.202543
H42   H     H_    0.372859 0.224298 0.915249 0.193281
C51   C     C_3   0.412558 0.430004 0.010986 -0.856786
H43   H     H_    0.469035 0.414672 0.012805 0.235584
H44   H     H_    0.402856 0.332601 0.055849 0.228119
H45   H     H_    0.402415 0.580658 0.026370 0.230819
O24   O     O_3   0.824153 0.601899 0.279327 -0.595907
C52   C     C_3   0.889093 0.606420 0.343054 0.029010
H46   H     H_    0.896541 0.756384 0.366030 0.138762
H47   H     H_    0.936040 0.568461 0.323651 0.113206
C53   C     C_3   0.888128 0.477870 0.412832 -0.323122
H48   H     H_    0.844651 0.525008 0.436286 0.194890
H49   H     H_    0.879462 0.325364 0.393325 0.195936
C54   C     C_3   0.958606 0.489730 0.479913 -0.831498
H50   H     H_    0.003112 0.438971 0.458794 0.229700
H51   H     H_    0.956366 0.396967 0.529777 0.232023
H52   H     H_    0.968905 0.640227 0.502039 0.231474
N3    N     N_2   0.179161 0.105866 0.909908 -0.509084
H53   H     H_    0.190476 0.228191 0.883706 0.248246
C55   C     C_3   0.223666 0.089044 0.991651 -0.537359
H54   H     H_    0.221233 0.225427 0.023945 0.185695
H55   H     H_    0.279853 0.061237 0.994397 0.181225
H56   H     H_    0.205012 0.970468 0.021734 0.187669
N4    N     N_2   0.608843 0.881330 0.313372 -0.529680
H57   H     H_    0.610511 0.815225 0.365585 0.265249
C56   C     C_3   0.539805 0.878417 0.253442 -0.506604
H58   H     H_    0.517934 0.730349 0.247730 0.192453
H59   H     H_    0.544618 0.921175 0.195052 0.195544
H60   H     H_    0.502367 0.977922 0.270057 0.180965

loop_
_geom_bond_atom_site_label_1
_geom_bond_atom_site_label_2
_ccdc_geom_bond_type
C12   C14   A    
N2    H21   S    
O21   C43   S    
O13   V3    S    
C5    C35   S    
C23   H7    S    
C48   H36   S    
O4    C2    A    
V1    O19   S    
C56   H60   S    
C44   H27   S    
C6    C36   S    
C13   C15   A    
C47   H34   S    
C46   H33   S    
O9    V1    S    
O24   C52   S    
C38   C40   D    
C46   H32   S    
O3    C1    A    
C28   N4    S    
C56   H58   S    
C55   H56   S    
C25   C27   A    
C8    C14   S    
C34   C38   S    
N4    H57   S    
C49   H39   S    
C28   C30   A    
C16   C18   A    
C29   H9    S    
O7    C3    A    
C12   O22   S    
C44   H28   S    
O5    C7    A    
O7    V1    S    
O6    C8    A    
C7    C13   S    
C21   H5    S    
C54   H52   S    
C22   H6    S    
O3    V1    S    
C33   C37   S    
C42   H23   S    
C15   H3    S    
C33   H11   S    
C50   H42   S    
C2    O12   A    
V3    O19   S    
C37   C39   D    
C16   H4    S    
C36   N2    S    
C45   H30   S    
O22   C46   S    
C56   H59   S    
O11   V3    S    
C18   C20   A    
C17   C19   A    
O17   V3    S    
C46   C47   S    
C24   H8    S    
C27   C29   A    
C30   C32   A    
O8    C4    A    
O8    V2    S    
C23   C25   A    
O13   V1    S    
C3    C26   S    
C43   C44   S    
O15   V3    S    
C45   H31   S    
N1    H17   S    
C33   C35   D    
C53   H49   S    
C52   H47   S    
N3    C55   S    
C17   O23   S    
C41   H18   S    
C34   H12   S    
O10   V2    S    
O1    V3    S    
C11   O21   S    
C48   H37   S    
C22   C24   A    
C42   H24   S    
C43   H26   S    
C22   C32   A    
C21   C31   A    
O14   V4    S    
C41   H19   S    
O18   V4    S    
N2    C42   S    
C54   H50   S    
C9    C19   A    
O16   C6    A    
C53   C54   S    
O1    C3    A    
O12   V4    S    
C51   H44   S    
C52   H46   S    
C44   C45   S    
V2    O20   S    
C50   C51   S    
N4    C56   S    
C4    C25   S    
C15   C17   A    
O16   V4    S    
C10   C12   A    
C18   O24   S    
C40   H16   S    
C14   C16   A    
N1    C41   S    
C55   H54   S    
C47   C48   S    
C1    C40   S    
O5    V1    S    
O17   C7    A    
O6    V2    S    
N3    H53   S    
O10   C6    A    
C10   C20   A    
O18   C8    A    
C49   C50   S    
O2    V4    S    
C51   H45   S    
O15   C5    A    
C30   H10   S    
C51   H43   S    
C52   C53   S    
C11   C13   A    
V4    O20   S    
C55   H55   S    
C47   H35   S    
C39   H15   S    
C21   C23   A    
C1    O11   A    
O9    C5    A    
C45   H29   S    
C9    H1    S    
C10   H2    S    
C49   H40   S    
C53   H48   S    
C48   H38   S    
O14   V2    S    
C2    C39   S    
C43   H25   S    
O2    C4    A    
C9    C11   A    
C35   N1    S    
O4    V2    S    
C29   C31   A    
C41   H20   S    
C24   C26   A    
C37   H13   S    
C34   C36   D    
C50   H41   S    
C38   H14   S    
C54   H51   S    
C27   N3    S    
C20   C32   S    
C42   H22   S    
C26   C28   A    
C19   C31   S    
O23   C49   S    
