data_mof_unit_15860.cif
_audit_creation_date              2012-12-10T20:27:10-0500
_audit_creation_method            fapswitch 2.2
_symmetry_space_group_name_H-M    P1
_symmetry_Int_Tables_number       1
_space_group_crystal_system       triclinic
_cell_length_a                    10.776492
_cell_length_b                    10.679523
_cell_length_c                    9.863616
_cell_angle_alpha                 89.941007
_cell_angle_beta                  103.906049
_cell_angle_gamma                 90.092443
_cell_volume                      1101.90921879

loop_
_atom_site_label
_atom_site_type_symbol
_atom_type_description
_atom_site_fract_x
_atom_site_fract_y
_atom_site_fract_z
_atom_type_partial_charge
C1    C     C_R   0.503766 0.259922 0.501076 0.882080
C2    C     C_R   0.523961 0.128537 0.507041 -0.105511
C3    C     C_R   0.550247 0.064934 0.392738 -0.226976
C4    C     C_R   0.550544 0.935414 0.392760 -0.227118
C5    C     C_R   0.524493 0.871403 0.507060 -0.100465
C6    C     C_R   0.522588 0.935932 0.629074 0.127333
C7    C     C_3   0.429979 0.928185 0.719932 -0.475416
C8    C     C_3   0.429287 0.070103 0.719558 -0.493534
C9    C     C_R   0.441988 0.405316 0.056249 0.216623
C10   C     C_R   0.567063 0.587083 0.089504 -0.136420
C11   C     C_R   0.567059 0.587103 0.945508 -0.138368
C12   C     C_R   0.258927 0.504163 0.441814 0.946389
C13   C     C_R   0.441647 0.405491 0.913602 0.218475
C14   C     C_3   0.303278 0.371698 0.872656 -0.511846
C15   C     C_3   0.304196 0.370604 0.026759 -0.513855
C16   C     C_R   0.504051 0.740047 0.501008 0.874749
C17   C     C_R   0.741148 0.504290 0.558105 0.940096
C18   C     C_2   0.122312 0.520055 0.408628 -0.378383
C19   C     C_2   0.067951 0.552197 0.511177 -0.157482
C20   C     C_2   0.877781 0.521387 0.590644 -0.375673
C21   C     C_2   0.931748 0.550440 0.486618 -0.150718
C22   C     C_R   0.522209 0.063662 0.629021 0.141390
H1    H     H_    0.876031 0.562124 0.379642 0.185219
H2    H     H_    0.619218 0.658797 0.157447 0.139610
H3    H     H_    0.619168 0.658848 0.904789 0.145431
H4    H     H_    0.243098 0.447545 0.813842 0.213131
H5    H     H_    0.286821 0.277688 0.823633 0.199126
H6    H     H_    0.244156 0.445413 0.056511 0.218410
H7    H     H_    0.289799 0.275707 0.066843 0.201368
H8    H     H_    0.123548 0.569150 0.617109 0.178509
H9    H     H_    0.934024 0.509018 0.697185 0.150396
H10   H     H_    0.066290 0.503447 0.302783 0.148973
H11   H     H_    0.561701 0.114100 0.300373 0.170492
H12   H     H_    0.562174 0.886520 0.300430 0.165599
H13   H     H_    0.336749 0.886262 0.665567 0.205251
H14   H     H_    0.474077 0.887416 0.824101 0.201282
H15   H     H_    0.335722 0.110665 0.664493 0.199596
N1    N     N_R   0.499160 0.499140 0.142600 -0.104463
N2    N     N_R   0.499160 0.499180 0.856960 -0.104983
O1    O     O_R   0.500020 0.316790 0.614700 -0.613401
O2    O     O_R   0.500000 0.316760 0.385350 -0.621468
O3    O     O_R   0.317820 0.500020 0.571850 -0.615645
O4    O     O_R   0.317800 0.499980 0.342510 -0.614594
O5    O     O_R   0.500000 0.683240 0.614650 -0.622020
O6    O     O_R   0.499980 0.683210 0.385300 -0.626403
O7    O     O_R   0.682200 0.500020 0.657490 -0.616109
O8    O     O_R   0.682180 0.499980 0.428150 -0.617584
Zn1   Zn    Zn3+2 0.500010 0.500020 0.653140 0.938445
Zn2   Zn    Zn3+2 0.499990 0.499980 0.346860 0.937080
H16   H     H_    0.472668 0.111420 0.823602 0.203383

loop_
_geom_bond_atom_site_label_1
_geom_bond_atom_site_label_2
_ccdc_geom_bond_type
C16   O6    A    
C2    C22   A    
C1    O2    A    
C8    C22   S    
C17   O7    A    
C6    C7    S    
C14   H5    S    
C7    H14   S    
C16   O5    A    
O6    Zn2   S    
C10   N1    A    
C2    C3    A    
C9    C15   S    
C7    C8    S    
O8    Zn2   S    
N1    Zn2   S    
O3    Zn1   S    
C13   C14   S    
C14   H4    S    
C11   N2    A    
C15   H6    S    
O2    Zn2   S    
C9    N1    A    
C19   C21   S    
C15   H7    S    
C12   O4    A    
O7    Zn1   S    
C21   H1    S    
C5    C6    A    
C4    H12   S    
C13   N2    A    
C18   H10   S    
C10   C11   A    
C3    H11   S    
C12   O3    A    
C3    C4    A    
C6    C22   A    
C8    H16   S    
C17   C20   S    
O5    Zn1   S    
C20   C21   D    
C1    C2    S    
C8    H15   S    
C12   C18   S    
O1    Zn1   S    
C11   H3    S    
C14   C15   S    
C18   C19   D    
C5    C16   S    
C9    C13   A    
C1    O1    A    
C10   H2    S    
C19   H8    S    
C7    H13   S    
O4    Zn2   S    
C17   O8    A    
C4    C5    A    
N2    Zn1   S    
C20   H9    S    
