data_mof_unit_56477.cif
_audit_creation_date              2013-03-05T15:55:00-0500
_audit_creation_method            fapswitch 2.2
_symmetry_space_group_name_H-M    P1
_symmetry_Int_Tables_number       1
_space_group_crystal_system       triclinic
_cell_length_a                    23.421324
_cell_length_b                    10.66756
_cell_length_c                    9.901873
_cell_angle_alpha                 89.62375
_cell_angle_beta                  88.59135
_cell_angle_gamma                 92.495098
_cell_volume                      2470.80228872

loop_
_atom_site_label
_atom_site_type_symbol
_atom_site_description
_atom_site_fract_x
_atom_site_fract_y
_atom_site_fract_z
_atom_type_partial_charge
O1    O     O_R   0.500000 0.316780 0.614690 -0.597803
O2    O     O_R   0.500000 0.316750 0.385360 -0.646283
C1    C     C_R   0.504605 0.260147 0.500850 0.938814
O3    O     O_R   0.416160 0.499970 0.614690 -0.593394
O4    O     O_R   0.416150 0.499950 0.385360 -0.651130
C2    C     C_R   0.389510 0.501159 0.501108 0.946451
Zn1   Zn    Zn3+2 0.500000 0.500020 0.653130 1.060613
Zn2   Zn    Zn3+2 0.500000 0.499980 0.346870 1.060393
O5    O     O_R   0.500000 0.683250 0.614640 -0.594097
O6    O     O_R   0.500000 0.683220 0.385310 -0.612671
O7    O     O_R   0.583850 0.500050 0.614640 -0.604755
O8    O     O_R   0.583840 0.500030 0.385310 -0.544082
C3    C     C_R   0.492983 0.738422 0.500584 0.909936
C4    C     C_R   0.610668 0.497139 0.498143 0.957083
C5    C     C_R   0.882128 0.638399 0.505578 0.663884
N1    N     N_R   0.853686 0.525883 0.485207 -0.352237
C6    C     C_R   0.881952 0.417943 0.465076 0.653752
C7    C     C_R   0.941645 0.422395 0.447784 -0.156986
C8    C     C_R   0.971872 0.536628 0.475594 -0.106125
C9    C     C_R   0.941982 0.645326 0.507175 -0.243444
C10   C     C_R   0.971982 0.316543 0.406629 0.185991
C11   C     C_R   0.031663 0.323355 0.402615 0.652053
C12   C     C_R   0.061970 0.434698 0.437598 -0.169368
C13   C     C_R   0.032075 0.541921 0.473567 -0.150743
C14   C     C_R   0.062308 0.654131 0.508799 -0.243453
C15   C     C_R   0.031997 0.761531 0.540624 0.636227
C16   C     C_R   0.972560 0.757447 0.538716 0.628927
C17   C     C_R   0.121745 0.442101 0.437503 0.641236
N2    N     N_R   0.150131 0.549564 0.477603 -0.358563
C18   C     C_R   0.122138 0.654495 0.513018 0.694258
O9    O     O_2   0.852337 0.742677 0.523837 -0.411705
O10   O     O_2   0.852010 0.306989 0.464701 -0.441979
O11   O     O_2   0.151761 0.342691 0.398730 -0.395365
O12   O     O_2   0.152315 0.757710 0.553007 -0.389834
C19   C     C_R   0.247906 0.614634 0.397531 0.369671
C20   C     C_R   0.306606 0.599896 0.407082 -0.262811
H1    H     H_    0.335807 0.651081 0.337863 0.216755
C21   C     C_R   0.328005 0.515978 0.501050 -0.184306
C22   C     C_R   0.290554 0.448606 0.590829 0.305311
C23   C     C_R   0.232371 0.469126 0.587305 -0.142019
H2    H     H_    0.202914 0.416162 0.654340 0.209465
C24   C     C_R   0.210708 0.548011 0.489284 0.077889
C25   C     C_R   0.763587 0.477981 0.368896 0.268059
C26   C     C_R   0.703705 0.461322 0.374637 0.212170
C27   C     C_R   0.673240 0.496057 0.493232 -0.195931
C28   C     C_R   0.703046 0.537606 0.606673 -0.176766
H3    H     H_    0.680608 0.563762 0.698522 0.207369
C29   C     C_R   0.762155 0.548042 0.602696 -0.079451
H4    H     H_    0.784594 0.578216 0.691975 0.201659
C30   C     C_R   0.792556 0.520117 0.484440 0.104586
H5    H     H_    0.502112 0.112752 0.284971 0.224413
C31   C     C_R   0.525539 0.106566 0.752726 0.490183
C32   C     C_R   0.508408 0.047155 0.874165 0.407358
C33   C     C_R   0.472406 0.939816 0.872568 0.480112
C34   C     C_R   0.459785 0.882732 0.749809 0.527730
C35   C     C_R   0.482280 0.935819 0.626959 -0.197929
C36   C     C_R   0.505993 0.058171 0.627960 -0.201495
C37   C     C_R   0.507862 0.125734 0.503777 0.008000
C38   C     C_R   0.500286 0.063496 0.381145 -0.083045
H6    H     H_    0.488561 0.888916 0.284401 0.240722
C39   C     C_R   0.490329 0.936244 0.380628 -0.080793
C40   C     C_R   0.484034 0.871018 0.502897 -0.024493
C41   C     C_R   0.429553 0.324184 0.145310 -0.280153
H7    H     H_    0.424655 0.326422 0.252015 0.250716
C42   C     C_R   0.397091 0.231200 0.078858 0.194372
C43   C     C_R   0.397832 0.232165 0.937650 0.616229
C44   C     C_R   0.429940 0.324457 0.865889 -0.259909
H8    H     H_    0.425364 0.325470 0.759507 0.244683
C45   C     C_R   0.465791 0.412654 0.930665 0.124324
C46   C     C_R   0.465774 0.412468 0.074879 0.095188
N3    N     N_R   0.499460 0.498800 0.142780 -0.154582
C47   C     C_R   0.531236 0.587549 0.067911 0.376596
H9    H     H_    0.556617 0.656269 0.867642 0.155643
C48   C     C_R   0.531185 0.586291 0.924803 -0.058220
N4    N     N_R   0.499440 0.498720 0.857170 -0.105743
N5    N     N_R   0.943179 0.204376 0.359160 0.283439
O13   O     O_R   0.911104 0.209637 0.253978 -0.234108
O14   O     O_R   0.956564 0.095358 0.405422 -0.174062
N6    N     N_R   0.674450 0.406940 0.261812 0.257915
O15   O     O_R   0.642592 0.304702 0.278361 -0.314960
O16   O     O_R   0.682847 0.453712 0.140887 -0.271533
F1    F     F_    0.564670 0.204113 0.757504 -0.567999
F2    F     F_    0.525310 0.096137 0.993554 -0.573185
F3    F     F_    0.451114 0.888734 0.990115 -0.554609
F4    F     F_    0.422810 0.780979 0.750723 -0.571408
N7    N     N_R   0.563384 0.686175 0.132381 0.214320
O17   O     O_R   0.609728 0.660708 0.194335 -0.315516
O18   O     O_R   0.556513 0.801645 0.095494 -0.342816
F5    F     F_    0.059644 0.220774 0.361455 -0.513124
N8    N     N_R   0.363201 0.138103 0.155660 0.256726
O19   O     O_R   0.363527 0.137567 0.287123 -0.339830
O20   O     O_R   0.332463 0.051664 0.095549 -0.160221
F6    F     F_    0.367180 0.144538 0.867904 -0.544718
F7    F     F_    0.059469 0.871492 0.573438 -0.498397
F8    F     F_    0.945267 0.863204 0.571482 -0.505308
N9    N     N_R   0.227013 0.693262 0.292426 0.246498
O21   O     O_R   0.178286 0.666275 0.236816 -0.317662
O22   O     O_R   0.259352 0.785178 0.242057 -0.245023
N10   N     N_R   0.309796 0.349615 0.674337 0.218123
O23   O     O_R   0.340401 0.263380 0.620098 -0.324695
O24   O     O_R   0.286200 0.329264 0.793257 -0.289827
N11   N     N_R   0.795278 0.449344 0.247628 0.242363
O25   O     O_R   0.834693 0.528317 0.199635 -0.326727
O26   O     O_R   0.787388 0.341100 0.189562 -0.220814

loop_
_geom_bond_atom_site_label_1
_geom_bond_atom_site_label_2
_geom_bond_distance
_ccdc_geom_bond_type
C15   F7    1.358357 S    
C34   C35   1.418270 A    
C41   C42   1.400866 A    
N2    C24   1.427153 S    
C7    C10   1.416909 A    
H9    C48   1.082393 S    
C16   F8    1.357952 S    
C8    C9    1.413191 A    
C33   F3    1.356409 S    
C36   C37   1.419995 A    
C32   C33   1.392562 A    
C31   C32   1.397398 A    
Zn1   O7    1.991285 S    
C10   N5    1.435420 S    
C15   C16   1.391465 A    
C17   N2    1.366177 A    
N5    O14   1.300912 A    
C45   C46   1.427970 A    
C21   C22   1.405218 A    
O7    C4    1.301030 A    
N7    O18   1.300316 A    
C5    N1    1.365741 A    
C35   C36   1.396211 A    
C7    C8    1.414522 A    
C19   C24   1.410045 A    
O5    C3    1.287517 A    
N11   O25   1.301242 A    
C33   C34   1.395519 A    
N8    O20   1.301283 A    
C3    C40   1.439169 S    
C19   C20   1.396013 A    
N1    C6    1.366289 A    
N9    O22   1.301599 A    
C20   H1    1.084052 S    
C12   C13   1.410048 A    
C2    C21   1.456001 S    
C46   N3    1.376095 A    
C23   C24   1.399381 A    
C43   C44   1.392760 A    
C10   C11   1.396121 A    
C5    C9    1.401076 A    
O3    Zn1   2.009337 S    
C4    C27   1.465678 S    
C42   N8    1.444439 S    
C28   C29   1.383619 A    
C38   C39   1.367381 A    
C48   N4    1.358746 A    
C18   O12   1.349215 S    
C44   H8    1.061476 S    
C13   C14   1.414124 A    
O3    C2    1.299874 A    
C22   C23   1.390805 A    
N6    O16   1.301300 A    
N7    O17   1.297899 A    
Zn1   N4    2.020051 S    
C14   C15   1.407291 A    
C19   N9    1.440625 S    
N6    O15   1.301484 A    
H6    C39   1.082094 S    
O1    C1    1.286816 A    
C34   F4    1.358642 S    
C31   F1    1.358234 S    
C25   C26   1.405744 A    
N2    C18   1.365110 A    
C22   N10   1.431870 S    
N10   O23   1.301339 A    
C41   C46   1.409142 A    
Zn2   O8    2.009334 S    
N9    O21   1.301123 A    
C6    C7    1.403057 A    
C12   C17   1.398764 A    
N5    O13   1.301388 A    
N11   O26   1.301317 A    
C43   F6    1.356687 S    
C47   C48   1.417218 A    
C23   H2    1.083707 S    
N10   O24   1.301282 A    
O8    C4    1.296070 A    
C17   O11   1.350258 S    
C35   C40   1.414126 A    
H5    C38   1.083630 S    
C26   C27   1.418795 A    
C14   C18   1.402779 A    
Zn1   O5    1.988970 S    
C28   H3    1.083413 S    
C29   H4    1.083136 S    
Zn2   N3    2.021342 S    
O1    Zn1   1.993888 S    
C8    C13   1.408357 A    
C26   N6    1.437249 S    
O2    Zn2   1.988969 S    
N1    C30   1.430588 S    
O6    C3    1.297947 A    
O4    Zn2   1.991287 S    
C47   N7    1.429979 S    
C25   C30   1.410583 A    
C5    O9    1.349435 S    
C9    C16   1.407967 A    
C32   F2    1.356612 S    
C20   C21   1.403351 A    
O2    C1    1.298709 A    
C37   C38   1.399180 A    
C25   N11   1.437649 S    
N3    C47   1.379166 A    
N8    O19   1.301916 A    
O4    C2    1.291825 A    
C29   C30   1.396030 A    
C11   F5    1.359487 S    
C45   N4    1.376108 A    
C39   C40   1.393879 A    
C31   C36   1.420543 A    
C41   H7    1.060521 S    
C1    C37   1.439330 S    
C27   C28   1.401319 A    
Zn2   O6    1.993890 S    
C42   C43   1.397870 A    
C6    O10   1.349314 S    
C11   C12   1.406661 A    
C44   C45   1.402594 A    
