data_mof_unit_5603.cif
_audit_creation_date              2012-12-10T17:55:53-0500
_audit_creation_method            fapswitch 2.2
_symmetry_space_group_name_H-M    P1
_symmetry_Int_Tables_number       1
_space_group_crystal_system       triclinic
_cell_length_a                    11.054881
_cell_length_b                    10.794463
_cell_length_c                    9.553021
_cell_angle_alpha                 89.568347
_cell_angle_beta                  102.351621
_cell_angle_gamma                 90.742261
_cell_volume                      1113.4829301

loop_
_atom_site_label
_atom_site_type_symbol
_atom_type_description
_atom_site_fract_x
_atom_site_fract_y
_atom_site_fract_z
_atom_type_partial_charge
C1    C     C_R   0.503536 0.262501 0.501296 0.776029
C2    C     C_R   0.496462 0.737498 0.498703 0.776031
C3    C     C_R   0.262958 0.499946 0.442089 0.857939
C4    C     C_R   0.737042 0.500054 0.557911 0.857940
C5    C     C_R   0.423340 0.422242 0.056907 -0.050709
C6    C     C_R   0.576660 0.577758 0.943093 -0.050708
C7    C     C_R   0.423086 0.421859 0.908441 0.072547
C8    C     C_R   0.576914 0.578141 0.091559 0.072536
C9    C     C_2   0.128304 0.499917 0.409502 -0.336895
C10   C     C_2   0.871696 0.500082 0.590498 -0.336912
C11   C     C_2   0.067208 0.500152 0.515777 -0.124578
C12   C     C_2   0.932792 0.499847 0.484223 -0.124575
C13   C     C_R   0.425362 0.067383 0.390059 -0.119641
C14   C     C_R   0.574621 0.932619 0.609947 -0.119665
C15   C     C_R   0.417589 0.938542 0.386824 -0.008896
C16   C     C_R   0.582387 0.061460 0.613180 -0.008890
C17   C     C_R   0.494515 0.871446 0.497797 -0.139339
C18   C     C_R   0.505473 0.128555 0.502202 -0.139352
Cu1   Cu    Cu3+1 0.500000 0.500020 0.640660 0.964816
Cu2   Cu    Cu3+1 0.500000 0.499980 0.359340 0.964805
H1    H     H_    0.883571 0.499423 0.372686 0.185685
H2    H     H_    0.116429 0.500576 0.627314 0.185681
H3    H     H_    0.362261 0.360102 0.099493 0.138494
H4    H     H_    0.637739 0.639898 0.900507 0.138494
H5    H     H_    0.921207 0.500363 0.701868 0.154935
H6    H     H_    0.078793 0.499637 0.298132 0.154936
H7    H     H_    0.365704 0.121114 0.307260 0.180632
H8    H     H_    0.634284 0.878894 0.692750 0.180621
N1    N     N_R   0.500030 0.500030 0.852080 -0.188509
N2    N     N_R   0.499970 0.499970 0.147920 -0.188510
O1    O     O_R   0.499990 0.319660 0.618740 -0.585446
O2    O     O_R   0.500010 0.680340 0.381260 -0.585469
O3    O     O_R   0.499990 0.319630 0.381170 -0.576629
O4    O     O_R   0.500010 0.680370 0.618830 -0.576626
O5    O     O_R   0.320690 0.500020 0.575130 -0.575202
O6    O     O_R   0.679310 0.499980 0.424870 -0.575198
O7    O     O_R   0.320680 0.499990 0.337560 -0.591175
O8    O     O_R   0.679320 0.500010 0.662440 -0.591169
C19   C     C_1   0.340424 0.337029 0.818280 0.292269
N3    N     N_1   0.273655 0.268425 0.746534 -0.267258
C20   C     C_1   0.659577 0.662971 0.181720 0.292263
N4    N     N_1   0.726345 0.731575 0.253466 -0.267253
C21   C     C_2   0.324514 0.876869 0.272086 0.386706
H9    H     H_    0.299998 0.780043 0.281089 0.082454
O9    O     O_2   0.272437 0.934300 0.166068 -0.528190
C22   C     C_2   0.675447 0.123134 0.727928 0.386764
H10   H     H_    0.700034 0.219940 0.718875 0.082401
O10   O     O_2   0.727420 0.065727 0.834013 -0.528187

loop_
_geom_bond_atom_site_label_1
_geom_bond_atom_site_label_2
_ccdc_geom_bond_type
C21   H9    S    
C4    O6    A    
C6    H4    S    
C7    N1    A    
Cu1   O8    S    
C21   O9    D    
C20   N4    T    
C11   H2    S    
Cu1   Cu2   S    
C5    H3    S    
C3    O5    A    
C11   C12   S    
Cu1   O1    S    
C8    N2    A    
C2    O4    A    
C1    O3    A    
Cu2   N2    S    
C2    C17   S    
Cu2   O7    S    
C9    C11   D    
C14   C17   A    
C1    C18   S    
C10   C12   D    
C13   C18   A    
C3    C9    S    
Cu2   O3    S    
C10   H5    S    
C16   C18   A    
Cu1   O5    S    
C4    O8    A    
C9    H6    S    
C14   C16   A    
C13   C15   A    
C22   O10   D    
C15   C21   S    
Cu1   N1    S    
C1    O1    A    
C6    N1    A    
C8    C20   S    
C3    O7    A    
C2    O2    A    
C5    N2    A    
Cu2   O2    S    
C16   C22   S    
C19   N3    T    
C15   C17   A    
C7    C19   S    
C5    C7    A    
C13   H7    S    
C6    C8    A    
C14   H8    S    
C22   H10   S    
C4    C10   S    
C12   H1    S    
Cu1   O4    S    
Cu2   O6    S    
