data_mof_unit_52159.cif
_audit_creation_date              2012-12-10T18:22:28-0500
_audit_creation_method            fapswitch 2.2
_symmetry_space_group_name_H-M    P1
_symmetry_Int_Tables_number       1
_space_group_crystal_system       triclinic
_cell_length_a                    23.524207
_cell_length_b                    10.621835
_cell_length_c                    9.403017
_cell_angle_alpha                 89.569504
_cell_angle_beta                  89.983889
_cell_angle_gamma                 90.006126
_cell_volume                      2349.4677374

loop_
_atom_site_label
_atom_site_type_symbol
_atom_type_description
_atom_site_fract_x
_atom_site_fract_y
_atom_site_fract_z
_atom_type_partial_charge
C1    C     C_R   0.500017 0.259343 0.500502 0.787739
C2    C     C_R   0.499983 0.740657 0.499498 0.787738
C3    C     C_R   0.238677 0.499235 0.370846 0.176692
C4    C     C_R   0.761322 0.500805 0.629150 0.176690
C5    C     C_R   0.298166 0.499226 0.371606 -0.214847
C6    C     C_R   0.701834 0.500809 0.628392 -0.214845
C7    C     C_R   0.328316 0.499954 0.500282 -0.118139
C8    C     C_R   0.671684 0.500049 0.499718 -0.118138
C9    C     C_R   0.298347 0.500686 0.629271 -0.231051
C10   C     C_R   0.701653 0.499288 0.370729 -0.231052
C11   C     C_R   0.238911 0.500679 0.631062 0.181135
C12   C     C_R   0.761089 0.499300 0.368938 0.181133
C13   C     C_R   0.208856 0.499956 0.501032 0.365085
C14   C     C_R   0.791144 0.500056 0.498966 0.365088
C15   C     C_3   0.500044 0.039317 0.635531 -0.139770
C16   C     C_3   0.499956 0.960683 0.364469 -0.139770
C17   C     C_3   0.546718 0.957315 0.566859 -0.162103
C18   C     C_3   0.453282 0.042685 0.433141 -0.162104
C19   C     C_3   0.499989 0.877607 0.498547 0.016882
C20   C     C_3   0.500011 0.122393 0.501453 0.016881
C21   C     C_3   0.453315 0.957329 0.567103 -0.162784
C22   C     C_3   0.546685 0.042671 0.432897 -0.162783
C23   C     C_R   0.390958 0.499959 0.500076 0.816473
C24   C     C_R   0.609042 0.500042 0.499924 0.816473
C25   C     C_3   0.501947 0.613688 0.049418 -0.035376
C26   C     C_3   0.498052 0.386311 0.950582 -0.035375
C27   C     C_3   0.456542 0.560567 0.948829 -0.037447
C28   C     C_3   0.543458 0.439433 0.051171 -0.037443
C29   C     C_3   0.545448 0.553070 0.949008 -0.038221
C30   C     C_3   0.454552 0.446930 0.050992 -0.038226
C31   C     C_R   0.880501 0.612580 0.497861 0.530704
C32   C     C_R   0.119498 0.387432 0.502134 0.530706
C33   C     C_R   0.880478 0.387491 0.501088 0.530702
C34   C     C_R   0.119522 0.612521 0.498914 0.530703
C35   C     C_R   0.940081 0.385086 0.501402 -0.017357
C36   C     C_R   0.059919 0.614926 0.498598 -0.017356
C37   C     C_R   0.970010 0.500014 0.499895 -0.018036
C38   C     C_R   0.029990 0.499999 0.500103 -0.018035
C39   C     C_R   0.940104 0.614956 0.498126 -0.017334
C40   C     C_R   0.059896 0.385057 0.501871 -0.017337
C41   C     C_R   0.970323 0.271045 0.503127 -0.162826
C42   C     C_R   0.029677 0.728967 0.496873 -0.162828
C43   C     C_R   0.029630 0.271031 0.503377 -0.162840
C44   C     C_R   0.970370 0.728982 0.496621 -0.162840
Cu1   Cu    Cu3+1 0.500010 0.499990 0.643150 0.933087
Cu2   Cu    Cu3+1 0.499990 0.500010 0.356850 0.933086
H1    H     H_    0.948296 0.181489 0.504301 0.188544
H2    H     H_    0.051704 0.818523 0.495700 0.188544
H3    H     H_    0.420034 0.611611 0.900734 0.112371
H4    H     H_    0.579966 0.388389 0.099266 0.112368
H5    H     H_    0.503616 0.709588 0.095258 0.112745
H6    H     H_    0.496384 0.290412 0.904742 0.112745
H7    H     H_    0.583640 0.597890 0.901181 0.112342
H8    H     H_    0.416359 0.402110 0.098819 0.112346
H9    H     H_    0.051638 0.181464 0.504738 0.188540
H10   H     H_    0.948362 0.818548 0.495259 0.188540
H11   H     H_    0.320943 0.498636 0.271432 0.158942
H12   H     H_    0.679057 0.501422 0.728565 0.158940
H13   H     H_    0.321135 0.501287 0.729457 0.164724
H14   H     H_    0.678866 0.498661 0.270544 0.164723
H15   H     H_    0.584932 0.919164 0.621401 0.135771
H16   H     H_    0.415068 0.080836 0.378599 0.135771
H17   H     H_    0.500083 0.074027 0.746602 0.129457
H18   H     H_    0.499917 0.925973 0.253398 0.129457
H19   H     H_    0.415128 0.919189 0.621844 0.135388
H20   H     H_    0.584872 0.080811 0.378156 0.135388
N1    N     N_R   0.852147 0.500043 0.499467 -0.463987
N2    N     N_R   0.147853 0.499970 0.500531 -0.463986
N3    N     N_3   0.500040 0.499970 0.858290 -0.153786
N4    N     N_3   0.499960 0.500030 0.141710 -0.153786
O1    O     O_R   0.500030 0.316850 0.620870 -0.588051
O2    O     O_R   0.499970 0.683150 0.379130 -0.588051
O3    O     O_R   0.500000 0.316860 0.379090 -0.581488
O4    O     O_R   0.500000 0.683140 0.620910 -0.581488
O5    O     O_R   0.417890 0.499960 0.620920 -0.584700
O6    O     O_R   0.582110 0.500040 0.379080 -0.584698
O7    O     O_R   0.417870 0.499970 0.379140 -0.585145
O8    O     O_R   0.582130 0.500030 0.620860 -0.585144
O9    O     O_2   0.851012 0.721536 0.495906 -0.531233
O10   O     O_2   0.148987 0.278476 0.504085 -0.531229
O11   O     O_2   0.850967 0.278547 0.502273 -0.531190
O12   O     O_2   0.149033 0.721466 0.497735 -0.531194
C45   C     C_3   0.207207 0.498485 0.231383 -0.833269
H21   H     H_    0.180037 0.413255 0.225146 0.247710
H22   H     H_    0.180024 0.583602 0.222559 0.247833
H23   H     H_    0.236767 0.498021 0.139224 0.218418
C46   C     C_3   0.792793 0.501590 0.768612 -0.833275
H24   H     H_    0.819980 0.416480 0.777455 0.247821
H25   H     H_    0.819959 0.586826 0.774825 0.247724
H26   H     H_    0.763234 0.502064 0.860772 0.218421
C47   C     C_3   0.209260 0.501449 0.773145 -0.821661
H27   H     H_    0.221900 0.586809 0.832825 0.230913
H28   H     H_    0.221921 0.416793 0.835482 0.231200
H29   H     H_    0.162298 0.501351 0.763703 0.239244
C48   C     C_3   0.790741 0.498501 0.226856 -0.821658
H30   H     H_    0.778074 0.583137 0.164491 0.231185
H31   H     H_    0.778105 0.413121 0.167206 0.230927
H32   H     H_    0.837703 0.498616 0.236299 0.239243

loop_
_geom_bond_atom_site_label_1
_geom_bond_atom_site_label_2
_ccdc_geom_bond_type
C46   H24   S    
Cu1   O1    S    
C18   C21   S    
C6    H12   S    
C36   C42   A    
C48   H30   S    
Cu2   O6    S    
C48   H32   S    
C4    C46   S    
Cu1   Cu2   S    
C31   N1    A    
C30   H8    S    
C1    O1    A    
C28   C29   S    
C35   C37   A    
C33   C35   A    
C32   O10   S    
C18   C20   S    
C7    C9    A    
C22   H20   S    
C17   H15   S    
C28   H4    S    
C40   C43   A    
C14   N1    S    
C12   C48   S    
Cu1   O8    S    
Cu2   O2    S    
C3    C13   A    
C32   N2    A    
C24   O6    A    
C27   C30   S    
C41   C43   A    
C42   C44   A    
C2    O2    A    
C30   N4    S    
C29   N3    S    
C25   C29   S    
C15   C20   S    
Cu1   N3    S    
C4    C6    A    
C34   N2    A    
C47   H27   S    
C5    C7    A    
C17   C19   S    
C6    C8    A    
Cu1   O4    S    
C9    H13   S    
C10   H14   S    
C25   H5    S    
C37   C38   A    
C26   H6    S    
C47   H28   S    
C44   H10   S    
C45   H21   S    
C41   H1    S    
C16   C18   S    
C42   H2    S    
C23   O7    A    
C9    C11   A    
C2    O4    A    
C10   C12   A    
C43   H9    S    
C45   H22   S    
C20   C22   S    
C26   C30   S    
C46   H25   S    
C3    C45   S    
C23   O5    A    
C33   N1    A    
C24   O8    A    
C15   C17   S    
C1    C20   S    
C16   C22   S    
C21   H19   S    
C2    C19   S    
C28   N4    S    
C12   C14   A    
C3    C5    A    
C27   N3    S    
Cu2   O7    S    
C48   H31   S    
C31   O9    S    
C39   C44   A    
C25   C27   S    
C34   O12   S    
C26   C28   S    
C17   C22   S    
C5    H11   S    
Cu1   O5    S    
C1    O3    A    
C36   C38   A    
C37   C39   A    
C47   H29   S    
C38   C40   A    
C11   C13   A    
C29   H7    S    
C16   C19   S    
C7    C23   S    
C8    C24   S    
C31   C39   A    
C34   C36   A    
C32   C40   A    
C4    C14   A    
C35   C41   A    
Cu2   N4    S    
C11   C47   S    
C15   C21   S    
C45   H23   S    
C8    C10   A    
C46   H26   S    
C26   N3    S    
C15   H17   S    
C18   H16   S    
C25   N4    S    
C16   H18   S    
C33   O11   S    
Cu2   O3    S    
C27   H3    S    
C19   C21   S    
C13   N2    S    
