data_mof_unit_43312.cif
_audit_creation_date              2012-12-10T19:06:25-0500
_audit_creation_method            fapswitch 2.2
_symmetry_space_group_name_H-M    P1
_symmetry_Int_Tables_number       1
_space_group_crystal_system       triclinic
_cell_length_a                    23.505472
_cell_length_b                    10.766407
_cell_length_c                    9.554373
_cell_angle_alpha                 89.833931
_cell_angle_beta                  89.628366
_cell_angle_gamma                 90.275053
_cell_volume                      2417.83109133

loop_
_atom_site_label
_atom_site_type_symbol
_atom_type_description
_atom_site_fract_x
_atom_site_fract_y
_atom_site_fract_z
_atom_type_partial_charge
C1    C     C_R   0.498526 0.262696 0.500062 0.870804
C2    C     C_R   0.969716 0.280491 0.506223 -0.157072
C3    C     C_R   0.029066 0.280242 0.506068 -0.148332
C4    C     C_R   0.059691 0.392604 0.503591 -0.018205
C5    C     C_R   0.030093 0.506094 0.501461 -0.015699
C6    C     C_R   0.060396 0.619332 0.498791 -0.015815
C7    C     C_R   0.030445 0.731944 0.497130 -0.150848
C8    C     C_R   0.971079 0.732172 0.497959 -0.157877
C9    C     C_R   0.119357 0.394694 0.503018 0.577193
C10   C     C_R   0.120065 0.616707 0.497575 0.562712
C11   C     C_R   0.239335 0.485362 0.372807 0.209416
C12   C     C_R   0.390947 0.500870 0.500243 0.849738
C13   C     C_R   0.298672 0.484087 0.374239 -0.206600
C14   C     C_R   0.328345 0.502706 0.499768 -0.063644
C15   C     C_R   0.297703 0.524259 0.623819 -0.211279
C16   C     C_R   0.238429 0.525052 0.622867 -0.126654
C17   C     C_R   0.209035 0.505222 0.497914 0.311023
C18   C     C_R   0.760517 0.461391 0.618573 -0.102753
C19   C     C_R   0.701225 0.459490 0.617590 -0.222122
C20   C     C_R   0.671527 0.502869 0.500198 -0.024846
C21   C     C_R   0.702088 0.549249 0.384502 -0.239802
C22   C     C_R   0.761397 0.551024 0.385541 -0.104357
C23   C     C_R   0.499137 0.737293 0.499434 0.862996
C24   C     C_R   0.790853 0.506751 0.502386 0.351254
C25   C     C_R   0.543389 0.064437 0.547833 0.021790
C26   C     C_R   0.496773 0.129505 0.497884 -0.158913
C27   C     C_R   0.452359 0.064976 0.429909 0.066281
C28   C     C_R   0.453581 0.933795 0.425692 0.198001
C29   C     C_R   0.497698 0.870515 0.495361 -0.193170
C30   C     C_R   0.543581 0.937026 0.547234 0.057769
C31   C     C_3   0.573490 0.930244 0.684975 0.075548
C32   C     C_3   0.573697 0.072051 0.684724 -0.493042
C33   C     C_R   0.529685 0.588351 0.072844 0.235434
C34   C     C_R   0.609009 0.500924 0.499758 0.795361
C35   C     C_R   0.466647 0.420189 0.075979 -0.119230
C36   C     C_R   0.465877 0.420480 0.926682 0.311130
C37   C     C_R   0.529698 0.588402 0.925526 0.199640
C38   C     C_3   0.592288 0.610517 0.918968 -0.472051
C39   C     C_3   0.592275 0.609846 0.077441 -0.510028
C40   C     C_R   0.880733 0.617689 0.500993 0.533146
C41   C     C_R   0.880106 0.395628 0.503968 0.534836
C42   C     C_R   0.939766 0.393123 0.504247 -0.013705
C43   C     C_R   0.970048 0.506338 0.502009 -0.015662
C44   C     C_R   0.940432 0.619782 0.500214 -0.012057
Cu1   Cu    Cu3+1 0.500000 0.499980 0.640670 0.966084
Cu2   Cu    Cu3+1 0.500000 0.500020 0.359330 0.957839
H1    H     H_    0.947428 0.192201 0.507934 0.189273
H2    H     H_    0.678678 0.422577 0.707808 0.144108
H3    H     H_    0.680268 0.585781 0.294269 0.147619
H4    H     H_    0.784532 0.586480 0.295425 0.147275
H5    H     H_    0.546811 0.888981 0.769901 0.130906
H6    H     H_    0.546762 0.112399 0.769048 0.178263
H7    H     H_    0.616560 0.115163 0.673587 0.204370
H8    H     H_    0.441181 0.353713 0.133944 0.179045
H9    H     H_    0.050823 0.191794 0.507624 0.191457
H10   H     H_    0.616045 0.531170 0.873676 0.214162
H11   H     H_    0.603069 0.702618 0.873628 0.207762
H12   H     H_    0.615495 0.529054 0.121031 0.217874
H13   H     H_    0.603295 0.701401 0.123711 0.190062
H14   H     H_    0.052745 0.820218 0.495169 0.192072
H15   H     H_    0.949325 0.820635 0.496634 0.189157
H16   H     H_    0.321431 0.468093 0.277066 0.179693
H17   H     H_    0.319472 0.541791 0.721159 0.166425
H18   H     H_    0.215200 0.541264 0.719301 0.163657
H19   H     H_    0.782967 0.427295 0.709436 0.145004
N1    N     N_R   0.851904 0.506749 0.502553 -0.469091
N2    N     N_R   0.148100 0.505555 0.499150 -0.465603
N3    N     N_R   0.500360 0.500930 0.147930 -0.200687
N4    N     N_R   0.500360 0.500890 0.852020 -0.204228
O1    O     O_R   0.500000 0.319640 0.618810 -0.573378
O2    O     O_2   0.850469 0.287937 0.503858 -0.535722
O3    O     O_2   0.148507 0.287055 0.506168 -0.502000
O4    O     O_2   0.149897 0.724099 0.494281 -0.513578
O5    O     O_R   0.500010 0.319680 0.381230 -0.568402
O6    O     O_R   0.417880 0.499940 0.618820 -0.555765
O7    O     O_R   0.417880 0.499980 0.381240 -0.575597
O8    O     O_R   0.499990 0.680320 0.618770 -0.586855
O9    O     O_R   0.500000 0.680360 0.381190 -0.571350
O10   O     O_R   0.582120 0.500020 0.618760 -0.584172
O11   O     O_R   0.582120 0.500060 0.381180 -0.586218
O12   O     O_2   0.851689 0.725533 0.501287 -0.542197
I1    I     I_    0.380886 0.163233 0.348546 -0.412886
N5    N     N_2   0.408657 0.864840 0.362956 -0.421284
H20   H     H_    0.368502 0.892739 0.392834 0.285925
C45   C     C_3   0.414254 0.848741 0.213121 -0.598035
H21   H     H_    0.408631 0.938770 0.158094 0.232137
H22   H     H_    0.381214 0.782629 0.176374 0.226564
H23   H     H_    0.456660 0.810659 0.185510 0.230647
N6    N     N_2   0.630280 0.876084 0.678936 -0.429205
H24   H     H_    0.654211 0.894372 0.766645 0.256241
C46   C     C_3   0.662718 0.880206 0.549290 -0.591664
H25   H     H_    0.704308 0.833761 0.564728 0.240818
H26   H     H_    0.670597 0.977839 0.516528 0.227010
H27   H     H_    0.639863 0.829375 0.465547 0.215363
N7    N     N_2   0.431633 0.332976 0.854352 -0.379459
H28   H     H_    0.449734 0.245997 0.850240 0.243989
C47   C     C_3   0.372159 0.328523 0.894460 -0.655354
H29   H     H_    0.366465 0.274635 0.992924 0.226604
H30   H     H_    0.347501 0.282181 0.810615 0.253203
H31   H     H_    0.355150 0.423668 0.909354 0.225690
I2    I     I_    0.197407 0.458913 0.179516 -0.313882

loop_
_geom_bond_atom_site_label_1
_geom_bond_atom_site_label_2
_ccdc_geom_bond_type
C37   N4    A    
N7    H28   S    
C41   C42   A    
C32   H7    S    
C19   C20   A    
C9    O3    S    
C21   H3    S    
C47   H29   S    
C7    C8    A    
C10   N2    A    
C18   H19   S    
C26   C27   A    
C29   C30   A    
C18   C24   A    
C1    O5    A    
C23   C29   S    
C28   C29   A    
C30   C31   S    
C10   O4    S    
C15   C16   A    
C18   C19   A    
C32   H6    S    
C34   O11   A    
C3    H9    S    
C13   H16   S    
C31   C32   S    
C16   C17   A    
C31   N6    S    
N6    C46   S    
C24   N1    S    
C8    H15   S    
C41   O2    S    
C20   C34   S    
C25   C32   S    
C5    C43   A    
C40   N1    A    
C21   C22   A    
C28   N5    S    
Cu2   O7    S    
C47   H30   S    
C45   H22   S    
C38   C39   S    
C17   N2    S    
Cu1   N4    S    
Cu1   O10   S    
C46   H25   S    
Cu2   O9    S    
C19   H2    S    
C25   C26   A    
C45   H21   S    
C39   H12   S    
C33   C37   A    
C35   C36   A    
C43   C44   A    
C9    N2    A    
Cu2   N3    S    
C37   C38   S    
C34   O10   A    
C46   H26   S    
C38   H11   S    
N5    H20   S    
C39   H13   S    
C11   I2    S    
C33   C39   S    
C23   O8    A    
C41   N1    A    
N5    C45   S    
C12   C14   S    
C12   O7    A    
C1    C26   S    
C22   C24   A    
C42   C43   A    
C3    C4    A    
C7    H14   S    
Cu2   O5    S    
C47   H31   S    
C36   N4    A    
C45   H23   S    
C25   C30   A    
C11   C17   A    
Cu1   O1    S    
C40   O12   S    
C27   I1    S    
C8    C44   A    
C31   H5    S    
C4    C5    A    
C6    C10   A    
N7    C47   S    
C6    C7    A    
C2    H1    S    
C1    O1    A    
C22   H4    S    
Cu1   O6    S    
C2    C3    A    
C4    C9    A    
C46   H27   S    
Cu2   O11   S    
C11   C13   A    
C36   N7    S    
C5    C6    A    
C35   N3    A    
C2    C42   A    
C23   O9    A    
Cu1   Cu2   S    
C40   C44   A    
C38   H10   S    
C20   C21   A    
C12   O6    A    
C27   C28   A    
C15   H17   S    
C14   C15   A    
Cu1   O8    S    
C16   H18   S    
N6    H24   S    
C13   C14   A    
C33   N3    A    
C35   H8    S    
