data_mof_unit_52621.cif
_audit_creation_date              2012-12-10T16:51:29-0500
_audit_creation_method            fapswitch 2.2
_symmetry_space_group_name_H-M    P1
_symmetry_Int_Tables_number       1
_space_group_crystal_system       triclinic
_cell_length_a                    7.82682
_cell_length_b                    8.56885
_cell_length_c                    12.11319
_cell_angle_alpha                 92.325631
_cell_angle_beta                  101.245368
_cell_angle_gamma                 94.186123
_cell_volume                      793.422004172

loop_
_atom_site_label
_atom_site_type_symbol
_atom_type_description
_atom_site_fract_x
_atom_site_fract_y
_atom_site_fract_z
_atom_type_partial_charge
C1    C     C_R   0.044795 0.794772 0.497603 0.973305
C2    C     C_R   0.395347 0.478251 0.989833 0.085284
C3    C     C_R   0.310156 0.430126 0.879583 0.023620
C4    C     C_R   0.568075 0.438320 0.026406 0.041383
C5    C     C_R   0.642491 0.328765 0.961871 0.088203
C6    C     C_R   0.543887 0.263957 0.858819 0.227796
C7    C     C_R   0.379669 0.314591 0.818722 -0.225558
C8    C     C_R   0.670283 0.508772 0.124840 -0.238146
C9    C     C_R   0.903642 0.345372 0.108991 -0.205026
C10   C     C_R   0.159066 0.501921 0.831946 -0.091323
C11   C     C_2   0.068309 0.958571 0.496727 -0.381957
C12   C     C_R   0.106035 0.503374 0.710268 0.868692
C13   C     C_2   0.932707 0.041656 0.505496 -0.353451
C14   C     C_R   0.955566 0.205299 0.503184 0.963877
C15   C     C_R   0.892196 0.487795 0.289677 0.856539
C16   C     C_R   0.812526 0.285870 0.003473 -0.139718
C17   C     C_R   0.829293 0.454499 0.170200 -0.065266
C18   C     C_R   0.073133 0.591688 0.900146 -0.159644
C19   C     C_R   0.143724 0.619227 0.014036 -0.127037
C20   C     C_R   0.304884 0.565706 0.058753 -0.182590
H1    H     H_    0.028069 0.301947 0.144339 0.159886
H2    H     H_    0.805039 0.990107 0.513952 0.200837
H3    H     H_    0.469673 0.375103 0.416366 0.190644
H4    H     H_    0.530338 0.624831 0.583688 0.207448
H5    H     H_    0.873303 0.202274 0.957568 0.185620
H6    H     H_    0.625615 0.602645 0.171207 0.147366
H7    H     H_    0.954523 0.644663 0.864758 0.169194
H8    H     H_    0.353522 0.591094 0.147795 0.137316
H9    H     H_    0.076453 0.686899 0.067063 0.148094
H10   H     H_    0.306022 0.261258 0.739564 0.196854
H11   H     H_    0.196082 0.010164 0.488516 0.192163
N1    N     N_2   0.434800 0.456690 0.470850 -0.168099
N2    N     N_2   0.565200 0.543310 0.529150 -0.158511
O1    O     O_R   0.893060 0.738880 0.507150 -0.609073
O2    O     O_R   0.172250 0.711130 0.488470 -0.619533
O3    O     O_R   0.944700 0.520730 0.667600 -0.599403
O4    O     O_R   0.223890 0.492980 0.648920 -0.614586
O5    O     O_R   0.827750 0.288870 0.511530 -0.600553
O6    O     O_R   0.106940 0.261120 0.492850 -0.619568
O7    O     O_R   0.776110 0.507020 0.351080 -0.624348
O8    O     O_R   0.055300 0.479270 0.332400 -0.623375
Zn1   Zn    Zn3+2 0.813580 0.518530 0.512470 0.970807
Zn2   Zn    Zn3+2 0.186420 0.481470 0.487530 0.948021
Br1   Br    Br    0.627706 0.110873 0.766291 -0.576186

loop_
_geom_bond_atom_site_label_1
_geom_bond_atom_site_label_2
_ccdc_geom_bond_type
O4    Zn2   S    
C2    C4    A    
C6    C7    A    
H4    N2    S    
C14   O5    A    
C8    H6    S    
O3    Zn1   S    
C8    C17   A    
O1    Zn1   S    
C4    C8    A    
H3    N1    S    
O7    Zn1   S    
C2    C3    A    
C11   H11   S    
C3    C10   A    
C6    Br1   S    
C13   C14   S    
N1    N2    D    
O8    Zn2   S    
C9    H1    S    
C10   C12   S    
C10   C18   A    
N2    Zn1   S    
C9    C17   A    
C9    C16   A    
C13   H2    S    
O5    Zn1   S    
C3    C7    A    
C5    C6    A    
C15   O7    A    
C12   O3    A    
C15   O8    A    
C2    C20   A    
C19   H9    S    
C11   C13   D    
O2    Zn2   S    
C1    O1    A    
C1    O2    A    
C15   C17   S    
C18   C19   A    
C12   O4    A    
C16   H5    S    
C7    H10   S    
C5    C16   A    
O6    Zn2   S    
C20   H8    S    
C14   O6    A    
N1    Zn2   S    
C18   H7    S    
C19   C20   A    
C4    C5    A    
C1    C11   S    
