data_mof_unit_7492.cif
_audit_creation_date              2012-12-11T14:52:45-0500
_audit_creation_method            fapswitch 2.2
_symmetry_space_group_name_H-M    P1
_symmetry_Int_Tables_number       1
_space_group_crystal_system       triclinic
_cell_length_a                    19.230584
_cell_length_b                    10.911132
_cell_length_c                    18.749502
_cell_angle_alpha                 90.229627
_cell_angle_beta                  90.305831
_cell_angle_gamma                 89.643109
_cell_volume                      3933.99657473

loop_
_atom_site_label
_atom_site_type_symbol
_atom_type_description
_atom_site_fract_x
_atom_site_fract_y
_atom_site_fract_z
_atom_type_partial_charge
C1    C     C_R   0.271666 0.044198 0.852749 0.537882
C2    C     C_R   0.698285 0.532594 0.036565 -0.148465
C3    C     C_3   0.010778 0.329719 0.069218 0.055563
C4    C     C_3   0.355174 0.835116 0.977479 -0.371075
C5    C     C_3   0.644642 0.837917 0.022758 -0.369241
C6    C     C_3   0.855153 0.335061 0.977511 -0.371120
C7    C     C_3   0.144627 0.337976 0.022768 -0.369486
C8    C     C_3   0.067794 0.670309 0.599661 -0.289252
C9    C     C_3   0.921583 0.729981 0.429032 -0.296450
C10   C     C_3   0.592661 0.240275 0.566581 -0.286103
C11   C     C_3   0.427487 0.249623 0.464851 -0.339458
C12   C     C_3   0.355232 0.644861 0.395477 -0.272330
C13   C     C_R   0.801690 0.031230 0.963042 -0.148406
C14   C     C_3   0.628667 0.684009 0.594537 -0.290623
C15   C     C_3   0.850425 0.144954 0.407311 -0.277046
C16   C     C_3   0.104933 0.024428 0.614056 -0.278555
C17   C     C_3   0.456426 0.576347 0.562504 -0.364406
C18   C     C_3   0.537291 0.589776 0.439266 -0.347475
C19   C     C_3   0.940999 0.090267 0.554341 -0.369214
C20   C     C_3   0.040789 0.082198 0.440595 -0.372887
C21   C     C_R   0.198281 0.032598 0.036559 -0.148495
C22   C     C_R   0.299222 0.520670 0.037185 -0.152084
C23   C     C_R   0.700638 0.522447 0.962405 -0.152361
C24   C     C_R   0.799218 0.020657 0.037182 -0.152008
C25   C     C_R   0.200628 0.022463 0.962397 -0.152167
C26   C     C_R   0.248234 0.584984 0.076150 0.009766
C27   C     C_R   0.751733 0.585580 0.923862 0.011322
C28   C     C_R   0.748223 0.084959 0.076144 0.010352
C29   C     C_R   0.728342 0.044089 0.147214 0.545572
C30   C     C_R   0.251714 0.085612 0.923851 0.011686
C31   C     C_R   0.202862 0.665113 0.040657 -0.156864
C32   C     C_R   0.797207 0.664424 0.959751 -0.156028
C33   C     C_R   0.702846 0.165082 0.040652 -0.156904
C34   C     C_R   0.297183 0.164466 0.959740 -0.155757
C35   C     C_R   0.203173 0.671028 0.967319 -0.148156
C36   C     C_R   0.797042 0.669794 0.033058 -0.148986
C37   C     C_R   0.703168 0.171015 0.967316 -0.148367
C38   C     C_R   0.297027 0.169821 0.033048 -0.149086
C39   C     C_R   0.252562 0.604682 0.927450 0.019151
C40   C     C_R   0.771672 0.544184 0.852755 0.539706
C41   C     C_R   0.747574 0.604537 0.072523 0.018753
C42   C     C_R   0.752568 0.104692 0.927450 0.019049
C43   C     C_R   0.247570 0.104545 0.072517 0.018217
C44   C     C_R   0.468053 0.702310 0.529967 0.031328
C45   C     C_R   0.500586 0.706040 0.464599 0.016734
C46   C     C_R   0.975801 0.205907 0.530285 -0.001076
C47   C     C_R   0.013614 0.204689 0.467922 0.006794
C48   C     C_R   0.502682 0.819340 0.426177 0.001863
C49   C     C_R   0.451324 0.815132 0.564387 0.011110
C50   C     C_R   0.023469 0.317706 0.431612 0.018531
C51   C     C_R   0.228347 0.544101 0.147219 0.543986
C52   C     C_R   0.962881 0.318653 0.565333 0.010462
C53   C     C_R   0.479334 0.927273 0.457874 -0.184448
C54   C     C_R   0.454912 0.925537 0.527240 -0.171790
C55   C     C_R   0.999974 0.427008 0.461537 -0.157451
C56   C     C_R   0.973206 0.428173 0.529537 -0.160666
C57   C     C_R   0.470119 0.821921 0.855421 0.554056
C58   C     C_R   0.529910 0.821987 0.144576 0.547421
C59   C     C_R   0.970118 0.321922 0.855421 0.554773
C60   C     C_R   0.029910 0.321987 0.144576 0.553413
C61   C     C_R   0.171665 0.562721 0.555641 0.124550
C62   C     C_3   0.529244 0.728856 0.970666 -0.110011
C63   C     C_R   0.821826 0.596222 0.455194 0.139778
C64   C     C_R   0.668660 0.066629 0.552406 0.122476
C65   C     C_R   0.314766 0.133777 0.463403 0.145096
C66   C     C_R   0.163115 0.545913 0.482048 -0.161969
C67   C     C_R   0.823457 0.599839 0.528836 -0.127129
C68   C     C_R   0.659404 0.034628 0.480638 -0.165317
C69   C     C_R   0.308831 0.142080 0.536616 -0.135761
C70   C     C_R   0.220858 0.523494 0.438318 0.010188
C71   C     C_R   0.764859 0.568885 0.568675 0.013958
C72   C     C_R   0.717309 0.008622 0.438555 0.014895
C73   C     C_3   0.472026 0.728149 0.028719 -0.109985
C74   C     C_R   0.256465 0.079286 0.572254 0.009463
C75   C     C_R   0.286945 0.510208 0.469616 0.133595
C76   C     C_R   0.702874 0.539679 0.534306 0.110060
C77   C     C_R   0.782751 0.994437 0.471490 0.126394
C78   C     C_R   0.204292 0.017994 0.532888 0.117661
C79   C     C_R   0.291607 0.504544 0.543250 -0.137800
C80   C     C_R   0.703935 0.520364 0.460755 -0.142902
C81   C     C_R   0.786011 0.989738 0.545716 -0.158487
C82   C     C_R   0.209117 0.012537 0.459194 -0.152699
C83   C     C_R   0.238961 0.554444 0.584657 0.021537
C84   C     C_3   0.029247 0.228873 0.970662 -0.110234
C85   C     C_R   0.758628 0.567489 0.420659 -0.004527
C86   C     C_R   0.735710 0.053484 0.584156 0.016220
C87   C     C_R   0.258812 0.081438 0.424284 -0.007136
C88   C     C_R   0.261011 0.638123 0.852488 0.536964
C89   C     C_R   0.739053 0.638182 0.147528 0.532498
C90   C     C_R   0.761014 0.138132 0.852490 0.534747
C91   C     C_R   0.239052 0.138185 0.147526 0.532795
C92   C     C_R   0.272259 0.044793 0.645284 0.535544
C93   C     C_R   0.708750 0.995984 0.361330 0.566778
C94   C     C_R   0.774400 0.541665 0.643739 0.537784
C95   C     C_3   0.972030 0.228140 0.028716 -0.109900
C96   C     C_R   0.210194 0.500682 0.362181 0.547192
C97   C     C_R   0.436197 0.817308 0.640236 0.565109
C98   C     C_R   0.533009 0.821633 0.355069 0.532272
C99   C     C_R   0.939982 0.318501 0.639161 0.557138
C100  C     C_R   0.054395 0.318775 0.361296 0.533888
C101  C     C_R   0.257710 0.628084 0.647632 0.562955
C102  C     C_R   0.741813 0.630677 0.353768 0.535940
C103  C     C_R   0.757325 0.128667 0.646839 0.549537
C104  C     C_R   0.241772 0.133169 0.354675 0.532463
C105  C     C_3   0.471029 0.931178 0.029825 -0.120406
C106  C     C_R   0.301686 0.531225 0.963043 -0.148366
C107  C     C_3   0.527566 0.931879 0.970870 -0.119458
C108  C     C_3   0.971009 0.431168 0.029827 -0.120356
C109  C     C_3   0.027545 0.431894 0.970871 -0.119413
C110  C     C_3   0.432625 0.829634 0.988534 -0.009350
C111  C     C_3   0.567302 0.830836 0.011512 -0.008521
C112  C     C_3   0.932613 0.329614 0.988533 -0.008960
C113  C     C_3   0.067292 0.330863 0.011509 -0.009190
C114  C     C_3   0.489143 0.829902 0.930817 0.056270
C115  C     C_3   0.510786 0.829717 0.069219 0.057071
C116  C     C_3   0.989132 0.329906 0.930817 0.056350
Cr1   Cr    Cr6+3 0.229630 0.835900 0.747350 0.990107
Cr2   Cr    Cr6+3 0.614200 0.677120 0.250660 0.989295
Cr3   Cr    Cr6+3 0.885800 0.177120 0.749340 0.986245
Cr4   Cr    Cr6+3 0.114200 0.177120 0.250660 0.988881
Cr5   Cr    Cr6+3 0.770370 0.835900 0.252650 0.991521
Cr6   Cr    Cr6+3 0.729630 0.335900 0.747350 1.005111
Cr7   Cr    Cr6+3 0.270370 0.335900 0.252650 0.998772
Cr8   Cr    Cr6+3 0.387410 0.989850 0.750850 1.007076
Cr9   Cr    Cr6+3 0.612590 0.989850 0.249150 1.000560
Cr10  Cr    Cr6+3 0.887410 0.489850 0.750850 1.001144
Cr11  Cr    Cr6+3 0.112590 0.489850 0.249150 1.000400
Cr12  Cr    Cr6+3 0.385800 0.677120 0.749340 0.986114
H1    H     H_    0.112433 0.554100 0.458597 0.121125
H2    H     H_    0.551423 0.013846 0.946309 0.115950
H3    H     H_    0.946082 0.512531 0.054924 0.114612
H4    H     H_    0.051393 0.513870 0.946310 0.115784
H5    H     H_    0.554510 0.647465 0.945985 0.118724
H6    H     H_    0.447801 0.646147 0.052841 0.118564
H7    H     H_    0.054521 0.147492 0.945978 0.118027
H8    H     H_    0.947817 0.146124 0.052835 0.118863
H9    H     H_    0.341797 0.482795 0.933765 0.125422
H10   H     H_    0.658106 0.485105 0.065559 0.126231
H11   H     H_    0.841807 0.982811 0.933765 0.125138
H12   H     H_    0.870918 0.627359 0.554979 0.134660
H13   H     H_    0.158108 0.985097 0.065554 0.126058
H14   H     H_    0.334850 0.458126 0.063472 0.124879
H15   H     H_    0.664886 0.460977 0.935765 0.125250
H16   H     H_    0.834845 0.958113 0.063469 0.124977
H17   H     H_    0.164880 0.960986 0.935758 0.124786
H18   H     H_    0.163308 0.716629 0.069030 0.135629
H19   H     H_    0.836794 0.715137 0.931702 0.135667
H20   H     H_    0.663286 0.216587 0.069022 0.135777
H21   H     H_    0.336763 0.215191 0.931688 0.135944
H22   H     H_    0.165687 0.731744 0.942293 0.136127
H23   H     H_    0.608608 0.043887 0.456171 0.129607
H24   H     H_    0.834724 0.729287 0.058378 0.136322
H25   H     H_    0.665681 0.231729 0.942290 0.136429
H26   H     H_    0.334707 0.229320 0.058367 0.136288
H27   H     H_    0.483917 0.013225 0.430160 0.132048
H28   H     H_    0.440591 0.010464 0.553104 0.141189
H29   H     H_    0.004779 0.511872 0.433040 0.150251
H30   H     H_    0.961646 0.514314 0.554399 0.133189
H31   H     H_    0.339862 0.931696 0.973858 0.152166
H32   H     H_    0.341474 0.788903 0.927138 0.165660
H33   H     H_    0.328535 0.793745 0.023611 0.142948
H34   H     H_    0.349168 0.187664 0.566733 0.138326
H35   H     H_    0.658284 0.934823 0.027816 0.152228
H36   H     H_    0.659031 0.790709 0.072477 0.165168
H37   H     H_    0.672034 0.798611 0.976103 0.142739
H38   H     H_    0.841442 0.289239 0.927042 0.165377
H39   H     H_    0.828562 0.293262 0.023541 0.143417
H40   H     H_    0.839771 0.431652 0.974192 0.151878
H41   H     H_    0.158232 0.434880 0.027958 0.152409
H42   H     H_    0.159019 0.290598 0.072431 0.164773
H43   H     H_    0.172040 0.298862 0.976068 0.142901
H44   H     H_    0.087319 0.482037 0.602207 0.261718
H45   H     H_    0.336640 0.466644 0.568199 0.098728
H46   H     H_    0.017226 0.648443 0.624608 0.130212
H47   H     H_    0.058815 0.701600 0.544103 0.124466
H48   H     H_    0.089598 0.744659 0.632706 0.176939
H49   H     H_    0.887844 0.580111 0.365796 0.267642
H50   H     H_    0.925931 0.781189 0.378258 0.140154
H51   H     H_    0.974835 0.709757 0.448399 0.116612
H52   H     H_    0.895515 0.788559 0.469532 0.149533
H53   H     H_    0.569403 0.060948 0.591700 0.251787
H54   H     H_    0.551884 0.279061 0.601937 0.126360
H55   H     H_    0.572945 0.237987 0.510911 0.111172
H56   H     H_    0.660245 0.479418 0.433984 0.116654
H57   H     H_    0.638672 0.300749 0.567919 0.190678
H58   H     H_    0.393331 0.124918 0.385901 0.259593
H59   H     H_    0.463877 0.289856 0.425719 0.132136
H60   H     H_    0.457204 0.191900 0.502469 0.124147
H61   H     H_    0.402228 0.324645 0.494738 0.153565
H62   H     H_    0.364123 0.452588 0.398977 0.287465
H63   H     H_    0.403837 0.648002 0.364225 0.149973
H64   H     H_    0.355129 0.719015 0.436176 0.161057
H65   H     H_    0.312004 0.663227 0.357717 0.169524
H66   H     H_    0.628534 0.495696 0.609433 0.260865
H67   H     H_    0.832583 0.957811 0.572078 0.114584
H68   H     H_    0.579404 0.692714 0.623997 0.180477
H69   H     H_    0.627599 0.747577 0.548376 0.163568
H70   H     H_    0.670456 0.712360 0.632072 0.139571
H71   H     H_    0.861743 0.954017 0.398693 0.272487
H72   H     H_    0.901107 0.157246 0.380659 0.161856
H73   H     H_    0.846067 0.211624 0.451994 0.155198
H74   H     H_    0.809317 0.166286 0.367561 0.173456
H75   H     H_    0.162029 0.867675 0.581135 0.290544
H76   H     H_    0.061996 0.965142 0.631889 0.110337
H77   H     H_    0.085298 0.107665 0.587440 0.171509
H78   H     H_    0.171764 0.959671 0.428834 0.128539
H79   H     H_    0.131880 0.057099 0.662489 0.169282
H80   H     H_    0.503097 0.542270 0.591047 0.139408
H81   H     H_    0.413932 0.576613 0.599882 0.182412
H82   H     H_    0.442086 0.508446 0.521667 0.126408
H83   H     H_    0.508560 0.544930 0.394894 0.143657
H84   H     H_    0.589298 0.619288 0.423891 0.186653
H85   H     H_    0.547191 0.517426 0.478929 0.128699
H86   H     H_    0.964252 0.047471 0.601788 0.145283
H87   H     H_    0.888110 0.120800 0.566033 0.170975
H88   H     H_    0.939270 0.016312 0.514371 0.142682
H89   H     H_    0.446106 0.012548 0.054918 0.114510
H90   H     H_    0.005280 0.042877 0.399769 0.144369
H91   H     H_    0.092307 0.096489 0.418257 0.177352
H92   H     H_    0.048008 0.012397 0.482389 0.139773
N1    N     N_2   0.113292 0.564221 0.602089 -0.491557
N2    N     N_2   0.884345 0.616704 0.416477 -0.507861
N3    N     N_2   0.611717 0.118401 0.590274 -0.479417
N4    N     N_2   0.375626 0.177724 0.427847 -0.485930
N5    N     N_2   0.349007 0.526248 0.429792 -0.526172
N6    N     N_2   0.638724 0.558489 0.570160 -0.550309
N7    N     N_2   0.844866 0.020245 0.433650 -0.540788
N8    N     N_2   0.148878 0.954870 0.565678 -0.534557
O1    O     O_R   0.214270 0.709000 0.827470 -0.523899
O2    O     O_R   0.543270 0.717630 0.330160 -0.541389
O3    O     O_R   0.956730 0.217630 0.669840 -0.533101
O4    O     O_R   0.043270 0.217630 0.330160 -0.529765
O5    O     O_R   0.320620 0.625640 0.672920 -0.546342
O6    O     O_R   0.679380 0.625640 0.327080 -0.523287
O7    O     O_R   0.820620 0.125640 0.672920 -0.541454
O8    O     O_R   0.179380 0.125640 0.327080 -0.535065
O9    O     O_3   0.334280 0.834290 0.749180 -0.269660
O10   O     O_3   0.665720 0.834290 0.250820 -0.271062
O11   O     O_3   0.834280 0.334290 0.749180 -0.268691
O12   O     O_R   0.785730 0.709000 0.172530 -0.529631
O13   O     O_3   0.165720 0.334290 0.250820 -0.280100
O14   O     O_R   0.236160 0.958490 0.823130 -0.509839
O15   O     O_R   0.763840 0.958490 0.176870 -0.504235
O16   O     O_R   0.736160 0.458490 0.823130 -0.506628
O17   O     O_R   0.263840 0.458490 0.176870 -0.503987
O18   O     O_R   0.332080 0.075470 0.831280 -0.521028
O19   O     O_R   0.667920 0.075470 0.168720 -0.519928
O20   O     O_R   0.832080 0.575470 0.831280 -0.521606
O21   O     O_R   0.167920 0.575470 0.168720 -0.519838
O22   O     O_R   0.446300 0.918110 0.826620 -0.494928
O23   O     O_R   0.714270 0.209000 0.827470 -0.523834
O24   O     O_R   0.553700 0.918110 0.173380 -0.500407
O25   O     O_R   0.946300 0.418110 0.826620 -0.494838
O26   O     O_R   0.053700 0.418110 0.173380 -0.497365
O27   O     O_R   0.457110 0.716200 0.831760 -0.520993
O28   O     O_R   0.542890 0.716200 0.168240 -0.521408
O29   O     O_R   0.957110 0.216200 0.831760 -0.521858
O30   O     O_R   0.042890 0.216200 0.168240 -0.518672
O31   O     O_R   0.320980 0.624310 0.823030 -0.508596
O32   O     O_R   0.679020 0.624310 0.176970 -0.505114
O33   O     O_R   0.820980 0.124310 0.823030 -0.508774
O34   O     O_R   0.285730 0.209000 0.172530 -0.528336
O35   O     O_R   0.179020 0.124310 0.176970 -0.505264
O36   O     O_R   0.213890 0.710430 0.665540 -0.504365
O37   O     O_R   0.786110 0.710430 0.334460 -0.510423
O38   O     O_R   0.713890 0.210430 0.665540 -0.479432
O39   O     O_R   0.286110 0.210430 0.334460 -0.496863
O40   O     O_R   0.235810 0.959820 0.673020 -0.503779
O41   O     O_R   0.764190 0.959820 0.326980 -0.502216
O42   O     O_R   0.735810 0.459820 0.673020 -0.505559
O43   O     O_R   0.264190 0.459820 0.326980 -0.496339
O44   O     O_R   0.331700 0.076900 0.669350 -0.544675
O45   O     O_R   0.445950 0.919440 0.676520 -0.503783
O46   O     O_R   0.668300 0.076900 0.330650 -0.528650
O47   O     O_R   0.831700 0.576900 0.669350 -0.547065
O48   O     O_R   0.168300 0.576900 0.330650 -0.531807
O49   O     O_R   0.554050 0.919440 0.323480 -0.522049
O50   O     O_R   0.945950 0.419440 0.676520 -0.507225
O51   O     O_R   0.054050 0.419440 0.323480 -0.518516
O52   O     O_R   0.456730 0.717630 0.669840 -0.547527

loop_
_geom_bond_atom_site_label_1
_geom_bond_atom_site_label_2
_ccdc_geom_bond_type
C44   C49   A    
C39   C106  A    
C41   C89   S    
C55   C56   A    
C6    H38   S    
C84   H7    S    
C84   C113  S    
C15   H72   S    
C7    H43   S    
H53   N3    S    
H62   N5    S    
C20   H92   S    
C12   H65   S    
C79   H45   S    
C95   H8    S    
C58   O24   A    
Cr12  O27   S    
Cr11  O13   S    
C104  O39   A    
Cr7   O13   S    
Cr11  O48   S    
C105  C110  S    
C16   H79   S    
Cr4   O4    S    
C8    H47   S    
C22   C26   A    
C73   C110  S    
C32   H19   S    
C4    H32   S    
C53   C54   A    
C96   O43   A    
C105  C107  S    
C80   C85   A    
Cr6   O42   S    
H58   N4    S    
C8    H48   S    
C11   H59   S    
C5    H35   S    
C62   H5    S    
Cr9   O49   S    
C28   C29   S    
C51   O17   A    
C97   O52   A    
C96   O48   A    
C62   C114  S    
C17   H81   S    
C95   C112  S    
C82   C87   A    
C54   H28   S    
C71   C76   A    
C92   O44   A    
C99   O50   A    
C8    H46   S    
C4    H31   S    
Cr2   O32   S    
C86   C103  S    
C2    C41   A    
C74   C92   S    
Cr5   O10   S    
C94   O42   A    
C46   C52   A    
C25   C30   A    
C10   H57   S    
C108  C109  S    
C19   H88   S    
C103  O38   A    
C60   O30   A    
C37   C42   A    
C90   O33   A    
C78   C82   A    
C13   C42   A    
C108  H3    S    
C14   H68   S    
H44   N1    S    
C109  C116  S    
C15   H73   S    
Cr6   O23   S    
C98   O2    A    
C31   H18   S    
Cr11  O21   S    
C61   C66   A    
Cr8   O44   S    
C70   C96   S    
C87   C104  S    
C59   C116  S    
C79   C83   A    
C102  O37   A    
Cr8   O22   S    
C9    H50   S    
C62   C73   S    
C58   O28   A    
C35   H22   S    
C23   C27   A    
H49   N2    S    
C53   H27   S    
C82   H78   S    
C4    C110  S    
C110  C114  S    
Cr5   O41   S    
C67   C71   A    
C81   C86   A    
C88   O31   A    
C109  C113  S    
C66   H1    S    
C3    C60   S    
Cr2   O10   S    
C88   O1    A    
Cr1   O9    S    
C26   C31   A    
C84   C116  S    
C21   C43   A    
C63   C85   A    
C10   H55   S    
C29   O19   A    
C63   N2    S    
C23   H15   S    
C36   C41   A    
C89   O32   A    
C6    C112  S    
C39   C88   S    
C13   H11   S    
C107  H2    S    
Cr10  O11   S    
C9    N2    S    
C64   C86   A    
H75   N8    S    
C40   O20   A    
C34   H21   S    
Cr4   O30   S    
C65   C87   A    
C47   C50   A    
C63   C67   A    
Cr9   O46   S    
C17   H80   S    
C100  O4    A    
C78   N8    S    
C48   C53   A    
C12   H64   S    
C14   H69   S    
C6    H40   S    
C19   C46   S    
C7    H42   S    
C62   C111  S    
C97   O45   A    
C76   N6    S    
C11   H60   S    
C2    H10   S    
Cr12  O31   S    
C37   H25   S    
C75   N5    S    
C69   H34   S    
C17   H82   S    
C61   C83   A    
Cr5   O37   S    
C94   O47   A    
C71   C94   S    
C30   C34   A    
C36   H24   S    
C106  H9    S    
Cr6   O16   S    
C5    C111  S    
Cr12  O9    S    
C22   C106  A    
Cr10  O20   S    
C43   C91   S    
C108  C112  S    
C64   N3    S    
C15   N7    S    
C42   C90   S    
C84   C95   S    
C57   O27   A    
C35   C39   A    
C5    H36   S    
C107  C114  S    
C20   C47   S    
C72   C77   A    
C33   H20   S    
Cr7   O39   S    
C61   N1    S    
C81   H67   S    
C14   H70   S    
Cr8   O45   S    
Cr2   O6    S    
Cr6   O11   S    
C104  O8    A    
C27   C40   S    
C68   C72   A    
Cr4   O35   S    
C59   O25   A    
C22   H14   S    
C109  H4    S    
C60   O26   A    
C7    C113  S    
C29   O15   A    
C69   C74   A    
Cr11  O26   S    
C67   H12   S    
C9    H52   S    
C40   O16   A    
C91   O34   A    
Cr2   O28   S    
C10   N3    S    
C72   C93   S    
Cr3   O7    S    
Cr3   O29   S    
C28   C33   A    
C16   H77   S    
C5    H37   S    
C7    H41   S    
C100  O51   A    
C3    C113  S    
C58   C115  S    
C10   H54   S    
C20   H91   S    
Cr2   O2    S    
Cr9   O19   S    
C18   H85   S    
C76   C80   A    
C38   H26   S    
C8    N1    S    
C18   C45   S    
C64   C68   A    
C112  C116  S    
C15   H74   S    
C91   O35   A    
C44   C45   A    
Cr6   O38   S    
Cr7   O17   S    
C45   C48   A    
Cr7   O43   S    
Cr12  O5    S    
Cr5   O15   S    
C12   H63   S    
C21   C25   A    
C46   C47   A    
C16   N8    S    
C103  O7    A    
C83   C101  S    
C18   H84   S    
C27   C32   A    
C34   C38   A    
C107  C111  S    
C105  C115  S    
Cr9   O24   S    
C24   C28   A    
C93   O46   A    
C98   O49   A    
C9    H51   S    
C11   N4    S    
C99   O3    A    
C32   C36   A    
C14   N6    S    
C57   C114  S    
Cr3   O3    S    
C3    C108  S    
C102  O6    A    
C77   N7    S    
C48   C98   S    
C90   O23   A    
C66   C70   A    
C52   C99   S    
C50   C100  S    
C50   C55   A    
C73   C115  S    
Cr10  O47   S    
C1    O18   A    
C19   H86   S    
Cr11  O51   S    
Cr1   O36   S    
H66   N6    S    
C18   H83   S    
C17   C44   S    
C21   H13   S    
C38   C43   A    
C68   H23   S    
C16   H76   S    
C26   C51   S    
Cr1   O14   S    
C105  H89   S    
C101  O5    A    
Cr8   O9    S    
Cr3   O11   S    
C12   N5    S    
Cr3   O33   S    
H71   N7    S    
C24   H16   S    
C65   C69   A    
C31   C35   A    
Cr1   O1    S    
C1    C30   S    
C3    C95   S    
Cr10  O25   S    
C19   H87   S    
Cr4   O13   S    
C80   H56   S    
Cr8   O18   S    
C51   O21   A    
C33   C37   A    
Cr1   O40   S    
Cr10  O50   S    
C1    O14   A    
C85   C102  S    
C49   C97   S    
Cr5   O12   S    
C92   O40   A    
C52   C56   A    
C56   H30   S    
C55   H29   S    
C93   O41   A    
C73   H6    S    
C13   C24   A    
C111  C115  S    
C77   C81   A    
C74   C78   A    
C101  O36   A    
C2    C23   A    
C20   H90   S    
C4    H33   S    
C59   O29   A    
C70   C75   A    
C25   H17   S    
Cr7   O34   S    
C11   H61   S    
C57   O22   A    
C6    H39   S    
C75   C79   A    
Cr12  O52   S    
C65   N4    S    
Cr4   O8    S    
Cr9   O10   S    
C49   C54   A    
C89   O12   A    
