data_mof_unit_68257.cif
_audit_creation_date              2012-12-10T16:53:54-0500
_audit_creation_method            fapswitch 2.2
_symmetry_space_group_name_H-M    P1
_symmetry_Int_Tables_number       1
_space_group_crystal_system       triclinic
_cell_length_a                    7.91824
_cell_length_b                    8.729523
_cell_length_c                    10.637559
_cell_angle_alpha                 92.075952
_cell_angle_beta                  85.018354
_cell_angle_gamma                 92.799591
_cell_volume                      731.264389096

loop_
_atom_site_label
_atom_site_type_symbol
_atom_type_description
_atom_site_fract_x
_atom_site_fract_y
_atom_site_fract_z
_atom_type_partial_charge
C1    C     C_R   0.544456 0.793822 0.501956 0.801995
C2    C     C_3   0.373708 0.629610 0.942173 -0.112651
C3    C     C_3   0.380287 0.634691 0.086471 -0.539643
C4    C     C_3   0.447602 0.344528 0.928392 0.364685
C5    C     C_3   0.681057 0.561335 0.918419 0.267299
C6    C     C_3   0.499750 0.510765 0.879557 0.018686
C7    C     C_3   0.022777 0.373356 0.355755 -0.254845
C8    C     C_3   0.924330 0.220629 0.334871 -0.314871
C9    C     C_3   0.026454 0.109111 0.248294 -0.983364
C10   C     C_3   0.385977 0.790821 0.883774 -0.252457
C11   C     C_3   0.208857 0.852021 0.873355 -0.457091
C12   C     C_3   0.502170 0.513053 0.123074 0.031245
C13   C     C_3   0.200325 0.935276 0.750754 -0.835845
C14   C     C_3   0.275144 0.269511 0.885529 -0.464336
C15   C     C_3   0.100526 0.336184 0.926942 -0.485702
C16   C     C_3   0.954303 0.215460 0.923059 -0.765766
C17   C     C_3   0.444885 0.350085 0.075407 0.219538
C18   C     C_3   0.682089 0.559017 0.062597 -0.463241
C19   C     C_2   0.565732 0.956738 0.521489 0.273479
C20   C     C_2   0.437908 0.042780 0.494734 -0.461463
C21   C     C_R   0.500924 0.504880 0.741754 0.914081
C22   C     C_R   0.456129 0.206065 0.502991 0.974823
C23   C     C_R   0.501384 0.510443 0.259290 0.874818
H1    H     H_    0.248937 0.583004 0.926517 0.161252
H2    H     H_    0.495322 0.198474 0.196731 0.313341
H3    H     H_    0.776502 0.937493 0.601570 0.359122
H4    H     H_    0.071849 0.163893 0.158987 0.277195
H5    H     H_    0.137947 0.073174 0.294501 0.259729
H6    H     H_    0.945601 0.005461 0.227036 0.273701
H7    H     H_    0.896795 0.165299 0.426762 0.287529
H8    H     H_    0.804543 0.240359 0.292517 0.272081
H9    H     H_    0.024190 0.444098 0.270900 0.146103
H10   H     H_    0.149317 0.340718 0.368789 0.247353
H11   H     H_    0.058427 0.625663 0.695319 0.336074
H12   H     H_    0.776808 0.477708 0.086988 0.190545
H13   H     H_    0.313923 0.012312 0.733221 0.263533
H14   H     H_    0.197196 0.852281 0.670464 0.290236
H15   H     H_    0.083367 0.999506 0.753243 0.272224
H16   H     H_    0.109496 0.759759 0.873682 0.209104
H17   H     H_    0.174610 0.924405 0.958206 0.214890
H18   H     H_    0.461388 0.874371 0.939966 0.214488
H19   H     H_    0.455070 0.786540 0.788537 0.233330
H20   H     H_    0.917825 0.196907 0.825025 0.296484
H21   H     H_    0.984461 0.105017 0.961076 0.249648
H22   H     H_    0.843771 0.255561 0.983206 0.307395
H23   H     H_    0.321240 0.992794 0.460749 0.143308
H24   H     H_    0.096301 0.388583 0.023464 0.206466
H25   H     H_    0.072707 0.423894 0.859656 0.242833
H26   H     H_    0.284824 0.255340 0.781382 0.245000
H27   H     H_    0.269774 0.154566 0.924544 0.227495
H28   H     H_    0.840491 0.737520 0.903922 0.329915
H29   H     H_    0.423951 0.750063 0.122109 0.202573
H30   H     H_    0.249827 0.612293 0.132032 0.174093
H31   H     H_    0.313486 0.326045 0.117949 0.070441
H32   H     H_    0.775681 0.480612 0.875685 0.184229
H33   H     H_    0.723347 0.673662 0.101546 0.178824
H34   H     H_    0.548969 0.141119 0.899908 0.372635
N1    N     N_2   0.950330 0.457950 0.465890 0.019792
N2    N     N_2   0.049670 0.542050 0.534110 0.105128
O1    O     O_R   0.389250 0.738570 0.508370 -0.648867
O2    O     O_3   0.550079 0.239175 0.116416 -0.787010
O3    O     O_3   0.704538 0.020371 0.579021 -0.748996
O4    O     O_3   0.968855 0.604097 0.637632 -0.636954
O5    O     O_3   0.728421 0.708403 0.874134 -0.774796
O6    O     O_R   0.678390 0.711620 0.486510 -0.586117
O7    O     O_R   0.355430 0.513500 0.696140 -0.673677
O8    O     O_R   0.644580 0.486550 0.674270 -0.518312
O9    O     O_R   0.321610 0.288380 0.513490 -0.667138
O10   O     O_R   0.610750 0.261430 0.491630 -0.565465
O11   O     O_R   0.355420 0.513450 0.325730 -0.683088
O12   O     O_R   0.644570 0.486500 0.303860 -0.633163
O13   O     O_3   0.576921 0.248863 0.876087 -0.770705
Zn1   Zn    Zn3+2 0.306940 0.517990 0.514600 0.932060
Zn2   Zn    Zn3+2 0.693060 0.482010 0.485400 1.034768

loop_
_geom_bond_atom_site_label_1
_geom_bond_atom_site_label_2
_ccdc_geom_bond_type
C16   H22   S    
C12   C17   S    
O12   Zn2   S    
C1    O6    A    
C3    H29   S    
N1    Zn2   S    
C9    H5    S    
C5    C18   S    
C9    H6    S    
C21   O7    A    
C10   H19   S    
C11   C13   S    
C18   H12   S    
N2    Zn1   S    
C7    N1    S    
N2    O4    S    
C19   C20   D    
C12   C23   S    
C18   H33   S    
C8    H7    S    
O11   Zn1   S    
C2    C3    S    
H3    O3    S    
C7    C8    S    
O8    Zn2   S    
C2    C6    S    
C21   O8    A    
C10   H18   S    
C4    C14   S    
C3    H30   S    
C23   O11   A    
C22   O9    A    
C13   H15   S    
C14   H27   S    
C15   H25   S    
C4    C17   S    
H11   O4    S    
C8    H8    S    
C20   C22   S    
C6    C21   S    
H34   O13   S    
C2    H1    S    
C5    C6    S    
C11   H16   S    
N1    N2    D    
C1    C19   S    
C14   H26   S    
C10   C11   S    
C7    H10   S    
C19   O3    S    
C11   H17   S    
C2    C10   S    
C23   O12   A    
O1    Zn1   S    
C4    O13   S    
C7    H9    S    
C9    H4    S    
C13   H13   S    
C4    C6    S    
C1    O1    A    
C12   C18   S    
O6    Zn2   S    
C16   H21   S    
C14   C15   S    
C15   H24   S    
H2    O2    S    
C3    C12   S    
C22   O10   A    
C17   O2    S    
O9    Zn1   S    
O7    Zn1   S    
C13   H14   S    
C17   H31   S    
C5    H32   S    
O10   Zn2   S    
C20   H23   S    
H28   O5    S    
C15   C16   S    
C5    O5    S    
C8    C9    S    
C16   H20   S    
