data_mof_unit_50604.cif
_audit_creation_date              2012-12-10T18:33:30-0500
_audit_creation_method            fapswitch 2.2
_symmetry_space_group_name_H-M    P1
_symmetry_Int_Tables_number       1
_space_group_crystal_system       triclinic
_cell_length_a                    8.730072
_cell_length_b                    15.096299
_cell_length_c                    13.895609
_cell_angle_alpha                 90.537773
_cell_angle_beta                  98.501008
_cell_angle_gamma                 91.147835
_cell_volume                      1810.70207582

loop_
_atom_site_label
_atom_site_type_symbol
_atom_type_description
_atom_site_fract_x
_atom_site_fract_y
_atom_site_fract_z
_atom_type_partial_charge
C1    C     C_R   0.512798 0.329732 0.500734 0.814573
C2    C     C_R   0.487202 0.670268 0.499266 0.814573
C3    C     C_R   0.577181 0.569985 0.117705 0.334289
C4    C     C_R   0.422819 0.430015 0.882295 0.334289
C5    C     C_R   0.586531 0.562012 0.219337 -0.060658
C6    C     C_R   0.413468 0.437988 0.780663 -0.060658
C7    C     C_R   0.392788 0.449769 0.198305 0.488983
C8    C     C_R   0.607212 0.550231 0.801695 0.488982
C9    C     C_R   0.376714 0.459103 0.096525 0.296290
C10   C     C_R   0.623285 0.540897 0.903475 0.296289
C11   C     C_R   0.491654 0.505708 0.054236 -0.054723
C12   C     C_R   0.508346 0.494292 0.945764 -0.054723
C13   C     C_R   0.203566 0.499876 0.474892 0.896742
C14   C     C_R   0.796434 0.500124 0.525108 0.896742
C15   C     C_2   0.037348 0.499913 0.461244 -0.335957
C16   C     C_2   0.962651 0.500087 0.538756 -0.335958
C17   C     C_R   0.576112 0.093597 0.590565 0.319154
C18   C     C_R   0.423886 0.906402 0.409435 0.319154
C19   C     C_R   0.570242 0.186387 0.591768 -0.138294
C20   C     C_R   0.429757 0.813613 0.408232 -0.138294
C21   C     C_R   0.541540 0.232584 0.502387 -0.195366
C22   C     C_R   0.458460 0.767416 0.497613 -0.195366
C23   C     C_R   0.559800 0.184733 0.416193 -0.087069
C24   C     C_R   0.440200 0.815267 0.583807 -0.087070
C25   C     C_R   0.565247 0.091702 0.418464 -0.043618
C26   C     C_R   0.434751 0.908298 0.581536 -0.043617
C27   C     C_R   0.531867 0.047106 0.501977 -0.005361
C28   C     C_R   0.468132 0.952894 0.498022 -0.005361
Cu1   Cu    Cu3+1 0.500000 0.499990 0.596430 1.026307
Cu2   Cu    Cu3+1 0.500000 0.500010 0.403570 1.026307
H1    H     H_    0.976290 0.499812 0.387144 0.205128
H2    H     H_    0.023710 0.500188 0.612856 0.205128
H3    H     H_    0.653806 0.610251 0.266876 0.189256
H4    H     H_    0.346193 0.389749 0.733124 0.189256
N1    N     N_R   0.500000 0.500020 0.258690 -0.266358
N2    N     N_R   0.500000 0.499980 0.741310 -0.266358
O1    O     O_R   0.500010 0.371450 0.581430 -0.600800
O2    O     O_R   0.499990 0.628550 0.418570 -0.600800
O3    O     O_R   0.500010 0.371460 0.418560 -0.541186
O4    O     O_R   0.499990 0.628540 0.581440 -0.541187
O5    O     O_R   0.274840 0.499990 0.562640 -0.588758
O6    O     O_R   0.725160 0.500010 0.437360 -0.588758
O7    O     O_R   0.274840 0.500000 0.399770 -0.533351
O8    O     O_R   0.725160 0.500000 0.600230 -0.533351
Cl1   Cl    Cl    0.680793 0.039755 0.692111 -0.515794
Cl2   Cl    Cl    0.319205 0.960244 0.307889 -0.515794
C29   C     C_1   0.606901 0.232099 0.684693 0.424001
N3    N     N_1   0.637099 0.268170 0.759153 -0.168249
C30   C     C_1   0.393098 0.767901 0.315307 0.424001
N4    N     N_1   0.362900 0.731830 0.240846 -0.168248
C31   C     C_1   0.583980 0.228986 0.327208 0.388108
N5    N     N_1   0.604103 0.263726 0.256084 -0.179609
C32   C     C_1   0.416021 0.771014 0.672793 0.388108
N6    N     N_1   0.395899 0.736274 0.743917 -0.179609
C33   C     C_1   0.633994 0.044586 0.344450 0.347004
N7    N     N_1   0.689548 0.007264 0.285634 -0.148726
C34   C     C_1   0.366004 0.955414 0.655550 0.347004
N8    N     N_1   0.310449 0.992736 0.714365 -0.148727
Cl3   Cl    Cl    0.624423 0.676268 0.077375 -0.436635
Cl4   Cl    Cl    0.375576 0.323733 0.922625 -0.436636
Cl5   Cl    Cl    0.264968 0.375725 0.245493 -0.459003
Cl6   Cl    Cl    0.735032 0.624275 0.754507 -0.459003
Cl7   Cl    Cl    0.187072 0.445236 0.031658 -0.370316
Cl8   Cl    Cl    0.812927 0.554764 0.968342 -0.370316

loop_
_geom_bond_atom_site_label_1
_geom_bond_atom_site_label_2
_ccdc_geom_bond_type
C19   C21   A    
C2    C22   S    
C11   C12   S    
C15   H1    S    
C20   C30   S    
C16   H2    S    
C2    O2    A    
C26   C28   A    
C29   N3    T    
C1    O1    A    
C14   O6    A    
C4    Cl4   S    
C33   N7    T    
C13   O5    A    
C25   C33   S    
C18   Cl2   S    
C18   C28   A    
C32   N6    T    
C1    C21   S    
C9    C11   A    
Cu1   N2    S    
C34   N8    T    
Cu1   Cu2   S    
C10   C12   A    
Cu2   N1    S    
C7    Cl5   S    
C5    N1    A    
Cu1   O4    S    
C14   O8    A    
C17   C19   A    
C20   C22   A    
Cu2   O3    S    
C19   C29   S    
C18   C20   A    
C5    H3    S    
C13   C15   S    
Cu1   O8    S    
C25   C27   A    
C24   C26   A    
C26   C34   S    
C14   C16   S    
Cu2   O7    S    
C4    C12   A    
C15   C16   D    
C1    O3    A    
C17   Cl1   S    
C31   N5    T    
C17   C27   A    
C2    O4    A    
C13   O7    A    
C23   C25   A    
C3    C11   A    
Cu2   O2    S    
C4    C6    A    
C30   N4    T    
C8    N2    A    
C22   C24   A    
Cu1   O1    S    
C27   C28   S    
C7    C9    A    
Cu2   O6    S    
Cu1   O5    S    
C24   C32   S    
C9    Cl7   S    
C7    N1    A    
C21   C23   A    
C8    C10   A    
C10   Cl8   S    
C23   C31   S    
C6    H4    S    
C8    Cl6   S    
C6    N2    A    
C3    C5    A    
C3    Cl3   S    
