data_mof_unit_6826.cif
_audit_creation_date              2012-12-10T18:59:13-0500
_audit_creation_method            fapswitch 2.2
_symmetry_space_group_name_H-M    P1
_symmetry_Int_Tables_number       1
_space_group_crystal_system       triclinic
_cell_length_a                    10.841082
_cell_length_b                    10.794683
_cell_length_c                    9.60196
_cell_angle_alpha                 90.866817
_cell_angle_beta                  89.941889
_cell_angle_gamma                 91.591312
_cell_volume                      1123.11728745

loop_
_atom_site_label
_atom_site_type_symbol
_atom_type_description
_atom_site_fract_x
_atom_site_fract_y
_atom_site_fract_z
_atom_type_partial_charge
C1    C     C_R   0.499050 0.262837 0.498534 0.792129
C2    C     C_R   0.060165 0.488549 0.633959 0.070909
C3    C     C_R   0.127839 0.516720 0.509623 -0.110337
C4    C     C_R   0.064195 0.536661 0.385529 -0.228450
C5    C     C_R   0.936746 0.527309 0.382434 -0.207822
C6    C     C_R   0.871472 0.484548 0.498942 -0.103057
C7    C     C_R   0.599921 0.068485 0.548949 0.110319
C8    C     C_R   0.501248 0.129942 0.492305 -0.056431
C9    C     C_R   0.408069 0.061604 0.421628 -0.224952
C10   C     C_R   0.405785 0.932106 0.426399 -0.213699
C11   C     C_R   0.496933 0.871382 0.500981 -0.089993
C12   C     C_R   0.262455 0.507756 0.502000 0.803007
C13   C     C_R   0.596384 0.940703 0.555736 0.096114
C14   C     C_3   0.645328 0.945797 0.700709 -0.474807
C15   C     C_3   0.657263 0.084881 0.688737 -0.484046
C16   C     C_R   0.523778 0.606551 0.076188 0.180326
C17   C     C_R   0.454361 0.401448 0.074109 -0.122040
C18   C     C_R   0.449513 0.401913 0.924846 0.330704
C19   C     C_R   0.534976 0.603202 0.930799 0.101745
C20   C     C_3   0.652600 0.682204 0.938631 -0.124282
C21   C     C_3   0.630808 0.694128 0.095480 0.062168
C22   C     C_R   0.498412 0.737553 0.500877 0.779875
C23   C     C_R   0.737209 0.492194 0.499567 0.783279
C24   C     C_R   0.108362 0.495018 0.772842 0.270156
C25   C     C_R   0.053078 0.420672 0.875458 -0.229974
C26   C     C_R   0.942681 0.356430 0.848145 -0.190630
C27   C     C_R   0.881198 0.375344 0.723418 -0.198359
C28   C     C_R   0.936148 0.448869 0.618654 0.050081
Cu1   Cu    Cu3+1 0.499990 0.499980 0.640670 0.944247
Cu2   Cu    Cu3+1 0.500010 0.500020 0.359330 0.926410
H1    H     H_    0.112901 0.561715 0.290999 0.160466
H2    H     H_    0.735380 0.899921 0.710553 0.194328
H3    H     H_    0.599275 0.135943 0.764377 0.234210
H4    H     H_    0.754863 0.118205 0.681864 0.189528
H5    H     H_    0.418304 0.323272 0.131512 0.166561
H6    H     H_    0.644928 0.769782 0.884319 0.183099
H7    H     H_    0.702656 0.655426 0.163600 0.140835
H8    H     H_    0.092027 0.418057 0.979173 0.136423
H9    H     H_    0.899743 0.300081 0.927967 0.152460
H10   H     H_    0.791298 0.331431 0.709340 0.160832
H11   H     H_    0.889501 0.552482 0.288049 0.157330
H12   H     H_    0.334415 0.108155 0.369242 0.140374
H13   H     H_    0.330919 0.879791 0.376668 0.140614
H14   H     H_    0.571929 0.919885 0.776072 0.199829
N1    N     N_R   0.500790 0.500930 0.147930 -0.225496
N2    N     N_R   0.500790 0.500890 0.852020 -0.209376
O1    O     O_R   0.500000 0.319640 0.618810 -0.560098
O2    O     O_R   0.500010 0.319680 0.381230 -0.590253
O3    O     O_R   0.319640 0.499980 0.618820 -0.561275
O4    O     O_R   0.319650 0.500020 0.381230 -0.587491
O5    O     O_R   0.499990 0.680320 0.618770 -0.578813
O6    O     O_R   0.500000 0.680360 0.381190 -0.578519
O7    O     O_R   0.680350 0.499980 0.618770 -0.597396
O8    O     O_R   0.680360 0.500020 0.381180 -0.586378
N3    N     N_2   0.386948 0.303189 0.851123 -0.384959
H15   H     H_    0.314555 0.330249 0.790570 0.281786
C29   C     C_3   0.367238 0.184053 0.916019 -0.787347
H16   H     H_    0.339595 0.113983 0.835274 0.246540
H17   H     H_    0.292178 0.189241 0.994548 0.220691
H18   H     H_    0.453672 0.153530 0.965339 0.233265
C30   C     C_3   0.775127 0.620058 0.907308 -0.367663
C31   C     C_3   0.884706 0.703141 0.953793 -0.875604
H19   H     H_    0.884731 0.792281 0.897472 0.252468
H20   H     H_    0.883158 0.722511 0.067477 0.246309
H21   H     H_    0.971635 0.656381 0.930377 0.270425
H22   H     H_    0.778697 0.528845 0.959080 0.214312
H23   H     H_    0.784586 0.607380 0.794157 0.255411
N4    N     N_2   0.598478 0.819783 0.137563 -0.413911
H24   H     H_    0.624225 0.844029 0.237769 0.267275
C32   C     C_3   0.480912 0.868488 0.095421 -0.667213
H25   H     H_    0.477964 0.968240 0.124548 0.228469
H26   H     H_    0.403924 0.818188 0.148240 0.227199
H27   H     H_    0.467921 0.859645 0.981257 0.210269
N5    N     N_2   0.199649 0.585722 0.816408 -0.402565
H28   H     H_    0.236247 0.576041 0.914681 0.234652
C33   C     C_3   0.185316 0.713146 0.774492 -0.688534
H29   H     H_    0.269463 0.745338 0.718410 0.245035
H30   H     H_    0.173514 0.773382 0.868118 0.207024
H31   H     H_    0.104084 0.724182 0.705792 0.222280

loop_
_geom_bond_atom_site_label_1
_geom_bond_atom_site_label_2
_ccdc_geom_bond_type
C8    C9    A    
N3    H15   S    
C16   C21   S    
C1    C8    S    
Cu2   N1    S    
C19   C20   S    
C33   H31   S    
C12   O3    A    
C19   N2    A    
C7    C8    A    
Cu1   O3    S    
Cu2   O8    S    
C9    H12   S    
Cu1   Cu2   S    
N5    C33   S    
Cu1   O1    S    
C33   H30   S    
Cu2   O2    S    
C17   N1    A    
C5    C6    A    
C26   H9    S    
C29   H17   S    
C20   C30   S    
C31   H20   S    
C3    C12   S    
C30   H22   S    
C6    C28   A    
N4    H24   S    
C32   H25   S    
C9    C10   A    
C15   H4    S    
C7    C15   S    
Cu2   O4    S    
C13   C14   S    
C18   N2    A    
C23   O7    A    
C32   H26   S    
N5    H28   S    
C24   C25   A    
C1    O1    A    
C29   H18   S    
C25   C26   A    
Cu1   O7    S    
C31   H19   S    
C25   H8    S    
C30   H23   S    
C27   H10   S    
C32   H27   S    
C17   C18   A    
C26   C27   A    
C33   H29   S    
C18   N3    S    
N3    C29   S    
C21   N4    S    
C2    C24   A    
C3    C4    A    
C23   O8    A    
C14   H14   S    
Cu1   O5    S    
C5    H11   S    
C31   H21   S    
C10   H13   S    
C14   H2    S    
C4    C5    A    
C16   N1    A    
C12   O4    A    
C1    O2    A    
C11   C22   S    
Cu1   N2    S    
C2    C3    A    
C11   C13   A    
C24   N5    S    
C29   H16   S    
Cu2   O6    S    
C16   C19   A    
C6    C23   S    
C22   O6    A    
C30   C31   S    
C4    H1    S    
C10   C11   A    
C20   H6    S    
C7    C13   A    
C21   H7    S    
C20   C21   S    
N4    C32   S    
C27   C28   A    
C14   C15   S    
C2    C28   A    
C17   H5    S    
C15   H3    S    
C22   O5    A    
