data_mof_unit_27673.cif
_audit_creation_date              2012-12-10T17:38:47-0500
_audit_creation_method            fapswitch 2.2
_symmetry_space_group_name_H-M    P1
_symmetry_Int_Tables_number       1
_space_group_crystal_system       triclinic
_cell_length_a                    12.374799
_cell_length_b                    13.27796
_cell_length_c                    23.499832
_cell_angle_alpha                 75.862933
_cell_angle_beta                  101.233963
_cell_angle_gamma                 116.730671
_cell_volume                      3328.07814747

loop_
_atom_site_label
_atom_site_type_symbol
_atom_type_description
_atom_site_fract_x
_atom_site_fract_y
_atom_site_fract_z
_atom_type_partial_charge
C1    C     C_R   0.855776 0.286252 0.507145 0.814965
C2    C     C_R   0.933765 0.299472 0.049679 -0.161826
C3    C     C_R   0.934643 0.300655 0.990255 -0.164416
C4    C     C_R   0.970135 0.404398 0.949783 -0.023154
C5    C     C_R   0.004719 0.507683 0.969495 -0.018892
C6    C     C_R   0.040259 0.612151 0.929255 -0.012934
C7    C     C_R   0.074332 0.714635 0.949376 -0.166124
C8    C     C_R   0.073213 0.713440 0.008788 -0.164473
C9    C     C_R   0.971873 0.407687 0.889870 0.574169
C10   C     C_R   0.041249 0.611280 0.869802 0.510492
C11   C     C_R   0.925144 0.537460 0.748354 -0.164138
C12   C     C_R   0.000928 0.501084 0.608845 0.800011
C13   C     C_R   0.922403 0.534817 0.689227 -0.248609
C14   C     C_R   0.003967 0.504574 0.671292 -0.076956
C15   C     C_R   0.089709 0.478896 0.713427 -0.293225
C16   C     C_R   0.094378 0.483312 0.772809 0.310982
C17   C     C_R   0.010212 0.511350 0.790408 0.338750
C18   C     C_R   0.914395 0.526043 0.226646 -0.102469
C19   C     C_R   0.913714 0.524969 0.286031 -0.217402
C20   C     C_R   0.000299 0.500914 0.328366 -0.034238
C21   C     C_R   0.087248 0.477675 0.310191 -0.222830
C22   C     C_R   0.087517 0.478575 0.250789 -0.108736
C23   C     C_R   0.145095 0.713103 0.494117 0.821344
C24   C     C_R   0.001248 0.502887 0.208866 0.359905
C25   C     C_R   0.285206 0.023061 0.429971 -0.196097
C26   C     C_R   0.229567 0.835004 0.489513 -0.082552
C27   C     C_R   0.812439 0.094752 0.569730 0.266898
C28   C     C_R   0.723046 0.000599 0.600226 -0.230768
C29   C     C_R   0.601645 0.969323 0.579815 -0.241064
C30   C     C_R   0.565178 0.018607 0.523437 0.080130
C31   C     C_R   0.655295 0.118486 0.493693 -0.031591
C32   C     C_R   0.441353 0.978801 0.498274 -0.014313
C33   C     C_R   0.408619 0.051807 0.449538 0.039737
C34   C     C_R   0.000166 0.500422 0.391057 0.781173
C35   C     C_R   0.500054 0.150815 0.420599 0.234572
C36   C     C_R   0.621400 0.178263 0.440779 -0.196523
C37   C     C_R   0.349558 0.867663 0.517707 0.221420
C38   C     C_R   0.196738 0.915765 0.449820 -0.254305
C39   C     C_R   0.776809 0.162380 0.520050 -0.127617
C40   C     C_R   0.378784 0.397269 0.613578 -0.302968
C41   C     C_R   0.750419 0.628713 0.413270 0.061869
C42   C     C_R   0.650131 0.653015 0.391669 -0.256475
C43   C     C_R   0.551912 0.608922 0.424909 -0.178997
C44   C     C_R   0.553932 0.541752 0.481193 -0.052007
C45   C     C_R   0.036536 0.606425 0.109264 0.530308
C46   C     C_R   0.658586 0.517822 0.502178 0.242897
C47   C     C_R   0.454743 0.495056 0.517207 -0.036262
C48   C     C_R   0.473569 0.449375 0.577227 0.145612
C49   C     C_R   0.583654 0.445659 0.599557 -0.338383
C50   C     C_R   0.659543 0.452869 0.560621 0.240467
C51   C     C_R   0.337240 0.490560 0.496921 0.033224
C52   C     C_R   0.264520 0.390035 0.590373 0.069467
C53   C     C_R   0.967944 0.402916 0.129349 0.531390
C54   C     C_R   0.968197 0.401991 0.069829 -0.014908
C55   C     C_R   0.003633 0.506471 0.029587 -0.017760
C56   C     C_R   0.038016 0.609737 0.049297 -0.014552
Cu1   Cu    Cu3+1 0.098270 0.475410 0.513370 0.945407
Cu2   Cu    Cu3+1 0.901730 0.524590 0.486630 0.946287
H1    H     H_    0.906058 0.218037 0.079722 0.188505
H2    H     H_    0.845579 0.543114 0.298690 0.157373
H3    H     H_    0.155120 0.458910 0.341758 0.152949
H4    H     H_    0.155034 0.460836 0.237222 0.138069
H5    H     H_    0.104039 0.892589 0.429849 0.167857
H6    H     H_    0.255931 0.080709 0.396982 0.154881
H7    H     H_    0.538816 0.911414 0.610936 0.185069
H8    H     H_    0.747209 0.955529 0.642080 0.150206
H9    H     H_    0.907628 0.220096 0.976191 0.188042
H10   H     H_    0.594329 0.405595 0.645187 0.155333
H11   H     H_    0.392357 0.360219 0.659410 0.138713
H12   H     H_    0.317079 0.529585 0.452735 0.115172
H13   H     H_    0.825550 0.663466 0.386658 0.132456
H14   H     H_    0.477046 0.631464 0.406540 0.140008
H15   H     H_    0.648498 0.706259 0.348807 0.152450
H16   H     H_    0.102049 0.796063 0.919328 0.187818
H17   H     H_    0.860303 0.559005 0.761713 0.153262
H18   H     H_    0.856083 0.556081 0.657687 0.166620
H19   H     H_    0.154062 0.456316 0.700346 0.147972
H20   H     H_    0.847284 0.544589 0.194383 0.141217
N1    N     N_R   0.001885 0.504105 0.147794 -0.469507
N2    N     N_R   0.008130 0.510154 0.851427 -0.457017
N3    N     N_R   0.246280 0.438190 0.533650 -0.180706
N4    N     N_R   0.754320 0.561190 0.466710 -0.201199
O1    O     O_R   0.972510 0.318130 0.516820 -0.546217
O2    O     O_2   0.933310 0.303555 0.168453 -0.540693
O3    O     O_2   0.936937 0.309308 0.870036 -0.539963
O4    O     O_2   0.076260 0.710675 0.830733 -0.549978
O5    O     O_R   0.806530 0.359650 0.494230 -0.546643
O6    O     O_R   0.082990 0.479200 0.593420 -0.600155
O7    O     O_R   0.917010 0.520720 0.570830 -0.574372
O8    O     O_R   0.193470 0.640350 0.505770 -0.548230
O9    O     O_R   0.027490 0.681870 0.483180 -0.593010
O10   O     O_R   0.082990 0.479280 0.429170 -0.593184
O11   O     O_R   0.917010 0.520800 0.406580 -0.600105
O12   O     O_2   0.070279 0.704607 0.129062 -0.539741
N5    N     N_2   0.473498 0.222417 0.369374 -0.432262
H21   H     H_    0.402654 0.181526 0.339927 0.254017
C57   C     C_3   0.474002 0.324852 0.380775 -0.677056
H22   H     H_    0.459044 0.378510 0.338433 0.228792
H23   H     H_    0.563153 0.375898 0.403395 0.252219
H24   H     H_    0.400510 0.301903 0.408681 0.218593
N6    N     N_2   0.379211 0.782447 0.558660 -0.433538
H25   H     H_    0.452671 0.769242 0.553815 0.261482
C58   C     C_3   0.321633 0.731262 0.613279 -0.643667
H26   H     H_    0.388725 0.758401 0.651585 0.200037
H27   H     H_    0.285731 0.636879 0.619375 0.254194
H28   H     H_    0.246244 0.755051 0.613297 0.215512
N7    N     N_2   0.936120 0.128660 0.593598 -0.420866
H29   H     H_    0.948018 0.107176 0.638904 0.241834
C59   C     C_3   0.005232 0.095867 0.564591 -0.633041
H30   H     H_    0.101989 0.131654 0.582971 0.217828
H31   H     H_    0.000689 0.129877 0.516463 0.239650
H32   H     H_    0.969399 0.000949 0.571898 0.216355
H33   H     H_    0.689493 0.250559 0.415487 0.170758
H34   H     H_    0.191765 0.351690 0.618694 0.138292
N8    N     N_2   0.701126 0.365258 0.576077 -0.358217
H35   H     H_    0.748922 0.365653 0.617291 0.244375
C60   C     C_3   0.603910 0.251555 0.574784 -0.666420
H36   H     H_    0.642162 0.187715 0.590339 0.229857
H37   H     H_    0.557468 0.245062 0.529547 0.247481
H38   H     H_    0.535745 0.230450 0.605441 0.211429
H39   H     H_    0.100068 0.793979 0.022839 0.188899
N9    N     N_2   0.182322 0.457735 0.814825 -0.413249
H40   H     H_    0.206657 0.400313 0.804137 0.252755
C61   C     C_3   0.287374 0.557570 0.830831 -0.673547
H41   H     H_    0.348940 0.529968 0.865158 0.231059
H42   H     H_    0.259809 0.611166 0.849075 0.251741
H43   H     H_    0.337635 0.609470 0.791673 0.217540

loop_
_geom_bond_atom_site_label_1
_geom_bond_atom_site_label_2
_ccdc_geom_bond_type
C1    O5    A    
C37   N6    S    
C55   C56   A    
C43   H14   S    
Cu1   O10   S    
C41   C42   A    
N5    H21   S    
C34   O11   A    
Cu2   O5    S    
C8    C56   A    
C60   H37   S    
C57   H22   S    
C7    C8    A    
C15   H19   S    
C53   C54   A    
N6    H25   S    
C53   O2    S    
C18   C24   A    
C28   C29   A    
C49   H10   S    
Cu2   O11   S    
C18   C19   A    
C59   H31   S    
C30   C31   A    
C8    H39   S    
C36   H33   S    
C15   C16   A    
C50   N8    S    
C23   C26   S    
C16   N9    S    
C40   H11   S    
C9    O3    S    
C46   N4    A    
C10   O4    S    
C19   C20   A    
C45   C56   A    
C27   C39   A    
C16   C17   A    
N8    C60   S    
N7    H29   S    
Cu1   O1    S    
C51   H12   S    
Cu2   O9    S    
C51   N3    A    
C21   H3    S    
C44   C47   A    
C41   H13   S    
C20   C34   S    
C25   H6    S    
N6    C58   S    
C13   C14   A    
N7    C59   S    
C45   O12   S    
C57   H23   S    
C44   C46   A    
C7    H16   S    
Cu1   O8    S    
C12   O6    A    
C12   O7    A    
C58   H27   S    
C2    C54   A    
C59   H32   S    
C10   N2    A    
C2    H1    S    
C26   C38   A    
C47   C51   A    
C40   C52   A    
C17   N2    S    
C35   C36   A    
C28   H8    S    
C43   C44   A    
C29   C30   A    
C25   C38   A    
C22   H4    S    
C24   N1    S    
C47   C48   A    
C13   H18   S    
C27   N7    S    
C18   H20   S    
C23   O8    A    
C45   N1    A    
C32   C37   A    
C61   H43   S    
C29   H7    S    
C48   C49   A    
C12   C14   S    
C52   H34   S    
C23   O9    A    
C60   H38   S    
C42   C43   A    
N9    C61   S    
C3    C4    A    
C58   H26   S    
C57   H24   S    
C61   H42   S    
C38   H5    S    
C40   C48   A    
C54   C55   A    
C11   C17   A    
C42   H15   S    
C53   N1    A    
C14   C15   A    
C5    C55   A    
C3    H9    S    
C4    C5    A    
C6    C10   A    
N5    C57   S    
C26   C37   A    
C6    C7    A    
C35   N5    S    
C19   H2    S    
C1    O1    A    
C46   C50   A    
Cu1   O6    S    
C32   C33   A    
Cu2   N4    S    
C2    C3    A    
N9    H40   S    
C11   H17   S    
C60   H36   S    
C30   C32   A    
C11   C13   A    
Cu1   Cu2   S    
C5    C6    A    
C41   N4    A    
C33   C35   A    
C31   C39   A    
Cu2   O7    S    
C58   H28   S    
C22   C24   A    
C52   N3    A    
Cu1   N3    S    
C34   O10   A    
C1    C39   S    
C20   C21   A    
C49   C50   A    
C59   H30   S    
C27   C28   A    
C31   C36   A    
C4    C9    A    
C21   C22   A    
C9    N2    A    
N8    H35   S    
C25   C33   A    
C61   H41   S    
