data_mof_unit_27680.cif
_audit_creation_date              2012-12-11T15:55:32-0500
_audit_creation_method            fapswitch 2.2
_symmetry_space_group_name_H-M    P1
_symmetry_Int_Tables_number       1
_space_group_crystal_system       triclinic
_cell_length_a                    8.589098
_cell_length_b                    18.907009
_cell_length_c                    19.074203
_cell_angle_alpha                 98.197227
_cell_angle_beta                  94.787265
_cell_angle_gamma                 92.228589
_cell_volume                      3051.14371436

loop_
_atom_site_label
_atom_site_type_symbol
_atom_type_description
_atom_site_fract_x
_atom_site_fract_y
_atom_site_fract_z
_atom_type_partial_charge
Ba1   Ba    Ba6+2 0.152460 0.535140 0.468980 1.640285
Ba2   Ba    Ba6+2 0.657710 0.464850 0.530960 1.683834
C1    C     C_3   0.418740 0.760563 0.226483 0.301770
C2    C     C_R   0.080289 0.899698 0.551324 -0.065115
C3    C     C_R   0.170396 0.051070 0.583129 0.404334
C4    C     C_3   0.916211 0.742232 0.293371 0.725916
C5    C     C_R   0.030887 0.025168 0.542150 -0.027206
C6    C     C_R   0.250727 0.111867 0.568181 -0.002209
C7    C     C_R   0.165456 0.165436 0.537644 -0.066745
C8    C     C_R   0.009055 0.144928 0.506721 -0.031961
C9    C     C_R   0.944627 0.073304 0.506695 -0.105734
C10   C     C_R   0.221161 0.238757 0.540320 -0.027806
C11   C     C_R   0.120272 0.288190 0.514326 -0.260777
C12   C     C_3   0.398157 0.711986 0.285281 0.293357
C13   C     C_R   0.973180 0.267576 0.477879 0.048171
C14   C     C_R   0.918640 0.194383 0.473150 -0.087729
C15   C     C_R   0.825480 0.929904 0.507234 -0.052028
C16   C     C_3   0.000818 0.795719 0.251203 -0.149561
C17   C     C_R   0.773277 0.856691 0.506396 0.003178
C18   C     C_R   0.875841 0.806402 0.532355 -0.045317
C19   C     C_R   0.027659 0.831069 0.557383 -0.093954
C20   C     C_R   0.779123 0.167932 0.432904 -0.084652
C21   C     C_R   0.726200 0.096074 0.426150 0.466717
C22   C     C_R   0.795473 0.049709 0.470929 -0.025273
C23   C     C_3   0.507571 0.698414 0.656741 0.709638
C24   C     C_R   0.728233 0.979527 0.477765 -0.019472
C25   C     C_R   0.568040 0.957457 0.458188 0.411329
C26   C     C_R   0.620943 0.833637 0.477972 -0.036087
C27   C     C_R   0.517741 0.885167 0.458796 -0.188769
C28   C     C_3   0.713552 0.313207 0.299133 0.672294
C29   C     C_R   0.576873 0.759570 0.468544 0.075658
C30   C     C_R   0.679351 0.710500 0.493187 -0.214031
C31   C     C_R   0.828048 0.732335 0.526906 0.096688
C32   C     C_R   0.600124 0.527194 0.299702 -0.255342
C33   C     C_R   0.462021 0.487128 0.273145 0.093064
C34   C     C_3   0.403612 0.765070 0.667647 0.302727
C35   C     C_R   0.418831 0.473856 0.198689 0.004252
C36   C     C_R   0.515949 0.503686 0.152479 0.024414
C37   C     C_R   0.654889 0.542851 0.180665 -0.100042
C38   C     C_R   0.698065 0.553226 0.253777 0.032608
C39   C     C_R   0.428254 0.561245 0.046325 0.417054
C40   C     C_3   0.689073 0.238644 0.252687 0.759563
C41   C     C_R   0.359637 0.555144 0.976016 -0.089501
C42   C     C_R   0.346987 0.488929 0.931653 0.093724
C43   C     C_R   0.389936 0.427695 0.960924 -0.084407
C44   C     C_R   0.450553 0.432777 0.031714 -0.161357
C45   C     C_3   0.954792 0.262075 0.676219 0.525598
C46   C     C_R   0.467315 0.499235 0.075392 0.003045
C47   C     C_R   0.159130 0.444332 0.824535 0.318488
C48   C     C_R   0.125692 0.429096 0.749743 -0.062414
C49   C     C_R   0.360121 0.502345 0.734654 0.036791
C50   C     C_R   0.398362 0.513703 0.808765 0.309544
C51   C     C_R   0.298948 0.483617 0.854054 -0.094392
C52   C     C_3   0.995835 0.635918 0.707713 0.371630
C53   C     C_R   0.233906 0.454038 0.705858 -0.364492
C54   C     C_3   0.883723 0.640618 0.769038 -0.153029
C55   C     C_3   0.281953 0.321580 0.372458 0.298424
C56   C     C_3   0.946923 0.185958 0.695877 0.359047
C57   C     C_3   0.275832 0.240499 0.353295 -0.357670
C58   C     C_3   0.303691 0.642906 0.254273 -0.254830
C59   C     C_3   0.483211 0.155370 0.210227 0.091101
C60   C     C_3   0.744018 0.242182 0.133012 0.184820
C61   C     C_3   0.159714 0.654315 0.740235 -0.323597
C62   C     C_3   0.990920 0.559847 0.670899 -0.191960
C63   C     C_3   0.925588 0.699312 0.833568 -0.469935
C64   C     C_3   0.316908 0.795045 0.121099 0.198862
C65   C     C_3   0.724289 0.776327 0.710612 0.190367
C66   C     C_3   0.396304 0.797329 0.747792 -0.468729
C67   C     C_3   0.463019 0.283088 0.709746 0.792374
C68   C     C_3   0.427924 0.886046 0.645479 0.191337
C69   C     C_3   0.900406 0.185351 0.817237 0.132471
C70   C     C_3   0.787478 0.145580 0.674026 -0.403873
C71   C     C_3   0.554223 0.342851 0.822836 0.206823
C72   C     C_3   0.987665 0.744087 0.369759 -0.177248
C73   C     C_3   0.425526 0.110069 0.582087 -0.268195
C74   C     C_3   0.160397 0.027803 0.696794 0.095483
C75   C     C_3   0.690536 0.034469 0.314470 0.117849
C76   C     C_3   0.725275 0.826775 0.318640 0.011423
C77   C     C_3   0.333925 0.986377 0.399113 0.236276
C78   C     C_3   0.365166 0.226980 0.739958 -0.391559
C79   C     C_3   0.528220 0.619357 0.860420 0.191918
C80   C     C_3   0.570806 0.667266 0.060944 0.196202
C81   C     C_3   0.270077 0.430791 0.167517 -0.338620
C82   C     C_3   0.041729 0.358156 0.878641 0.210074
C83   C     C_3   0.075697 0.866883 0.290956 -0.530932
C84   C     C_3   0.838963 0.394388 0.236396 0.174672
C85   C     C_R   0.978685 0.952158 0.534980 0.031470
H1    H     H_    0.713800 0.199202 0.289401 -0.105611
H2    H     H_    0.537805 0.755377 0.209214 0.076585
H3    H     H_    0.197595 0.462705 0.133998 0.113032
H4    H     H_    0.299660 0.380680 0.134862 0.109623
H5    H     H_    0.095451 0.321911 0.837084 0.032028
H6    H     H_    0.917778 0.339598 0.878475 0.060872
H7    H     H_    0.099911 0.352950 0.931614 0.022071
H8    H     H_    0.990977 0.902372 0.316389 0.116281
H9    H     H_    0.169953 0.857424 0.331044 0.165711
H10   H     H_    0.130392 0.896524 0.252351 0.123164
H11   H     H_    0.816995 0.422850 0.189992 0.030850
H12   H     H_    0.920765 0.352064 0.220871 0.079070
H13   H     H_    0.469175 0.669851 0.602642 -0.006510
H14   H     H_    0.895128 0.432098 0.281941 0.121998
H15   H     H_    0.282882 0.746277 0.647694 0.039636
H16   H     H_    0.406334 0.817369 0.249851 0.004569
H17   H     H_    0.919641 0.807027 0.206102 0.092701
H18   H     H_    0.901389 0.260829 0.620948 -0.026311
H19   H     H_    0.080333 0.279940 0.678501 -0.247196
H20   H     H_    0.025949 0.156129 0.661304 -0.012153
H21   H     H_    0.388896 0.328525 0.700542 -0.070658
H22   H     H_    0.300799 0.252443 0.784098 0.093034
H23   H     H_    0.877124 0.589677 0.791734 0.126851
H24   H     H_    0.441003 0.186551 0.759861 0.094628
H25   H     H_    0.278601 0.199767 0.697908 0.086057
H26   H     H_    0.162243 0.343412 0.517918 0.043856
H27   H     H_    0.111466 0.797215 0.577735 0.135351
H28   H     H_    0.711918 0.201666 0.402694 0.083151
H29   H     H_    0.396170 0.869350 0.444742 0.104035
H30   H     H_    0.641173 0.654585 0.487393 0.055394
H31   H     H_    0.203709 0.910463 0.554946 0.123571
H32   H     H_    0.317604 0.602381 0.956431 0.056663
H33   H     H_    0.375341 0.375417 0.929538 0.043094
H34   H     H_    0.764939 0.646542 0.746080 0.177482
H35   H     H_    0.483681 0.384625 0.052579 0.083582
H36   H     H_    0.731305 0.564074 0.145448 0.088170
H37   H     H_    0.206332 0.444054 0.648813 0.084815
H38   H     H_    0.635943 0.535216 0.356154 0.065801
H39   H     H_    0.095630 0.767982 0.226031 0.167290
H40   H     H_    0.616895 0.317461 0.333753 0.008059
H41   H     H_    0.284525 0.608139 0.294748 0.121812
H42   H     H_    0.190010 0.653879 0.228505 0.185951
H43   H     H_    0.367523 0.613571 0.212608 0.107753
H44   H     H_    0.567637 0.121953 0.181055 0.037992
H45   H     H_    0.162871 0.339197 0.380682 0.032352
H46   H     H_    0.369078 0.148589 0.177621 0.070655
H47   H     H_    0.466291 0.135873 0.261387 0.070665
H48   H     H_    0.671649 0.289753 0.134489 0.087455
H49   H     H_    0.676173 0.194456 0.103449 0.042424
H50   H     H_    0.845399 0.252472 0.102814 0.022752
H51   H     H_    0.170451 0.709681 0.767789 0.110565
H52   H     H_    0.196847 0.617638 0.777999 0.035533
H53   H     H_    0.228574 0.650443 0.694879 0.080964
H54   H     H_    0.081438 0.550277 0.632837 0.058960
H55   H     H_    0.010431 0.529969 0.713884 -0.024683
H56   H     H_    0.360399 0.336585 0.422150 0.060765
H57   H     H_    0.876556 0.540772 0.645348 0.186709
H58   H     H_    0.028417 0.684529 0.866708 0.134488
H59   H     H_    0.952429 0.752050 0.817378 0.118549
H60   H     H_    0.827751 0.704957 0.867920 0.108210
H61   H     H_    0.247130 0.775216 0.070004 0.069799
H62   H     H_    0.438050 0.808500 0.108885 -0.012844
H63   H     H_    0.263214 0.843916 0.145881 -0.000075
H64   H     H_    0.692350 0.766745 0.763704 0.013041
H65   H     H_    0.689735 0.828513 0.697569 0.056121
H66   H     H_    0.852281 0.784361 0.713826 0.080965
H67   H     H_    0.214030 0.224119 0.299568 0.142186
H68   H     H_    0.281612 0.821301 0.754990 0.088300
H69   H     H_    0.410645 0.756457 0.783683 0.116569
H70   H     H_    0.487032 0.839939 0.768407 0.092802
H71   H     H_    0.516329 0.910378 0.688598 0.016280
H72   H     H_    0.308746 0.892384 0.662858 0.072644
H73   H     H_    0.445104 0.916777 0.601278 0.097244
H74   H     H_    0.838413 0.132044 0.812987 0.032788
H75   H     H_    0.815698 0.227553 0.812458 0.100758
H76   H     H_    0.962753 0.196908 0.871231 0.033415
H77   H     H_    0.753870 0.146455 0.616707 0.097794
H78   H     H_    0.213199 0.214392 0.391841 0.055887
H79   H     H_    0.794439 0.088845 0.682408 0.087232
H80   H     H_    0.695709 0.170039 0.705263 0.155340
H81   H     H_    0.443822 0.370201 0.817141 -0.040329
H82   H     H_    0.647745 0.383629 0.845783 0.130977
H83   H     H_    0.545102 0.303318 0.860303 -0.014793
H84   H     H_    0.897618 0.723749 0.400372 0.038657
H85   H     H_    0.082729 0.707283 0.370331 0.164109
H86   H     H_    0.027207 0.798074 0.397191 0.059456
H87   H     H_    0.489245 0.134542 0.543370 0.160596
H88   H     H_    0.462041 0.128975 0.638321 0.116425
H89   H     H_    0.396653 0.221743 0.354173 0.126674
H90   H     H_    0.463069 0.054244 0.575373 0.148188
H91   H     H_    0.031292 0.018544 0.686192 0.046586
H92   H     H_    0.191953 0.082751 0.724304 0.109370
H93   H     H_    0.200721 0.990651 0.733722 0.048226
H94   H     H_    0.749771 0.987430 0.330845 0.010070
H95   H     H_    0.775985 0.070500 0.294065 0.033479
H96   H     H_    0.601037 0.014147 0.270118 0.044963
H97   H     H_    0.728162 0.859745 0.275040 0.049847
H98   H     H_    0.803495 0.850647 0.365602 0.049496
H99   H     H_    0.606380 0.828797 0.335728 0.065304
H100  H     H_    0.514722 0.695627 0.304504 0.018059
H101  H     H_    0.282207 0.034164 0.380810 0.078658
H102  H     H_    0.240919 0.958621 0.423654 0.002025
H103  H     H_    0.371788 0.952597 0.351437 0.013508
H104  H     H_    0.587919 0.631644 0.914567 0.028315
H105  H     H_    0.406756 0.637583 0.860704 -0.024319
H106  H     H_    0.590754 0.652118 0.827743 0.084002
H107  H     H_    0.517883 0.696778 0.019380 0.007247
H108  H     H_    0.666147 0.633979 0.040288 0.002686
H109  H     H_    0.627519 0.707315 0.104466 0.068253
H110  H     H_    0.195333 0.414316 0.207042 0.133655
O1    O     O_2   0.118870 0.674530 0.547560 -0.489193
O2    O     O_2   0.800150 0.440362 0.750017 -0.415349
O3    O     O_3   0.875117 0.308730 0.722735 -0.555978
O4    O     O_3   0.870460 0.585330 0.542110 -0.498732
O5    O     O_3   0.436130 0.464210 0.414140 -0.489042
O6    O     O_2   0.629420 0.533310 0.672080 -0.460666
O7    O     O_3   0.487757 0.651928 0.708240 -0.716851
O8    O     O_2   0.530453 0.248093 0.512387 -0.480269
O9    O     O_3   0.521022 0.249869 0.646979 -0.605830
O10   O     O_3   0.354280 0.631750 0.418430 -0.490823
O11   O     O_2   0.261992 0.755010 0.474095 -0.483774
O12   O     O_3   0.338371 0.351671 0.316063 -0.606261
O13   O     O_3   0.961345 0.686631 0.661514 -0.614904
O14   O     O_3   0.326176 0.750752 0.342012 -0.658279
O15   O     O_2   0.180880 0.466650 0.327890 -0.484247
O16   O     O_3   0.939000 0.596010 0.380670 -0.494363
O17   O     O_2   0.008905 0.544392 0.253333 -0.512034
O18   O     O_3   0.531444 0.228708 0.221881 -0.668490
O19   O     O_3   0.801087 0.228765 0.201455 -0.671768
O20   O     O_3   0.312961 0.741147 0.165145 -0.629596
O21   O     O_3   0.668716 0.719299 0.656130 -0.654502
O22   O     O_3   0.453512 0.813627 0.622056 -0.659251
O23   O     O_3   0.932466 0.674061 0.252502 -0.628883
O24   O     O_3   0.012089 0.184291 0.766839 -0.658579
O25   O     O_3   0.595038 0.308216 0.757277 -0.602672
O26   O     O_3   0.238492 0.014261 0.634552 -0.696458
O27   O     O_3   0.615177 0.071635 0.370488 -0.626180
O28   O     O_3   0.754977 0.754713 0.293777 -0.693670
O29   O     O_3   0.460498 0.009661 0.450189 -0.631024
O30   O     O_3   0.542486 0.546072 0.835641 -0.625827
O31   O     O_3   0.453072 0.627394 0.087996 -0.624199
O32   O     O_3   0.045874 0.430821 0.869103 -0.626764
O33   O     O_3   0.694735 0.367454 0.255127 -0.699792
O34   O     O_2   0.691430 0.325420 0.452420 -0.483605
O35   O     O_3   0.939830 0.414660 0.457830 -0.471726
O36   O     O_3   0.456020 0.368240 0.581510 -0.453597
O37   O     O_3   0.862632 0.319877 0.338695 -0.705718
O38   O     O_3   0.374170 0.535780 0.585810 -0.489999
O39   O     O_3   0.871300 0.403980 0.619270 -0.485911
P1    P     P_3+3 0.947550 0.663200 0.567530 0.999244
P2    P     P_3+3 0.354660 0.445020 0.336980 0.998460
P3    P     P_3+3 0.890734 0.594639 0.288610 0.919221
P4    P     P_3+3 0.862750 0.336790 0.432410 0.952223
P5    P     P_3+3 0.921922 0.396302 0.709480 1.030381
P6    P     P_3+3 0.384373 0.723981 0.425115 0.906561
P7    P     P_3+3 0.457428 0.558339 0.675312 0.950661
P8    P     P_3+3 0.425500 0.275692 0.570993 0.931794

loop_
_geom_bond_atom_site_label_1
_geom_bond_atom_site_label_2
_ccdc_geom_bond_type
O39   P5    S    
C69   O24   S    
C69   H75   S    
C25   C27   A    
C61   H53   S    
C55   H45   S    
Ba1   O1    S    
Ba2   O5    S    
C30   H30   S    
C48   P5    S    
Ba1   O4    S    
C59   H46   S    
C2    C85   A    
C43   C44   A    
C42   C43   A    
C23   H13   S    
C5    C9    A    
Ba2   O4    S    
C82   H5    S    
C24   C25   A    
C69   H76   S    
C71   O25   S    
C40   O19   S    
C32   C38   A    
C15   C24   A    
C26   C27   A    
C33   C35   A    
O11   P6    D    
C68   H72   S    
C38   P3    S    
C74   H91   S    
C32   H38   S    
C36   C37   A    
C83   H9    S    
C55   C57   S    
O6    P7    D    
C52   C61   S    
C13   C14   A    
C4    O28   S    
C9    C22   A    
C37   H36   S    
C34   H15   S    
C32   C33   A    
C60   H49   S    
C79   H104  S    
C40   O18   S    
C29   P6    S    
C75   H96   S    
C53   H37   S    
C42   C51   S    
C67   H21   S    
C5    C85   A    
C67   O25   S    
C6    C7    A    
C10   P8    S    
C77   H103  S    
C72   H84   S    
C78   H22   S    
C75   H94   S    
C21   C22   A    
O23   P3    S    
C76   H99   S    
C63   H60   S    
O8    P8    D    
C79   O30   S    
C7    C8    A    
C77   O29   S    
C64   H61   S    
C57   H78   S    
Ba2   O35   S    
C77   H102  S    
C66   H68   S    
C76   O28   S    
C39   O31   S    
O16   P3    S    
Ba1   O15   S    
C70   H80   S    
C39   C41   A    
O14   P6    S    
C2    H31   S    
C23   O21   S    
C68   H73   S    
C33   P2    S    
C70   H79   S    
C79   H106  S    
C71   H81   S    
Ba1   O10   S    
Ba1   O5    S    
C34   O22   S    
C54   H23   S    
C56   O24   S    
C59   H47   S    
C4    C72   S    
C52   C54   S    
C26   C29   A    
C74   O26   S    
C70   H77   S    
C4    C16   S    
C55   O12   S    
O3    P5    S    
C16   C83   S    
C77   H101  S    
C55   H56   S    
C73   H88   S    
C49   C50   A    
C84   O33   S    
O13   P1    S    
C58   H41   S    
C31   P1    S    
O12   P2    S    
C64   H62   S    
C57   H89   S    
O10   P6    S    
C58   H43   S    
C37   C38   A    
C3    C5    A    
C50   O30   S    
C21   O27   S    
Ba2   O36   S    
O37   P4    S    
C62   H57   S    
C49   C53   A    
C66   H69   S    
C80   O31   S    
C13   P4    S    
C6    C73   S    
O34   P4    D    
C68   H71   S    
C60   H48   S    
C41   C42   A    
C79   H105  S    
C35   C36   A    
C84   H12   S    
O1    P1    D    
C54   C63   S    
O36   P8    S    
C29   C30   A    
C1    O20   S    
C45   H19   S    
O38   P7    S    
C78   H25   S    
C75   H95   S    
C67   O9    S    
C44   H35   S    
C76   H98   S    
C16   H17   S    
C28   O37   S    
C2    C19   A    
C82   O32   S    
C62   H55   S    
C57   H67   S    
C80   H108  S    
C1    C12   S    
Ba2   O34   S    
C72   H86   S    
C4    O23   S    
C18   C31   A    
C12   O14   S    
C43   H33   S    
C82   H7    S    
C20   H28   S    
C3    O26   S    
C27   H29   S    
C11   H26   S    
C11   C13   A    
C17   C26   A    
Ba2   O39   S    
C61   H51   S    
C45   O3    S    
C81   H110  S    
C23   O7    S    
C63   H58   S    
C66   H70   S    
C56   H20   S    
O7    P7    S    
C81   H4    S    
C50   C51   A    
O2    P5    D    
C1    H16   S    
C81   H3    S    
C28   H40   S    
C14   C20   A    
C69   H74   S    
C64   H63   S    
C65   H65   S    
C15   C85   A    
C36   C46   S    
Ba2   P4    S    
C65   O21   S    
O9    P8    S    
Ba2   O6    S    
C48   C53   A    
C22   C24   A    
C19   H27   S    
C74   H93   S    
C58   H42   S    
O5    P2    S    
C3    C6    A    
C34   C66   S    
C25   O29   S    
O4    P1    S    
C75   O27   S    
C61   H52   S    
Ba1   P2    S    
C64   O20   S    
C12   C58   S    
C68   O22   S    
C65   H66   S    
C1    H2    S    
Ba1   P1    S    
C30   C31   A    
C28   O33   S    
C17   C18   A    
O17   P3    D    
C71   H83   S    
C73   H90   S    
C35   C81   S    
C80   H109  S    
C8    C14   A    
C54   H34   S    
C45   C56   S    
Ba1   O16   S    
C12   H100  S    
C83   H8    S    
Ba1   O35   S    
C56   C70   S    
C52   C62   S    
Ba1   O38   S    
C65   H64   S    
C47   C51   A    
Ba1   Ba2   S    
C78   H24   S    
C60   O19   S    
C15   C17   A    
C39   C46   A    
C76   H97   S    
C82   H6    S    
C60   H50   S    
C47   O32   S    
C84   H11   S    
C7    C10   A    
O15   P2    D    
C80   H107  S    
C83   H10   S    
C8    C9    A    
C59   H44   S    
C23   C34   S    
C49   P7    S    
C44   C46   A    
Ba2   O38   S    
C52   O13   S    
C40   H1    S    
C10   C11   A    
C18   C19   A    
C47   C48   A    
C62   H54   S    
O35   P4    S    
C20   C21   A    
C28   C40   S    
C67   C78   S    
C59   O18   S    
C45   H18   S    
C63   H59   S    
C84   H14   S    
C71   H82   S    
C72   H85   S    
C16   H39   S    
C74   H92   S    
C41   H32   S    
C73   H87   S    
