data_mof_unit_20211.cif
_audit_creation_date              2012-12-11T15:32:35-0500
_audit_creation_method            fapswitch 2.2
_symmetry_space_group_name_H-M    P1
_symmetry_Int_Tables_number       1
_space_group_crystal_system       triclinic
_cell_length_a                    6.972494
_cell_length_b                    20.461997
_cell_length_c                    24.247986
_cell_angle_alpha                 89.899725
_cell_angle_beta                  90.293608
_cell_angle_gamma                 89.784569
_cell_volume                      3459.41278769

loop_
_atom_site_label
_atom_site_type_symbol
_atom_type_description
_atom_site_fract_x
_atom_site_fract_y
_atom_site_fract_z
_atom_type_partial_charge
O1    O     O_R   0.507320 0.423560 0.460500 -0.532134
O2    O     O_R   0.170760 0.556250 0.437010 -0.532374
O3    O     O_R   0.004030 0.576440 0.539500 -0.531659
C1    C     C_R   0.339110 0.576487 0.421225 0.730340
O4    O     O_R   0.177370 0.422820 0.454110 -0.542401
O5    O     O_R   0.010680 0.442050 0.556720 -0.538290
C2    C     C_R   0.346356 0.398468 0.443974 0.707839
O6    O     O_R   0.500680 0.557950 0.443280 -0.537770
O7    O     O_3   0.340380 0.506470 0.533650 -0.367518
V1    V     V_3+5 0.064130 0.498800 0.493760 1.418511
O8    O     O_R   0.681160 0.443750 0.562990 -0.536576
C3    C     C_R   0.850031 0.423691 0.578762 0.717072
O9    O     O_R   0.674560 0.577180 0.545890 -0.543492
C4    C     C_R   0.843378 0.600561 0.557573 0.675821
V2    V     V_3+5 0.564560 0.501200 0.506240 1.409534
O10   O     O_3   0.838180 0.493530 0.466350 -0.363955
C5    C     C_R   0.965998 0.836637 0.912368 -0.123078
C6    C     C_R   0.849009 0.663312 0.588622 -0.152044
C7    C     C_R   0.903565 0.720198 0.910452 -0.077471
C8    C     C_R   0.946948 0.776827 0.940539 -0.049883
C9    C     C_R   0.947129 0.838126 0.854655 -0.225047
C10   C     C_R   0.886658 0.782441 0.824275 0.054237
C11   C     C_R   0.866563 0.722289 0.853164 0.079993
C12   C     C_R   0.851389 0.784045 0.765735 -0.027157
C13   C     C_R   0.847229 0.723832 0.736182 0.069950
C14   C     C_R   0.804932 0.667138 0.766273 -0.252093
C15   C     C_R   0.810198 0.665606 0.823828 -0.025471
C16   C     C_R   0.804149 0.841888 0.735984 -0.030561
C17   C     C_R   0.788714 0.839705 0.678411 -0.126931
C18   C     C_R   0.817389 0.781815 0.648114 -0.003774
C19   C     C_R   0.854874 0.722733 0.676994 0.066947
C20   C     C_R   0.797154 0.781655 0.589672 -0.032414
C21   C     C_R   0.801133 0.721756 0.560500 -0.096242
C22   C     C_R   0.900754 0.665284 0.645496 0.074707
H1    H     H_    0.742765 0.883848 0.657612 0.195114
H2    H     H_    0.900244 0.674270 0.932410 0.204946
H3    H     H_    0.981332 0.883472 0.834168 0.119183
H4    H     H_    0.747050 0.625148 0.745075 0.109053
C23   C     C_3   0.840110 0.305050 0.769034 0.160162
C24   C     C_3   0.033992 0.276971 0.789567 0.118971
C25   C     C_1   0.965479 0.121765 0.875237 -0.180036
C26   C     C_1   0.860297 0.378242 0.624484 -0.214581
C27   C     C_3   0.750008 0.236011 0.771142 -0.200939
C28   C     C_3   0.944237 0.208033 0.791115 0.024453
C29   C     C_3   0.810953 0.224149 0.710384 -0.176477
C30   C     C_3   0.901181 0.293134 0.708635 0.068822
C31   C     C_3   0.005412 0.196154 0.731062 0.112478
C32   C     C_3   0.095963 0.265183 0.728913 0.125133
C33   C     C_1   0.957791 0.160376 0.837188 -0.041057
C34   C     C_1   0.874481 0.339875 0.662494 -0.040906
H5    H     H_    0.717874 0.202911 0.677809 0.133233
H6    H     H_    0.611977 0.222096 0.790335 0.121372
C35   C     C_3   0.530652 0.724228 0.212144 -0.127153
C36   C     C_3   0.335563 0.694913 0.230423 -0.151402
H7    H     H_    0.270833 0.649250 0.214310 0.136288
H8    H     H_    0.628388 0.703057 0.180845 0.139468
H9    H     H_    0.102430 0.775137 0.206789 0.129351
C37   C     C_1   0.349393 0.622306 0.375451 -0.187052
C38   C     C_1   0.474842 0.878162 0.124965 -0.171645
C39   C     C_3   0.580790 0.736893 0.273360 0.157331
C40   C     C_3   0.388059 0.708015 0.291307 0.139978
C41   C     C_3   0.489905 0.805791 0.270015 -0.168364
C42   C     C_3   0.436966 0.792532 0.209219 0.122760
C43   C     C_3   0.295054 0.776401 0.288090 -0.151591
C44   C     C_3   0.242387 0.763813 0.226710 -0.129081
C45   C     C_1   0.364171 0.660894 0.337488 -0.043673
C46   C     C_1   0.460215 0.839727 0.163076 -0.015540
H10   H     H_    0.198341 0.797876 0.319494 0.148465
H11   H     H_    0.555018 0.851340 0.286256 0.152040
C47   C     C_R   0.467010 0.162267 0.088610 -0.038636
C48   C     C_R   0.356462 0.335745 0.413919 -0.071598
C49   C     C_R   0.423843 0.280119 0.089308 -0.003717
C50   C     C_R   0.445269 0.221299 0.060649 -0.248471
C51   C     C_R   0.470386 0.161507 0.146399 -0.210314
C52   C     C_R   0.447875 0.219970 0.177482 0.073775
C53   C     C_R   0.415490 0.279375 0.148041 0.113383
C54   C     C_R   0.449246 0.220735 0.236826 0.027457
C55   C     C_R   0.402142 0.279103 0.265994 0.078825
C56   C     C_R   0.355880 0.335292 0.234921 -0.199839
C57   C     C_R   0.365246 0.335621 0.177751 -0.146823
C58   C     C_R   0.505384 0.165672 0.267798 -0.179493
C59   C     C_R   0.496912 0.164538 0.325481 -0.019736
C60   C     C_R   0.421560 0.219235 0.354428 0.004977
C61   C     C_R   0.396454 0.279008 0.325216 0.073109
C62   C     C_R   0.375506 0.216668 0.411862 -0.047707
C63   C     C_R   0.352164 0.275454 0.442234 0.082521
C64   C     C_R   0.371320 0.336940 0.356380 -0.240893
H12   H     H_    0.323196 0.380326 0.157205 0.180491
H13   H     H_    0.371529 0.384552 0.337259 0.103971
H14   H     H_    0.446368 0.221402 0.015898 0.096908
H15   H     H_    0.481413 0.114160 0.165793 0.105583
H16   H     H_    0.306836 0.380025 0.253600 0.128169
H17   H     H_    0.567876 0.123752 0.247801 0.161554
O11   O     O_R   0.323550 0.942140 0.056770 -0.536371
O12   O     O_R   0.647080 0.077200 0.045890 -0.538230
O13   O     O_R   0.813610 0.057920 0.943260 -0.532998
C65   C     C_R   0.478013 0.101127 0.056673 0.704303
O14   O     O_R   0.653470 0.943760 0.063000 -0.537203
O15   O     O_R   0.820050 0.923540 0.960490 -0.535018
C66   C     C_R   0.485095 0.923705 0.078935 0.724548
O16   O     O_R   0.317110 0.076520 0.039540 -0.535615
O17   O     O_3   0.483830 0.993580 0.966380 -0.366485
V3    V     V_3+5 0.760140 0.001190 0.006240 1.438545
O18   O     O_R   0.149510 0.922740 0.954070 -0.537629
C67   C     C_R   0.980408 0.898852 0.943225 0.679805
O19   O     O_R   0.143120 0.056170 0.936970 -0.538713
C68   C     C_R   0.974318 0.076214 0.921088 0.728683
V4    V     V_3+5 0.259690 0.998700 0.993700 1.434936
O20   O     O_3   0.986130 0.006420 0.033620 -0.366952
C69   C     C_2   0.750318 0.603623 0.850586 0.368955
H18   H     H_    0.772677 0.557532 0.829377 0.041149
O21   O     O_2   0.664922 0.603383 0.894405 -0.512374
C70   C     C_2   0.759867 0.843338 0.558805 0.465986
H19   H     H_    0.641636 0.846174 0.529604 0.083080
O22   O     O_2   0.865945 0.890291 0.564074 -0.508247
C71   C     C_3   0.159207 0.300809 0.837611 -0.357315
C72   C     C_3   0.212346 0.372887 0.833205 -0.750973
H20   H     H_    0.297260 0.382117 0.795662 0.233831
H21   H     H_    0.085240 0.405031 0.832423 0.234012
H22   H     H_    0.296657 0.386877 0.870156 0.227278
H23   H     H_    0.082264 0.292546 0.876952 0.182738
H24   H     H_    0.292103 0.270818 0.839117 0.163979
C73   C     C_3   0.739097 0.367792 0.787141 -0.361804
C74   C     C_3   0.691269 0.367090 0.848476 -0.742328
H25   H     H_    0.596609 0.325252 0.858208 0.226252
H26   H     H_    0.821372 0.363030 0.874453 0.237942
H27   H     H_    0.618559 0.413566 0.859428 0.231097
H28   H     H_    0.829518 0.410641 0.777192 0.171899
H29   H     H_    0.605140 0.373342 0.762919 0.179901
C75   C     C_3   0.298564 0.279144 0.707043 -0.377330
C76   C     C_3   0.314697 0.342991 0.674887 -0.748297
H30   H     H_    0.247932 0.337733 0.633532 0.238300
H31   H     H_    0.467989 0.354859 0.668619 0.218528
H32   H     H_    0.246332 0.383920 0.697552 0.225155
H33   H     H_    0.396864 0.281602 0.742663 0.187644
H34   H     H_    0.348199 0.238584 0.680444 0.184231
C77   C     C_3   0.096442 0.132399 0.710891 -0.348998
C78   C     C_3   0.090711 0.126882 0.648093 -0.697748
H35   H     H_    0.940165 0.122760 0.633399 0.232344
H36   H     H_    0.157583 0.170023 0.628309 0.213213
H37   H     H_    0.169997 0.082364 0.635167 0.239358
H38   H     H_    0.247358 0.129856 0.725657 0.176907
H39   H     H_    0.017261 0.090462 0.728784 0.221218
C79   C     C_3   0.036035 0.612229 0.668383 -0.360476
C80   C     C_3   0.229140 0.640931 0.685981 -0.697690
H40   H     H_    0.294454 0.668169 0.651165 0.227639
H41   H     H_    0.212191 0.674268 0.721671 0.233187
H42   H     H_    0.328391 0.600867 0.698365 0.200635
H43   H     H_    0.975236 0.583676 0.702571 0.158848
H44   H     H_    0.068911 0.574449 0.637313 0.182672
C81   C     C_3   0.773701 0.722928 0.301059 -0.355468
C82   C     C_3   0.841591 0.653192 0.290206 -0.736742
H45   H     H_    0.732658 0.617334 0.303912 0.231136
H46   H     H_    0.870093 0.646155 0.245593 0.224736
H47   H     H_    0.976039 0.643765 0.313461 0.228743
H48   H     H_    0.880859 0.757801 0.284935 0.179580
H49   H     H_    0.760180 0.730765 0.346193 0.218019
C83   C     C_3   0.322454 0.274031 0.504579 -0.384110
C84   C     C_3   0.513430 0.265625 0.534981 -0.756896
H50   H     H_    0.587332 0.220143 0.521884 0.217611
H51   H     H_    0.608186 0.307913 0.526464 0.234706
H52   H     H_    0.488108 0.262899 0.580078 0.221346
H53   H     H_    0.252959 0.319402 0.519687 0.180373
H54   H     H_    0.221935 0.234607 0.516532 0.173023
C85   C     C_2   0.593994 0.109277 0.354453 0.506884
H55   H     H_    0.650015 0.115621 0.395903 0.036768
O23   O     O_2   0.615423 0.056348 0.332043 -0.511335
C86   C     C_2   0.413645 0.340512 0.055334 0.370231
H56   H     H_    0.354505 0.338322 0.013862 0.050914
O24   O     O_2   0.481840 0.391955 0.071432 -0.515079
C87   C     C_2   0.768155 0.719618 0.499502 0.333291
H57   H     H_    0.696426 0.678217 0.480815 0.064877
O25   O     O_2   0.827513 0.762643 0.469174 -0.525481
C88   C     C_2   0.326957 0.153487 0.438884 0.337112
H58   H     H_    0.369259 0.143608 0.481160 0.070648
O26   O     O_2   0.233352 0.112378 0.414268 -0.499836
C89   C     C_2   0.973151 0.772857 0.001409 0.395723
H59   H     H_    0.014199 0.815666 0.024944 0.031613
O27   O     O_2   0.949304 0.721545 0.026206 -0.513873
C90   C     C_2   0.730268 0.901810 0.763384 0.348479
H60   H     H_    0.662208 0.898650 0.803433 0.060215
O28   O     O_2   0.741857 0.955264 0.741156 -0.526427

loop_
_geom_bond_atom_site_label_1
_geom_bond_atom_site_label_2
_ccdc_geom_bond_type
C28   C33   S    
C13   C19   A    
O15   V3    S    
C87   H57   S    
C42   C44   S    
C85   H55   S    
C4    C6    S    
C7    C11   A    
C7    C8    A    
C16   C90   S    
C61   C64   A    
C1    O6    A    
C76   H32   S    
C80   H40   S    
C73   C74   S    
C36   C44   S    
C54   C55   A    
C71   C72   S    
C87   O25   D    
C22   C79   S    
C14   C15   A    
C17   C18   A    
O9    V2    S    
C71   H24   S    
C60   C61   A    
C43   H10   S    
C16   C17   A    
C50   H14   S    
C7    H2    S    
C72   H21   S    
C2    C48   S    
C18   C19   A    
C27   H6    S    
O19   C68   A    
C29   H5    S    
V2    O10   S    
C5    C8    A    
C23   C73   S    
V4    O20   S    
C39   C41   S    
C69   H18   S    
C3    C26   S    
C38   C46   T    
C88   H58   S    
O8    V2    S    
C40   C45   S    
C37   C45   T    
C75   H33   S    
C15   C69   S    
O12   V3    S    
C89   O27   D    
C47   C51   A    
C79   H44   S    
C81   C82   S    
C84   H51   S    
O17   V4    S    
O1    V2    S    
C11   C15   A    
C20   C70   S    
C18   C20   A    
O7    V1    S    
C41   C43   S    
C28   C31   S    
C49   C53   A    
C49   C50   A    
O16   V4    S    
C86   O24   D    
C77   H39   S    
C85   O23   D    
O9    C4    A    
C73   H29   S    
C38   C66   S    
C49   C86   S    
C32   C75   S    
C25   C33   T    
O18   C67   A    
C80   H41   S    
C35   C39   S    
C90   O28   D    
C58   C59   A    
C42   C46   S    
C29   C31   S    
O15   C67   A    
C30   C32   S    
C19   C22   A    
C77   H38   S    
C51   C52   A    
C31   C32   S    
C53   C57   A    
C12   C13   A    
C71   H23   S    
C72   H22   S    
C23   C24   S    
O4    C2    A    
C55   C56   A    
C14   H4    S    
C23   C27   S    
C13   C14   A    
C62   C63   A    
C59   C60   A    
C55   C61   A    
C5    C9    A    
C41   H11   S    
C39   C40   S    
C39   C81   S    
C51   H15   S    
C40   C43   S    
O2    C1    A    
C52   C53   A    
C41   C42   S    
C5    C67   S    
C48   C63   A    
C63   C83   S    
C84   H50   S    
C82   H47   S    
O11   C66   A    
O11   V4    S    
C31   C77   S    
C47   C50   A    
O12   C65   A    
C62   C88   S    
C84   H52   S    
C81   H48   S    
C58   H17   S    
C52   C54   A    
C56   H16   S    
O3    C4    A    
C78   H36   S    
C83   H53   S    
C26   C34   T    
C23   C30   S    
C48   C64   A    
C86   H56   S    
C60   C62   A    
O13   C68   A    
C82   H46   S    
C89   H59   S    
O6    V2    S    
O14   C66   A    
C74   H27   S    
C27   C28   S    
C83   C84   S    
C10   C12   A    
C76   H30   S    
O2    V1    S    
C81   H49   S    
O18   V4    S    
C80   H42   S    
C90   H60   S    
C74   H26   S    
C70   H19   S    
C35   H8    S    
C24   C32   S    
C17   H1    S    
C36   H7    S    
C25   C68   S    
C79   H43   S    
O1    C2    A    
C75   H34   S    
C12   C16   A    
H9    C44   S    
C79   C80   S    
C76   H31   S    
C78   H37   S    
O5    V1    S    
O8    C3    A    
C47   C65   S    
C35   C36   S    
C8    C89   S    
C36   C40   S    
C83   H54   S    
C77   C78   S    
C30   C34   S    
V3    O20   S    
C43   C44   S    
C64   H13   S    
C75   C76   S    
O7    V2    S    
O4    V1    S    
C27   C29   S    
O3    V1    S    
V1    O10   S    
C72   H20   S    
C20   C21   A    
O5    C3    A    
C35   C42   S    
C73   H28   S    
C24   C71   S    
O19   V4    S    
C6    C22   A    
C88   O26   D    
O17   V3    S    
C6    C21   A    
C69   O21   D    
C78   H35   S    
C56   C57   A    
C29   C30   S    
C24   C28   S    
C9    H3    S    
C82   H45   S    
C57   H12   S    
C54   C58   A    
O13   V3    S    
C1    C37   S    
C10   C11   A    
C9    C10   A    
C65   O16   A    
O14   V3    S    
C74   H25   S    
C70   O22   D    
C59   C85   S    
C21   C87   S    
