data_mof_unit_62151.cif
_audit_creation_date              2012-12-10T16:35:08-0500
_audit_creation_method            fapswitch 2.2
_symmetry_space_group_name_H-M    P1
_symmetry_Int_Tables_number       1
_space_group_crystal_system       triclinic
_cell_length_a                    10.846193
_cell_length_b                    10.874359
_cell_length_c                    10.887821
_cell_angle_alpha                 81.477601
_cell_angle_beta                  98.74978
_cell_angle_gamma                 89.627453
_cell_volume                      1254.6542609

loop_
_atom_site_label
_atom_site_type_symbol
_atom_type_description
_atom_site_fract_x
_atom_site_fract_y
_atom_site_fract_z
_atom_type_partial_charge
C1    C     C_R   0.835132 0.469890 0.530008 0.939929
C2    C     C_2   0.472270 0.030367 0.530349 -0.448806
C3    C     C_2   0.535363 0.966157 0.462327 0.270932
C4    C     C_2   0.027580 0.541578 0.456861 -0.193415
C5    C     C_2   0.962891 0.639794 0.355872 0.469305
C6    C     C_2   0.662379 0.400503 0.036547 0.516452
C7    C     C_2   0.968264 0.464410 0.535364 -0.307161
C8    C     C_2   0.466383 0.531235 0.024963 -0.354521
C9    C     C_2   0.542895 0.463654 0.972287 -0.156044
C10   C     C_R   0.163700 0.528278 0.471411 0.783509
C11   C     C_R   0.524219 0.473855 0.838143 0.767338
C12   C     C_R   0.477426 0.527268 0.160318 0.938360
C13   C     C_R   0.523282 0.834581 0.476249 0.842810
C14   C     C_R   0.477444 0.164552 0.522611 0.912777
Cl1   Cl    Cl    0.630062 0.028556 0.350780 -0.542152
H1    H     H_    0.414812 0.981407 0.594399 0.125371
H2    H     H_    0.018903 0.394672 0.607451 0.148573
H3    H     H_    0.389923 0.587066 0.966057 0.140240
H4    H     H_    0.017329 0.698574 0.296270 0.094240
H5    H     H_    0.688960 0.311702 0.012476 0.037067
O1    O     O_3   0.500000 0.500000 0.500000 -0.517941
O2    O     O_R   0.597340 0.765700 0.560080 -0.625788
O3    O     O_R   0.548200 0.222430 0.451790 -0.587761
O4    O     O_R   0.441590 0.789440 0.401000 -0.633038
O5    O     O_R   0.412860 0.222430 0.587130 -0.648320
O6    O     O_2   0.849797 0.656897 0.337253 -0.535948
O7    O     O_2   0.736091 0.451273 0.107956 -0.510318
O8    O     O_R   0.441590 0.410520 0.779910 -0.633991
O9    O     O_R   0.548210 0.443940 0.230290 -0.589499
O10   O     O_R   0.787780 0.544200 0.591150 -0.624985
O11   O     O_R   0.222430 0.601350 0.398650 -0.667269
O12   O     O_R   0.767360 0.410530 0.454140 -0.589688
O13   O     O_R   0.222430 0.443930 0.556060 -0.625348
O14   O     O_R   0.597340 0.544190 0.781580 -0.634479
O15   O     O_R   0.412870 0.601350 0.208220 -0.643263
Zn1   Zn    Zn3+2 0.396020 0.396030 0.603970 0.970163
Zn2   Zn    Zn3+2 0.618560 0.587010 0.606350 1.024079
Zn3   Zn    Zn3+2 0.396030 0.620930 0.379070 1.007921
Zn4   Zn    Zn3+2 0.589390 0.396030 0.410610 1.080667

loop_
_geom_bond_atom_site_label_1
_geom_bond_atom_site_label_2
_ccdc_geom_bond_type
C14   O3    A    
O4    Zn3   S    
C5    H4    S    
C12   O9    A    
O14   Zn2   S    
C2    H1    S    
C6    O7    D    
O1    Zn4   S    
O11   Zn3   S    
C8    C12   S    
O9    Zn4   S    
C6    C9    S    
C2    C3    D    
O1    Zn2   S    
O1    Zn1   S    
C12   O15   A    
C9    C11   S    
C11   O8    A    
C4    C7    D    
O3    Zn4   S    
C1    O10   A    
C13   O2    A    
C10   O13   A    
C11   O14   A    
C14   O5    A    
C2    C14   S    
O5    Zn1   S    
C4    C10   S    
C5    O6    D    
O13   Zn1   S    
C6    H5    S    
O8    Zn1   S    
O12   Zn4   S    
O15   Zn3   S    
C8    C9    D    
C3    Cl1   S    
C1    C7    S    
O2    Zn2   S    
C10   O11   A    
C1    O12   A    
C8    H3    S    
O1    Zn3   S    
O10   Zn2   S    
C13   O4    A    
C4    C5    S    
C7    H2    S    
C3    C13   S    
