data_mof_unit_13749.cif
_audit_creation_date              2012-12-11T14:28:20-0500
_audit_creation_method            fapswitch 2.2
_symmetry_space_group_name_H-M    P1
_symmetry_Int_Tables_number       1
_space_group_crystal_system       triclinic
_cell_length_a                    10.928368
_cell_length_b                    19.108177
_cell_length_c                    18.494067
_cell_angle_alpha                 89.795617
_cell_angle_beta                  90.092109
_cell_angle_gamma                 90.073357
_cell_volume                      3861.92038179

loop_
_atom_site_label
_atom_site_type_symbol
_atom_type_description
_atom_site_fract_x
_atom_site_fract_y
_atom_site_fract_z
_atom_type_partial_charge
C1    C     C_R   0.321605 0.971409 0.647868 0.526212
C2    C     C_3   0.213113 0.734328 0.045185 -0.137099
C3    C     C_3   0.968364 0.216194 0.987349 -0.120231
C4    C     C_3   0.561434 0.312165 0.471895 -0.119814
C5    C     C_3   0.559554 0.310724 0.026563 -0.118843
C6    C     C_3   0.487066 0.711022 0.517597 -0.113142
C7    C     C_3   0.516609 0.704720 0.982793 -0.109631
C8    C     C_3   0.179406 0.790078 0.511801 -0.109694
C9    C     C_3   0.207430 0.804505 0.002952 -0.139303
C10   C     C_3   0.107969 0.186624 0.482741 -0.115321
C11   C     C_3   0.097293 0.194891 0.013945 -0.117161
C12   C     C_3   0.679405 0.290076 0.511803 -0.108649
C13   C     C_3   0.183365 0.231839 0.535537 -0.152054
C14   C     C_3   0.675260 0.285888 0.986816 -0.109877
C15   C     C_3   0.607974 0.686621 0.482743 -0.116196
C16   C     C_3   0.644181 0.679265 0.008172 -0.128428
C17   C     C_3   0.099719 0.752817 0.568549 0.057607
C18   C     C_3   0.149603 0.764995 0.939420 0.059063
C19   C     C_3   0.099869 0.248954 0.430947 0.060808
C20   C     C_3   0.089535 0.252385 0.070979 0.057487
C21   C     C_3   0.599715 0.252816 0.568551 0.059659
C22   C     C_3   0.592952 0.251213 0.929749 0.059059
C23   C     C_3   0.599876 0.748952 0.430949 0.058595
C24   C     C_3   0.157056 0.247642 0.961679 -0.120815
C25   C     C_3   0.646817 0.738776 0.062178 0.057322
C26   C     C_3   0.982775 0.775591 0.530296 -0.137341
C27   C     C_3   0.020472 0.779067 0.967622 -0.117279
C28   C     C_3   0.980245 0.273215 0.463984 -0.156751
C29   C     C_3   0.961969 0.273504 0.046217 -0.157317
C30   C     C_3   0.482773 0.275592 0.530298 -0.137396
C31   C     C_3   0.477717 0.276828 0.968040 -0.131988
C32   C     C_3   0.480253 0.773214 0.463987 -0.156471
C33   C     C_3   0.521083 0.764438 0.038457 -0.121067
C34   C     C_3   0.987459 0.706446 0.487039 -0.104905
C35   C     C_3   0.684330 0.220925 0.468887 -0.132661
C36   C     C_3   0.026696 0.709322 0.009600 -0.108272
C37   C     C_3   0.055270 0.318375 0.516592 -0.107918
C38   C     C_3   0.022127 0.326333 0.993973 -0.129513
C39   C     C_3   0.487455 0.206447 0.487041 -0.105079
C40   C     C_3   0.476749 0.207285 0.011341 -0.106533
C41   C     C_3   0.555279 0.818373 0.516595 -0.107078
C42   C     C_3   0.584628 0.812142 0.983237 -0.105382
C43   C     C_3   0.105290 0.684223 0.526450 -0.112653
C44   C     C_3   0.156056 0.695239 0.980705 -0.100326
C45   C     C_3   0.176115 0.294239 0.482674 -0.097175
C46   C     C_3   0.674723 0.216338 0.029367 -0.131384
C47   C     C_3   0.150862 0.305030 0.019552 -0.092932
C48   C     C_3   0.605283 0.184222 0.526452 -0.112546
C49   C     C_3   0.592606 0.182255 0.971735 -0.113633
C50   C     C_3   0.676124 0.794236 0.482676 -0.098011
C51   C     C_3   0.711686 0.787158 0.008364 -0.113745
C52   C     C_3   0.683372 0.731835 0.535540 -0.152225
C53   C     C_3   0.708709 0.727330 0.952525 -0.151291
C54   C     C_3   0.067687 0.743371 0.430285 0.060282
C55   C     C_3   0.084385 0.748650 0.073291 0.056022
C56   C     C_3   0.064081 0.256221 0.568889 0.056219
C57   C     C_R   0.321820 0.971184 0.852127 0.520786
C58   C     C_3   0.029408 0.269403 0.936814 0.056261
C59   C     C_3   0.567685 0.243371 0.430287 0.060238
C60   C     C_3   0.560496 0.241607 0.068002 0.060431
C61   C     C_3   0.564087 0.756219 0.568891 0.057966
C62   C     C_3   0.582182 0.752199 0.928181 0.052847
C63   C     C_R   0.322721 0.999858 0.427768 -0.044496
C64   C     C_R   0.322086 0.000886 0.072026 -0.043360
C65   C     C_R   0.333890 0.010139 0.579091 -0.046121
C66   C     C_R   0.334960 0.009709 0.920642 -0.043322
C67   C     C_R   0.822721 0.499858 0.427768 -0.045157
C68   C     C_R   0.319282 0.030623 0.354276 0.523221
C69   C     C_R   0.823709 0.499771 0.072559 -0.046732
C70   C     C_R   0.833891 0.510139 0.579090 -0.045834
C71   C     C_R   0.831292 0.509826 0.920841 -0.045233
C72   C     C_R   0.543004 0.975702 0.424528 -0.079472
C73   C     C_R   0.542425 0.974810 0.076735 -0.079608
C74   C     C_R   0.560092 0.004097 0.571937 -0.102121
C75   C     C_R   0.560938 0.001369 0.928960 -0.100863
C76   C     C_R   0.043003 0.475701 0.424526 -0.079459
C77   C     C_R   0.045384 0.481638 0.074349 -0.076318
C78   C     C_R   0.060092 0.504096 0.571935 -0.102142
C79   C     C_R   0.319113 0.030907 0.145639 0.524872
C80   C     C_R   0.057211 0.510406 0.926606 -0.088660
C81   C     C_R   0.655660 0.972420 0.459089 -0.130294
C82   C     C_R   0.655848 0.971882 0.042976 -0.128657
C83   C     C_R   0.664930 0.988091 0.532361 -0.145365
C84   C     C_R   0.665701 0.986928 0.969511 -0.148254
C85   C     C_R   0.155660 0.472420 0.459087 -0.130097
C86   C     C_R   0.156465 0.478644 0.038604 -0.129383
C87   C     C_R   0.164930 0.488091 0.532359 -0.145476
C88   C     C_R   0.163127 0.494104 0.965132 -0.135980
C89   C     C_R   0.443544 0.003641 0.538678 -0.007133
C90   C     C_R   0.821605 0.471409 0.647868 0.527104
C91   C     C_R   0.444026 0.001734 0.961652 -0.004767
C92   C     C_R   0.436511 0.993910 0.463024 -0.001780
C93   C     C_R   0.436172 0.992999 0.037428 -0.003979
C94   C     C_R   0.943544 0.503641 0.538677 -0.007127
C95   C     C_R   0.941843 0.507898 0.960715 -0.013106
C96   C     C_R   0.936511 0.493910 0.463023 -0.001717
C97   C     C_R   0.937087 0.498157 0.036608 -0.005275
C98   C     C_R   0.223475 0.022863 0.542846 0.005974
C99   C     C_R   0.224864 0.024741 0.955981 0.003073
C100  C     C_R   0.214004 0.004002 0.470006 0.004745
C101  C     C_R   0.821304 0.471421 0.852012 0.519513
C102  C     C_R   0.213755 0.007016 0.029147 0.006396
C103  C     C_R   0.723475 0.522864 0.542846 0.006137
C104  C     C_R   0.720371 0.518084 0.957606 0.008137
C105  C     C_R   0.714003 0.504003 0.470006 0.004641
C106  C     C_R   0.714017 0.499739 0.030926 -0.002666
C107  C     C_R   0.118527 0.046506 0.580191 -0.074687
C108  C     C_R   0.121432 0.049477 0.917459 -0.075127
C109  C     C_R   0.095137 0.994181 0.441114 -0.092728
C110  C     C_R   0.093841 0.999091 0.057264 -0.086845
C111  C     C_R   0.618529 0.546507 0.580192 -0.074678
C112  C     C_R   0.819282 0.530623 0.354276 0.523542
C113  C     C_R   0.613519 0.540980 0.921211 -0.067921
C114  C     C_R   0.595137 0.494182 0.441114 -0.092698
C115  C     C_R   0.596575 0.490359 0.061506 -0.089104
C116  C     C_R   0.003253 0.040911 0.549090 -0.124077
C117  C     C_R   0.005403 0.045811 0.947813 -0.123313
C118  C     C_R   0.991649 0.013663 0.479945 -0.141884
C119  C     C_R   0.991608 0.019357 0.017317 -0.143272
C120  C     C_R   0.503254 0.540911 0.549091 -0.124083
C121  C     C_R   0.500280 0.537249 0.954566 -0.124114
C122  C     C_R   0.491649 0.513663 0.479947 -0.141652
C123  C     C_R   0.819388 0.530655 0.145825 0.516590
C124  C     C_R   0.491960 0.511331 0.024501 -0.133784
C125  C     C_R   0.133248 0.757930 0.643743 0.549009
C126  C     C_R   0.184262 0.771445 0.863754 0.565758
C127  C     C_R   0.132885 0.242501 0.355932 0.541121
C128  C     C_R   0.133109 0.242568 0.143963 0.543322
C129  C     C_R   0.633247 0.257929 0.643743 0.541036
C130  C     C_R   0.631066 0.257263 0.855319 0.533301
C131  C     C_R   0.632888 0.742501 0.355932 0.549922
C132  C     C_R   0.683698 0.729186 0.136441 0.559878
C133  C     C_R   0.540910 0.769839 0.644239 0.545343
C134  C     C_3   0.184334 0.720928 0.468884 -0.132592
C135  C     C_R   0.543192 0.769301 0.855205 0.538966
C136  C     C_R   0.542904 0.230597 0.355017 0.541011
C137  C     C_R   0.540455 0.229908 0.143979 0.541095
C138  C     C_R   0.040908 0.269840 0.644239 0.550873
C139  C     C_R   0.998788 0.286339 0.862818 0.562155
C140  C     C_R   0.042904 0.730597 0.355016 0.542961
C141  C     C_R   0.044246 0.731102 0.145562 0.538666
C142  C     C_3   0.061433 0.812166 0.471893 -0.119683
C143  C     C_3   0.076966 0.818231 0.032585 -0.118741
C144  C     C_3   0.987060 0.211023 0.517595 -0.113594
Cr1   Cr    Cr6+3 0.488160 0.884660 0.750000 0.990027
Cr2   Cr    Cr6+3 0.333410 0.272740 0.250000 0.995999
Cr3   Cr    Cr6+3 0.833410 0.227260 0.750000 0.991491
Cr4   Cr    Cr6+3 0.833410 0.772740 0.250000 0.990778
Cr5   Cr    Cr6+3 0.488160 0.115340 0.250000 1.010214
Cr6   Cr    Cr6+3 0.988160 0.384660 0.750000 0.991649
Cr7   Cr    Cr6+3 0.988160 0.615340 0.250000 1.004376
Cr8   Cr    Cr6+3 0.173480 0.883120 0.750000 1.016368
Cr9   Cr    Cr6+3 0.173480 0.116880 0.250000 1.003477
Cr10  Cr    Cr6+3 0.673480 0.383120 0.750000 1.013250
Cr11  Cr    Cr6+3 0.673480 0.616880 0.250000 1.002070
Cr12  Cr    Cr6+3 0.333410 0.727260 0.750000 0.989097
H1    H     H_    0.256723 0.825526 0.525193 0.121982
H2    H     H_    0.926509 0.063078 0.917202 0.108058
H3    H     H_    0.903135 0.010068 0.455071 0.106336
H4    H     H_    0.902192 0.016448 0.041341 0.105308
H5    H     H_    0.423452 0.557842 0.578728 0.102919
H6    H     H_    0.419986 0.555856 0.926350 0.097209
H7    H     H_    0.403134 0.510068 0.455073 0.106446
H8    H     H_    0.405655 0.510517 0.051712 0.105642
H9    H     H_    0.039937 0.862516 0.445678 0.115354
H10   H     H_    0.038907 0.866053 0.056994 0.113904
H11   H     H_    0.910144 0.177257 0.535237 0.130028
H12   H     H_    0.281874 0.843822 0.997933 0.109830
H13   H     H_    0.895905 0.179653 0.969268 0.128017
H14   H     H_    0.539943 0.362516 0.445680 0.115148
H15   H     H_    0.542045 0.361047 0.053233 0.116895
H16   H     H_    0.410148 0.677256 0.535239 0.130006
H17   H     H_    0.434511 0.672894 0.970509 0.120982
H18   H     H_    0.905716 0.800292 0.559441 0.113967
H19   H     H_    0.944739 0.798353 0.932952 0.124431
H20   H     H_    0.902507 0.292296 0.430820 0.098866
H21   H     H_    0.886566 0.285633 0.084227 0.104342
H22   H     H_    0.405715 0.300294 0.559442 0.113683
H23   H     H_    0.132884 0.134710 0.462093 0.160640
H24   H     H_    0.401123 0.303680 0.940202 0.112954
H25   H     H_    0.402513 0.792296 0.430825 0.100091
H26   H     H_    0.451329 0.783014 0.077242 0.112199
H27   H     H_    0.909380 0.671359 0.474094 0.121624
H28   H     H_    0.951949 0.670102 0.014179 0.115538
H29   H     H_    0.027304 0.370617 0.534706 0.160259
H30   H     H_    0.984895 0.377542 0.979415 0.138369
H31   H     H_    0.409374 0.171361 0.474095 0.121546
H32   H     H_    0.395231 0.174678 0.023926 0.116582
H33   H     H_    0.527314 0.870615 0.534709 0.160530
H34   H     H_    0.133403 0.142877 0.028288 0.150731
H35   H     H_    0.551893 0.865004 0.969778 0.155900
H36   H     H_    0.125749 0.633150 0.551573 0.134069
H37   H     H_    0.189692 0.644857 0.958790 0.133208
H38   H     H_    0.252766 0.329139 0.466784 0.131598
H39   H     H_    0.228029 0.340102 0.033719 0.130393
H40   H     H_    0.625740 0.133149 0.551577 0.133833
H41   H     H_    0.608676 0.131253 0.945999 0.133022
H42   H     H_    0.752774 0.829136 0.466786 0.131488
H43   H     H_    0.789150 0.822173 0.022327 0.120217
H44   H     H_    0.262521 0.696931 0.440078 0.119131
H45   H     H_    0.756723 0.325522 0.525196 0.122094
H46   H     H_    0.286667 0.713091 0.080187 0.120338
H47   H     H_    0.260779 0.212010 0.568466 0.099105
H48   H     H_    0.232251 0.234860 0.923847 0.112343
H49   H     H_    0.762516 0.196927 0.440081 0.118598
H50   H     H_    0.749879 0.189733 0.058852 0.121152
H51   H     H_    0.760783 0.712006 0.568469 0.099202
H52   H     H_    0.782636 0.710636 0.915349 0.107033
H53   H     H_    0.734452 0.955426 0.428811 0.102632
H54   H     H_    0.735222 0.956185 0.073909 0.107583
H55   H     H_    0.752480 0.985339 0.559315 0.112107
H56   H     H_    0.754600 0.319846 0.973599 0.114459
H57   H     H_    0.753791 0.984925 0.943178 0.112723
H58   H     H_    0.234451 0.455426 0.428809 0.102484
H59   H     H_    0.235416 0.460831 0.068198 0.098073
H60   H     H_    0.252481 0.485340 0.559313 0.112100
H61   H     H_    0.249308 0.490567 0.937145 0.109132
H62   H     H_    0.538956 0.960582 0.368226 0.126056
H63   H     H_    0.537924 0.960338 0.133294 0.128993
H64   H     H_    0.571237 0.017444 0.628367 0.130019
H65   H     H_    0.572898 0.014399 0.872444 0.131547
H66   H     H_    0.038954 0.460580 0.368225 0.124949
H67   H     H_    0.632888 0.634708 0.462094 0.160505
H68   H     H_    0.043712 0.465563 0.130516 0.127673
H69   H     H_    0.071237 0.517444 0.628366 0.130965
H70   H     H_    0.065944 0.523307 0.869835 0.133397
H71   H     H_    0.080867 0.971258 0.388354 0.131393
H72   H     H_    0.077375 0.976248 0.109948 0.132702
H73   H     H_    0.125734 0.067464 0.634415 0.122502
H74   H     H_    0.130246 0.069455 0.862792 0.127315
H75   H     H_    0.580866 0.471260 0.388355 0.131172
H76   H     H_    0.584484 0.467934 0.114837 0.131907
H77   H     H_    0.625737 0.567466 0.634415 0.121484
H78   H     H_    0.674120 0.628743 0.029261 0.144953
H79   H     H_    0.618185 0.562520 0.866985 0.124734
H80   H     H_    0.923450 0.057842 0.578726 0.103052
O1    O     O_R   0.575450 0.828820 0.667950 -0.520502
O2    O     O_R   0.416860 0.942890 0.825320 -0.514956
O3    O     O_R   0.416860 0.057110 0.325320 -0.500292
O4    O     O_R   0.416860 0.057110 0.174680 -0.501191
O5    O     O_R   0.916860 0.442890 0.674680 -0.512224
O6    O     O_R   0.916860 0.442890 0.825320 -0.525062
O7    O     O_R   0.916860 0.557110 0.325320 -0.498600
O8    O     O_R   0.916860 0.557110 0.174680 -0.503944
O9    O     O_R   0.213790 0.953680 0.668330 -0.512277
O10   O     O_R   0.213790 0.953680 0.831670 -0.519535
O11   O     O_R   0.213790 0.046320 0.331670 -0.530431
O12   O     O_R   0.575450 0.828820 0.832050 -0.518869
O13   O     O_R   0.213790 0.046320 0.168330 -0.530022
O14   O     O_R   0.713790 0.453680 0.668330 -0.511740
O15   O     O_R   0.713790 0.453680 0.831670 -0.515394
O16   O     O_R   0.713790 0.546320 0.331670 -0.529941
O17   O     O_R   0.713790 0.546320 0.168330 -0.534700
O18   O     O_R   0.121360 0.817890 0.672660 -0.494603
O19   O     O_R   0.121360 0.817890 0.827340 -0.501651
O20   O     O_R   0.121360 0.182110 0.327340 -0.508081
O21   O     O_R   0.121360 0.182110 0.172660 -0.505441
O22   O     O_R   0.621360 0.317890 0.672660 -0.497723
O23   O     O_R   0.575450 0.171180 0.332050 -0.515812
O24   O     O_R   0.621360 0.317890 0.827340 -0.500053
O25   O     O_R   0.621360 0.682110 0.327340 -0.503275
O26   O     O_R   0.621360 0.682110 0.172660 -0.502648
O27   O     O_R   0.206850 0.711370 0.665820 -0.533016
O28   O     O_R   0.206850 0.711370 0.834180 -0.536937
O29   O     O_R   0.206850 0.288630 0.334180 -0.534173
O30   O     O_R   0.206850 0.288630 0.165820 -0.534716
O31   O     O_R   0.706850 0.211370 0.665820 -0.536643
O32   O     O_R   0.706850 0.211370 0.834180 -0.542338
O33   O     O_R   0.706850 0.788630 0.334180 -0.530601
O34   O     O_R   0.575450 0.171180 0.167950 -0.517705
O35   O     O_R   0.706850 0.788630 0.165820 -0.530837
O36   O     O_R   0.457710 0.733190 0.672630 -0.514120
O37   O     O_R   0.457710 0.733190 0.827370 -0.529491
O38   O     O_R   0.457710 0.266810 0.327370 -0.514105
O39   O     O_R   0.457710 0.266810 0.172630 -0.514746
O40   O     O_R   0.957710 0.233190 0.672630 -0.510394
O41   O     O_R   0.957710 0.233190 0.827370 -0.513602
O42   O     O_R   0.957710 0.766810 0.327370 -0.513662
O43   O     O_R   0.957710 0.766810 0.172630 -0.531284
O44   O     O_3   0.331690 0.831680 0.750000 -0.267776
O45   O     O_R   0.075450 0.328820 0.667950 -0.518854
O46   O     O_3   0.331690 0.168320 0.250000 -0.249058
O47   O     O_3   0.831690 0.331680 0.750000 -0.266783
O48   O     O_3   0.831690 0.668320 0.250000 -0.267489
O49   O     O_R   0.075450 0.328820 0.832050 -0.516901
O50   O     O_R   0.075450 0.671180 0.332050 -0.514310
O51   O     O_R   0.075450 0.671180 0.167950 -0.514082
O52   O     O_R   0.416860 0.942890 0.674680 -0.511511

loop_
_geom_bond_atom_site_label_1
_geom_bond_atom_site_label_2
_ccdc_geom_bond_type
C81   H53   S    
C71   C104  A    
C73   C82   A    
C6    C32   S    
C2    H46   S    
C73   C93   A    
C74   C83   A    
Cr9   O21   S    
C50   H42   S    
C61   C133  S    
C65   C89   A    
C90   O14   A    
C47   H39   S    
C52   C61   S    
C117  C119  A    
C86   C88   A    
C71   C95   A    
C69   C123  S    
C54   C134  S    
C45   H38   S    
C88   H61   S    
C73   H63   S    
Cr3   O32   S    
C37   C56   S    
C37   H29   S    
C50   C52   S    
C28   C144  S    
Cr6   O49   S    
C41   C61   S    
C4    C12   S    
C21   C48   S    
C100  C109  A    
C29   H21   S    
C22   C130  S    
C7    C33   S    
C8    H1    S    
Cr3   O41   S    
C109  C118  A    
C109  H71   S    
C11   C20   S    
C140  O42   A    
C141  O43   A    
C70   C103  A    
C3    H13   S    
C137  O39   A    
C13   H47   S    
C17   C43   S    
C7    C62   S    
C18   C44   S    
C69   C106  A    
C94   C96   A    
Cr8   O9    S    
C22   C49   S    
C34   C54   S    
C82   C84   A    
C107  H73   S    
C64   C79   S    
C36   C44   S    
C37   C45   S    
Cr10  O24   S    
C16   C25   S    
C127  O29   A    
C46   C60   S    
C139  O41   A    
Cr2   O38   S    
Cr7   O51   S    
C130  O24   A    
C95   C97   A    
C72   H62   S    
C106  C115  A    
C8    C17   S    
Cr4   O43   S    
C41   H33   S    
C31   H24   S    
C2    C55   S    
C11   H34   S    
C80   C88   A    
C36   C55   S    
C1    O9    A    
C76   C96   A    
C13   C45   S    
C78   C94   A    
C138  O45   A    
Cr5   O3    S    
C116  C118  A    
Cr6   O47   S    
C20   C47   S    
C3    C11   S    
Cr7   O7    S    
Cr11  O25   S    
C67   C112  S    
C74   H64   S    
C33   H26   S    
C110  H72   S    
C51   C53   S    
C76   C85   A    
C1    O52   A    
C78   C87   A    
C40   C60   S    
C57   C66   S    
C49   H41   S    
Cr11  O16   S    
C64   C102  A    
C99   C108  A    
C4    H14   S    
C10   H23   S    
C6    C61   S    
C103  C111  A    
Cr5   O34   S    
C75   C84   A    
C40   C49   S    
C59   C136  S    
C3    C29   S    
Cr1   O52   S    
Cr12  O28   S    
Cr6   O5    S    
C2    C44   S    
C29   C38   S    
C1    C65   S    
C87   H60   S    
C77   C97   A    
C42   C62   S    
Cr10  O22   S    
C75   C91   A    
C13   C56   S    
C133  O1    A    
C79   O4    A    
C81   C83   A    
C5    H15   S    
C55   C143  S    
C144  H11   S    
C8    C134  S    
C32   H25   S    
C114  H75   S    
Cr10  O14   S    
C38   H30   S    
C135  O37   A    
Cr6   O45   S    
C62   C135  S    
Cr2   O29   S    
C101  O6    A    
C27   C143  S    
Cr1   O2    S    
C30   H22   S    
C23   C131  S    
C34   H27   S    
C103  C105  A    
C10   C144  S    
C12   C35   S    
C19   C28   S    
C21   C129  S    
C115  H76   S    
C43   H36   S    
C84   H57   S    
C132  O26   A    
C46   H50   S    
C63   C68   S    
C5    C60   S    
C117  H2    S    
Cr4   O33   S    
C9    H12   S    
C34   C43   S    
C57   O10   A    
C110  C119  A    
C19   C45   S    
C40   H32   S    
C80   C95   A    
C128  O21   A    
C14   C22   S    
Cr7   O48   S    
C18   C126  S    
C28   C37   S    
Cr4   O42   S    
C30   C39   S    
C71   C101  S    
C125  O18   A    
C107  C116  A    
C104  C113  A    
C9    C18   S    
C113  C121  A    
C128  O30   A    
C140  O50   A    
C25   C132  S    
C141  O51   A    
C25   C33   S    
C82   H54   S    
C69   C97   A    
C55   C141  S    
C52   H51   S    
C104  C106  A    
C118  H3    S    
C14   C46   S    
C46   C49   S    
C44   H37   S    
C70   C94   A    
C65   C98   A    
Cr12  O44   S    
C72   C92   A    
C26   H18   S    
C53   H52   S    
C31   C40   S    
C35   C59   S    
Cr5   O23   S    
C38   C58   S    
C42   H35   S    
Cr8   O10   S    
C72   C81   A    
Cr2   O46   S    
C130  O32   A    
C78   H69   S    
Cr9   O46   S    
Cr4   O35   S    
Cr10  O47   S    
C101  O15   A    
C35   C48   S    
C108  C117  A    
Cr2   O39   S    
C27   H19   S    
C28   H20   S    
C133  O36   A    
C108  H74   S    
C35   H49   S    
C98   C107  A    
C43   C134  S    
C91   C93   A    
Cr3   O47   S    
C77   H68   S    
C16   H78   S    
C10   C19   S    
C39   C59   S    
C125  O27   A    
C136  O23   A    
C126  O28   A    
C15   C52   S    
C5    C14   S    
C7    C16   S    
C54   C142  S    
C98   C100  A    
C102  C110  A    
C33   C42   S    
C41   C50   S    
C113  H79   S    
C115  C124  A    
C136  O38   A    
C23   C50   S    
C68   O3    A    
Cr8   O19   S    
C137  O34   A    
Cr12  O36   S    
C27   C36   S    
C21   C30   S    
C14   H56   S    
C23   C32   S    
C121  H6    S    
Cr9   O11   S    
C111  H77   S    
C15   H67   S    
C123  O17   A    
C56   C144  S    
C3    C58   S    
Cr6   O6    S    
C99   C102  A    
C67   C105  A    
C24   C58   S    
C8    C142  S    
C85   H58   S    
C39   C48   S    
C124  H8    S    
C58   C139  S    
Cr11  O17   S    
C132  O35   A    
C143  H10   S    
C134  H44   S    
C17   C26   S    
C74   C89   A    
C64   C93   A    
C20   C128  S    
Cr10  O15   S    
C11   C24   S    
Cr5   O4    S    
C139  O49   A    
Cr11  O48   S    
Cr2   O30   S    
C16   C53   S    
C121  C124  A    
Cr8   O44   S    
C6    C15   S    
C86   H59   S    
Cr11  O26   S    
C26   C34   S    
C112  O7    A    
C54   C140  S    
C119  H4    S    
Cr1   O1    S    
C63   C92   A    
Cr5   O46   S    
C126  O19   A    
C36   H28   S    
Cr3   O40   S    
C129  O31   A    
C60   C137  S    
C39   H31   S    
C15   C23   S    
Cr7   O8    S    
C48   H40   S    
C79   O13   A    
C116  H80   S    
C70   C90   S    
C123  O8    A    
C120  C122  A    
C112  O16   A    
C20   C29   S    
C85   C87   A    
C68   O11   A    
C22   C31   S    
C127  O20   A    
C105  C114  A    
Cr3   O31   S    
C129  O22   A    
C9    C143  S    
C76   H66   S    
Cr9   O13   S    
C12   C21   S    
C122  H7    S    
C138  O40   A    
C111  C120  A    
C66   C99   A    
C25   C51   S    
C63   C100  A    
Cr12  O27   S    
C56   C138  S    
C53   C62   S    
C131  O33   A    
C32   C41   S    
Cr12  O37   S    
C12   H45   S    
C89   C92   A    
C38   C47   S    
C51   H43   S    
C120  H5    S    
Cr9   O20   S    
C77   C86   A    
C67   C96   A    
Cr1   O44   S    
Cr7   O50   S    
C24   H48   S    
Cr4   O48   S    
Cr1   O12   S    
C24   C47   S    
C135  O12   A    
C18   C27   S    
C57   O2    A    
C10   C13   S    
C66   C91   A    
C42   C51   S    
C80   H70   S    
C142  H9    S    
Cr8   O18   S    
C2    C9    S    
C17   C125  S    
C7    H17   S    
C4    C59   S    
C19   C127  S    
C4    C30   S    
C114  C122  A    
C75   H65   S    
C90   O5    A    
C6    H16   S    
C131  O25   A    
C26   C142  S    
C83   H55   S    
C5    C31   S    
