data_mof_unit_44136.cif
_audit_creation_date              2012-12-10T17:27:00-0500
_audit_creation_method            fapswitch 2.2
_symmetry_space_group_name_H-M    P1
_symmetry_Int_Tables_number       1
_space_group_crystal_system       triclinic
_cell_length_a                    17.947099
_cell_length_b                    18.334425
_cell_length_c                    12.118339
_cell_angle_alpha                 90.110547
_cell_angle_beta                  79.871488
_cell_angle_gamma                 89.966402
_cell_volume                      3925.38466174

loop_
_atom_site_label
_atom_site_type_symbol
_atom_type_description
_atom_site_fract_x
_atom_site_fract_y
_atom_site_fract_z
_atom_type_partial_charge
C1    C     C_R   0.401740 0.102732 0.524929 0.862330
C2    C     C_R   0.536716 0.005935 0.014377 -0.210120
C3    C     C_R   0.962920 0.496764 0.985504 -0.211544
C4    C     C_R   0.036656 0.503447 0.014488 -0.215413
C5    C     C_R   0.590219 0.007163 0.815794 -0.037907
C6    C     C_R   0.409486 0.003265 0.184321 -0.023741
C7    C     C_R   0.090204 0.505867 0.816063 -0.056113
C8    C     C_R   0.909577 0.496476 0.184171 -0.043287
C9    C     C_R   0.600375 0.012533 0.927290 0.319427
C10   C     C_R   0.399001 0.007698 0.072929 0.319537
C11   C     C_R   0.100167 0.511615 0.927495 0.313217
C12   C     C_R   0.597594 0.896444 0.475190 0.923001
C13   C     C_R   0.899246 0.490517 0.072863 0.312958
C14   C     C_R   0.456756 0.997767 0.870862 0.495858
C15   C     C_R   0.543091 0.000953 0.129249 0.497938
C16   C     C_R   0.956722 0.497661 0.870120 0.488586
C17   C     C_R   0.043136 0.501351 0.129637 0.482964
C18   C     C_R   0.651030 0.164188 0.454527 -0.183925
C19   C     C_R   0.350284 0.835092 0.543552 -0.169360
C20   C     C_R   0.348290 0.163545 0.545731 -0.173774
C21   C     C_R   0.650749 0.834999 0.453252 -0.169944
C22   C     C_R   0.147929 0.667995 0.454017 -0.141292
C23   C     C_R   0.598050 0.102937 0.475210 0.856157
C24   C     C_R   0.851979 0.333350 0.544549 -0.172817
C25   C     C_R   0.854110 0.669797 0.544888 -0.132287
C26   C     C_R   0.146913 0.332242 0.456543 -0.169950
C27   C     C_R   0.219936 0.815392 0.620949 -0.202304
C28   C     C_R   0.765882 0.217119 0.349403 -0.114767
C29   C     C_R   0.779140 0.808508 0.365103 -0.214582
C30   C     C_R   0.235544 0.219511 0.652831 -0.109403
C31   C     C_R   0.737202 0.280465 0.649058 -0.247418
C32   C     C_R   0.265005 0.716779 0.348337 -0.116380
C33   C     C_R   0.259449 0.275590 0.350899 -0.241682
C34   C     C_R   0.402910 0.896377 0.524143 0.906365
C35   C     C_R   0.738878 0.723164 0.649041 -0.080329
C36   C     C_R   0.292112 0.836052 0.637210 -0.153376
C37   C     C_R   0.702460 0.172085 0.352824 -0.147930
C38   C     C_R   0.706887 0.834441 0.356562 -0.162247
C39   C     C_R   0.297163 0.171823 0.647843 -0.144429
C40   C     C_R   0.803417 0.321504 0.647833 -0.137349
C41   C     C_R   0.197586 0.677192 0.350469 -0.149929
C42   C     C_R   0.193844 0.317701 0.352447 -0.129975
C43   C     C_R   0.805266 0.682062 0.648504 -0.144754
C44   C     C_R   0.346259 0.788137 0.453707 -0.052223
C45   C     C_R   0.902841 0.604159 0.524718 0.900466
C46   C     C_R   0.654448 0.212079 0.543392 -0.043264
C47   C     C_R   0.655263 0.785993 0.539787 -0.065395
C48   C     C_R   0.344169 0.210766 0.456507 -0.042994
C49   C     C_R   0.847353 0.288069 0.453352 -0.053685
C50   C     C_R   0.151040 0.717829 0.541709 -0.084117
C51   C     C_R   0.152755 0.288916 0.549468 -0.047295
C52   C     C_R   0.851783 0.717953 0.455034 -0.075837
C53   C     C_R   0.276817 0.754150 0.446267 0.046342
C54   C     C_R   0.722468 0.249151 0.547667 0.049401
C55   C     C_R   0.726043 0.755457 0.547973 0.080311
C56   C     C_R   0.096849 0.396011 0.475598 0.875303
C57   C     C_R   0.275979 0.247430 0.452936 0.065057
C58   C     C_R   0.779643 0.250483 0.449613 0.047438
C59   C     C_R   0.214584 0.763770 0.535684 -0.016053
C60   C     C_R   0.220587 0.251446 0.552497 0.064903
C61   C     C_R   0.787317 0.762544 0.456477 0.003745
C62   C     C_2   0.341465 0.999219 0.272718 1.095459
C63   C     C_2   0.658333 0.008116 0.727178 1.097331
C64   C     C_2   0.841488 0.498899 0.272688 1.098081
C65   C     C_2   0.158283 0.508119 0.727551 1.092880
C66   C     C_2   0.582563 0.233179 0.617377 0.898520
C67   C     C_R   0.097522 0.603811 0.475269 0.894840
C68   C     C_2   0.418653 0.763449 0.384903 0.930783
C69   C     C_2   0.415166 0.231857 0.380534 0.892913
C70   C     C_2   0.583815 0.752573 0.600405 0.918914
C71   C     C_2   0.089076 0.719170 0.640850 0.987990
C72   C     C_2   0.918812 0.269574 0.376433 0.933195
C73   C     C_2   0.915104 0.716618 0.358017 0.973593
C74   C     C_2   0.082058 0.270300 0.628173 0.923768
C75   C     C_2   0.687154 0.141009 0.246490 1.040612
C76   C     C_2   0.311906 0.829220 0.751151 1.114110
C77   C     C_2   0.310295 0.136862 0.752376 1.034416
C78   C     C_R   0.902739 0.396418 0.524591 0.861621
C79   C     C_2   0.683891 0.838528 0.244707 1.074797
C80   C     C_2   0.175525 0.654451 0.242981 1.049666
C81   C     C_2   0.826410 0.341718 0.755785 1.026417
C82   C     C_2   0.827549 0.660909 0.756490 1.040759
C83   C     C_2   0.169647 0.336066 0.244712 1.020594
C84   C     C_2   0.688460 0.264719 0.759033 1.022673
C85   C     C_2   0.316881 0.727593 0.239834 0.970430
C86   C     C_2   0.304736 0.253752 0.240812 1.014996
C87   C     C_2   0.688337 0.741303 0.756865 0.950279
C88   C     C_2   0.153846 0.862572 0.669001 1.008398
C89   C     C_R   0.462925 0.003902 0.985722 -0.207473
C90   C     C_2   0.811942 0.234838 0.238385 0.961987
C91   C     C_2   0.846081 0.844834 0.297028 1.021444
C92   C     C_2   0.193128 0.241981 0.764391 0.949186
Cl1   Cl    Cl    0.627653 0.986758 0.176825 -0.484186
Cl2   Cl    Cl    0.372323 0.978418 0.824365 -0.483078
Cl3   Cl    Cl    0.128010 0.494686 0.179732 -0.464390
Cl4   Cl    Cl    0.872060 0.501228 0.818954 -0.462981
Cl5   Cl    Cl    0.692810 0.035581 0.949806 -0.370060
Cl6   Cl    Cl    0.305509 0.026873 0.050995 -0.370017
Cl7   Cl    Cl    0.192535 0.535277 0.949597 -0.375560
Cl8   Cl    Cl    0.805618 0.471156 0.051856 -0.373680
H1    H     H_    0.260846 0.935442 0.361106 0.342419
H2    H     H_    0.007529 0.200830 0.341080 0.393770
H3    H     H_    0.950425 0.691835 0.194913 0.364352
H4    H     H_    0.995900 0.199324 0.668504 0.391918
H5    H     H_    0.620119 0.142386 0.129114 0.378899
H6    H     H_    0.393041 0.809570 0.843662 0.358603
H7    H     H_    0.373040 0.134761 0.875152 0.380771
H8    H     H_    0.601913 0.820228 0.153173 0.366817
H9    H     H_    0.096020 0.656417 0.144155 0.352003
H10   H     H_    0.907434 0.338319 0.851899 0.366487
H11   H     H_    0.908472 0.661607 0.853031 0.349439
H12   H     H_    0.741171 0.067985 0.635746 0.346480
H13   H     H_    0.086603 0.333226 0.152230 0.368158
H14   H     H_    0.633833 0.361059 0.763111 0.347413
H15   H     H_    0.355509 0.795534 0.111928 0.366138
H16   H     H_    0.360696 0.349453 0.220440 0.350546
H17   H     H_    0.643976 0.819737 0.865850 0.356403
H18   H     H_    0.110725 0.864891 0.524868 0.324360
H19   H     H_    0.836156 0.307595 0.112835 0.377565
H20   H     H_    0.872222 0.897918 0.431226 0.328378
H21   H     H_    0.168309 0.322645 0.878347 0.371733
H22   H     H_    0.757813 0.442764 0.369145 0.352595
H23   H     H_    0.240789 0.569543 0.638369 0.352118
H24   H     H_    0.506195 0.213630 0.756888 0.395300
H25   H     H_    0.498139 0.684700 0.355893 0.383055
H26   H     H_    0.488863 0.212808 0.237976 0.396091
H27   H     H_    0.529470 0.660533 0.659678 0.390407
H28   H     H_    0.058530 0.713829 0.808973 0.366935
N1    N     N_R   0.480750 0.000000 0.209750 -0.176907
N2    N     N_R   0.519250 0.000000 0.790250 -0.182028
N3    N     N_R   0.980750 0.500000 0.209750 -0.188069
N4    N     N_R   0.019250 0.500000 0.790250 -0.185895
O1    O     O_R   0.418020 0.076820 0.422210 -0.576160
O2    O     O_R   0.569630 0.923170 0.391410 -0.561386
O3    O     O_R   0.569630 0.076830 0.391410 -0.571712
O4    O     O_R   0.430370 0.923170 0.608590 -0.535206
O5    O     O_R   0.930370 0.576830 0.608590 -0.560098
O6    O     O_R   0.069630 0.423170 0.391410 -0.561381
O7    O     O_R   0.069630 0.576830 0.391410 -0.565750
O8    O     O_R   0.930370 0.423170 0.608590 -0.561761
O9    O     O_2   0.309319 0.055123 0.309952 -0.553477
O10   O     O_R   0.308571 0.931446 0.302573 -0.740155
O11   O     O_2   0.688146 0.950829 0.691756 -0.575990
O12   O     O_R   0.581980 0.923180 0.577790 -0.577246
O13   O     O_R   0.693717 0.074343 0.694197 -0.723014
O14   O     O_2   0.811872 0.557557 0.301455 -0.568016
O15   O     O_R   0.805369 0.434086 0.311775 -0.726715
O16   O     O_2   0.188579 0.451330 0.690683 -0.555178
O17   O     O_R   0.193279 0.574968 0.696970 -0.740383
O18   O     O_2   0.550256 0.289010 0.597189 -0.546418
O19   O     O_R   0.552935 0.190880 0.710619 -0.719578
O20   O     O_2   0.451237 0.801196 0.308338 -0.546432
O21   O     O_R   0.448624 0.695880 0.407616 -0.743931
O22   O     O_2   0.447023 0.288400 0.398679 -0.539960
O23   O     O_R   0.581980 0.076820 0.577790 -0.586913
O24   O     O_R   0.444039 0.189086 0.287186 -0.725402
O25   O     O_2   0.526970 0.789319 0.628998 -0.566550
O26   O     O_R   0.580984 0.677345 0.619675 -0.737312
O27   O     O_2   0.023582 0.725701 0.627052 -0.549419
O28   O     O_R   0.105623 0.712723 0.748950 -0.728169
O29   O     O_2   0.941335 0.307315 0.294330 -0.543843
O30   O     O_R   0.959754 0.208120 0.398560 -0.726287
O31   O     O_2   0.978389 0.735211 0.370984 -0.547384
O32   O     O_R   0.902698 0.691549 0.253729 -0.728557
O33   O     O_2   0.058492 0.309594 0.708338 -0.547620
O34   O     O_R   0.418020 0.923180 0.422210 -0.597006
O35   O     O_R   0.043256 0.206568 0.610245 -0.721625
O36   O     O_2   0.734679 0.102619 0.189194 -0.473605
O37   O     O_R   0.621501 0.161326 0.207306 -0.760442
O38   O     O_2   0.262829 0.830790 0.834982 -0.496510
O39   O     O_R   0.386751 0.815192 0.762571 -0.720604
O40   O     O_2   0.263510 0.094324 0.801430 -0.464983
O41   O     O_R   0.373113 0.157210 0.798851 -0.765382
O42   O     O_2   0.728616 0.857215 0.161671 -0.496919
O43   O     O_R   0.610959 0.816769 0.233279 -0.737068
O44   O     O_2   0.221386 0.624570 0.170444 -0.489522
O45   O     O_R   0.918020 0.576820 0.422210 -0.613556
O46   O     O_R   0.103496 0.671744 0.221888 -0.731872
O47   O     O_2   0.780694 0.369196 0.831122 -0.508828
O48   O     O_R   0.899152 0.324553 0.773884 -0.735886
O49   O     O_2   0.781612 0.633008 0.830778 -0.494163
O50   O     O_R   0.900436 0.676499 0.775442 -0.725564
O51   O     O_2   0.215163 0.360515 0.166549 -0.528458
O52   O     O_R   0.095818 0.320671 0.230178 -0.736309
O53   O     O_2   0.696356 0.207518 0.806924 -0.458723
O54   O     O_R   0.635184 0.315553 0.810073 -0.678459
O55   O     O_2   0.358815 0.678133 0.199513 -0.515047
O56   O     O_R   0.081980 0.423180 0.577790 -0.573867
O57   O     O_R   0.317605 0.794450 0.184589 -0.709728
O58   O     O_2   0.295422 0.193574 0.202334 -0.462403
O59   O     O_R   0.357122 0.301510 0.179927 -0.682765
O60   O     O_2   0.651965 0.693397 0.812140 -0.503732
O61   O     O_R   0.680739 0.813790 0.792630 -0.733979
O62   O     O_2   0.148436 0.887920 0.763196 -0.424948
O63   O     O_R   0.098544 0.881507 0.605773 -0.710316
O64   O     O_2   0.858074 0.190780 0.191168 -0.511116
O65   O     O_R   0.801628 0.301647 0.188023 -0.689134
O66   O     O_2   0.863526 0.832652 0.196774 -0.442500
O67   O     O_R   0.081980 0.576820 0.577790 -0.624166
O68   O     O_R   0.891452 0.891531 0.347998 -0.697241
O69   O     O_2   0.152078 0.198501 0.822556 -0.513271
O70   O     O_R   0.200144 0.313343 0.801832 -0.699439
O71   O     O_R   0.918020 0.423180 0.422210 -0.584357
O72   O     O_R   0.430370 0.076830 0.608590 -0.579733
Zn1   Zn    Zn3+2 0.491750 0.000000 0.375560 1.081374
Zn2   Zn    Zn3+2 0.508250 0.000000 0.624440 1.082745
Zn3   Zn    Zn3+2 0.991750 0.500000 0.375560 1.072881
Zn4   Zn    Zn3+2 0.008250 0.500000 0.624440 1.076032

loop_
_geom_bond_atom_site_label_1
_geom_bond_atom_site_label_2
_ccdc_geom_bond_type
C85   O55   D    
H23   O17   S    
C8    C13   A    
C23   O23   A    
C17   N3    A    
H6    O39   S    
C84   O54   S    
C88   O63   S    
C51   C74   S    
C2    C15   A    
C48   C69   S    
C50   C71   S    
O23   Zn2   S    
N3    Zn3   S    
C35   C43   A    
C25   C43   A    
C41   C80   S    
C53   C59   A    
C48   C57   A    
C14   C89   A    
C90   O65   S    
H12   O13   S    
C7    C11   A    
C71   O28   S    
C82   O49   D    
C26   C42   A    
H3    O32   S    
H5    O37   S    
N2    Zn2   S    
C50   C59   A    
C39   C77   S    
C18   C37   A    
H21   O70   S    
C66   O18   D    
C73   O32   S    
C67   O67   A    
C52   C61   A    
C14   N2    A    
H13   O52   S    
C38   C79   S    
O1    Zn1   S    
H8    O43   S    
O8    Zn4   S    
N1    Zn1   S    
C31   C40   A    
C5    C63   S    
C11   Cl7   S    
C10   Cl6   S    
C36   C76   S    
H20   O68   S    
H9    O46   S    
C91   O66   D    
C35   C87   S    
C44   C53   A    
C3    C16   A    
C21   C38   A    
C56   O56   A    
C10   C89   A    
C49   C72   S    
C30   C60   A    
C29   C38   A    
C75   O37   S    
C9    Cl5   S    
C32   C41   A    
C75   O36   D    
C17   Cl3   S    
O34   Zn1   S    
C34   O4    A    
C67   O7    A    
C3    C13   A    
C45   O45   A    
O3    Zn1   S    
C37   C75   S    
C12   O2    A    
C79   O42   D    
C84   O53   D    
C62   O10   S    
C6    N1    A    
C1    O1    A    
C18   C46   A    
C74   O35   S    
H25   O21   S    
O12   Zn2   S    
C29   C61   A    
C86   O58   D    
C69   O24   S    
C16   Cl4   S    
C35   C55   A    
C18   C23   S    
C79   O43   S    
C78   O71   A    
C80   O44   D    
C30   C92   S    
C52   C73   S    
C77   O41   S    
C20   C39   A    
C57   C60   A    
H7    O41   S    
O71   Zn3   S    
C12   C21   S    
H11   O50   S    
C31   C84   S    
O45   Zn3   S    
C26   C56   S    
C65   O16   D    
C80   O46   S    
C2    C89   A    
C33   C86   S    
C47   C70   S    
C5    C9    A    
C68   O20   D    
C88   O62   D    
C7    C65   S    
C56   O6    A    
H1    O10   S    
C15   N1    A    
H10   O48   S    
H2    O30   S    
C46   C54   A    
C8    N3    A    
C45   O5    A    
C86   O59   S    
C83   O51   D    
C23   O3    A    
H22   O15   S    
C4    C11   A    
C76   O38   D    
H18   O63   S    
H27   O26   S    
C81   O47   D    
C7    N4    A    
C20   C48   A    
O7    Zn3   S    
C8    C64   S    
C91   O68   S    
C76   O39   S    
C24   C78   S    
C5    N2    A    
H24   O19   S    
O72   Zn2   S    
C68   O21   S    
C64   O15   S    
C44   C68   S    
C4    C17   A    
C62   O9    D    
C3    C4    A    
C25   C45   S    
C32   C53   A    
C29   C91   S    
C92   O70   S    
C19   C44   A    
H28   O28   S    
C87   O61   S    
C47   C55   A    
C54   C58   A    
C24   C49   A    
C33   C42   A    
O56   Zn4   S    
C1    C20   S    
C33   C57   A    
C64   O14   D    
H19   O65   S    
C40   C81   S    
H16   O59   S    
C42   C83   S    
C81   O48   S    
O2    Zn1   S    
C19   C34   S    
C78   O8    A    
C15   Cl1   S    
O6    Zn3   S    
C46   C66   S    
N4    Zn4   S    
H15   O57   S    
C28   C58   A    
C27   C36   A    
C71   O27   D    
C82   O50   S    
C69   O22   D    
H14   O54   S    
C22   C50   A    
C19   C36   A    
C70   O25   D    
C6    C62   S    
C13   Cl8   S    
C25   C52   A    
C66   O19   S    
C73   O31   D    
C27   C59   A    
C26   C51   A    
H4    O35   S    
O4    Zn2   S    
C2    C9    A    
C28   C37   A    
C77   O40   D    
C63   O11   D    
C32   C85   S    
C55   C61   A    
O67   Zn4   S    
C24   C40   A    
C63   O13   S    
C30   C39   A    
C72   O29   D    
C31   C54   A    
C65   O17   S    
C27   C88   S    
C16   N4    A    
C22   C67   S    
H17   O61   S    
C6    C10   A    
C49   C58   A    
C22   C41   A    
C12   O12   A    
C90   O64   D    
C43   C82   S    
C72   O30   S    
C28   C90   S    
C51   C60   A    
C70   O26   S    
C34   O34   A    
C1    O72   A    
C85   O57   S    
C83   O52   S    
C14   Cl2   S    
C74   O33   D    
C92   O69   D    
C87   O60   D    
C21   C47   A    
O5    Zn4   S    
H26   O24   S    
