data_mof_unit_38046.cif
_audit_creation_date              2012-12-10T16:58:24-0500
_audit_creation_method            fapswitch 2.2
_symmetry_space_group_name_H-M    P1
_symmetry_Int_Tables_number       1
_space_group_crystal_system       triclinic
_cell_length_a                    7.762927
_cell_length_b                    8.562088
_cell_length_c                    23.352331
_cell_angle_alpha                 91.069395
_cell_angle_beta                  85.656619
_cell_angle_gamma                 93.675205
_cell_volume                      1544.36689845

loop_
_atom_site_label
_atom_site_type_symbol
_atom_type_description
_atom_site_fract_x
_atom_site_fract_y
_atom_site_fract_z
_atom_type_partial_charge
C1    C     C_R   0.545823 0.794763 0.498518 0.970523
C2    C     C_R   0.454177 0.205237 0.501492 0.970118
C3    C     C_R   0.664679 0.522427 0.758267 0.164886
C4    C     C_R   0.622259 0.547114 0.232254 0.139283
C5    C     C_R   0.661127 0.526295 0.698592 -0.245837
C6    C     C_R   0.630324 0.552456 0.291805 -0.236997
C7    C     C_R   0.505044 0.495001 0.672776 -0.052793
C8    C     C_R   0.490536 0.491252 0.327670 -0.052748
C9    C     C_R   0.351639 0.458122 0.706590 -0.225458
C10   C     C_R   0.343296 0.421122 0.304382 -0.219911
C11   C     C_R   0.354273 0.451734 0.765663 -0.167158
C12   C     C_R   0.335566 0.411715 0.245402 -0.123675
C13   C     C_R   0.509074 0.484252 0.791565 0.316582
C14   C     C_R   0.472473 0.475944 0.209350 0.304289
C15   C     C_2   0.569999 0.958254 0.497667 -0.375862
C16   C     C_2   0.430002 0.041748 0.502361 -0.374590
C17   C     C_R   0.501812 0.499527 0.610622 0.877350
C18   C     C_R   0.497751 0.498828 0.389508 0.877587
C19   C     C_R   0.487070 0.335572 0.119161 0.488907
C20   C     C_R   0.462001 0.614940 0.882558 0.483852
C21   C     C_R   0.417637 0.603943 0.122535 0.481163
C22   C     C_R   0.531402 0.346387 0.878983 0.487527
C23   C     C_R   0.421336 0.607785 0.062767 -0.020291
C24   C     C_R   0.518457 0.339915 0.938851 -0.011307
C25   C     C_R   0.462914 0.472109 0.030958 -0.025660
C26   C     C_R   0.475314 0.475183 0.970702 -0.023018
C27   C     C_R   0.493486 0.333774 0.059267 -0.008359
C28   C     C_R   0.445744 0.613884 0.942444 -0.005218
C29   C     C_R   0.388041 0.744199 0.034236 -0.184556
C30   C     C_R   0.547249 0.202281 0.967433 -0.173559
C31   C     C_R   0.400340 0.747290 0.974518 -0.179631
C32   C     C_R   0.534602 0.199168 0.027186 -0.179054
H1    H     H_    0.353836 0.849094 0.057919 0.194591
H2    H     H_    0.580995 0.097218 0.943769 0.193975
H3    H     H_    0.779802 0.555658 0.672452 0.154354
H4    H     H_    0.743862 0.606530 0.310284 0.155921
H5    H     H_    0.230012 0.432826 0.687394 0.164034
H6    H     H_    0.235491 0.371565 0.331815 0.155674
N1    N     N_R   0.456754 0.471101 0.149001 -0.349504
N2    N     N_R   0.503962 0.482574 0.852500 -0.359162
N3    N     N_2   0.950330 0.457950 0.484560 -0.173361
N4    N     N_2   0.049670 0.542050 0.515440 -0.174911
O1    O     O_R   0.389250 0.738570 0.503790 -0.609922
O2    O     O_R   0.610750 0.261430 0.496210 -0.610431
O3    O     O_R   0.678390 0.711620 0.493890 -0.630565
O4    O     O_R   0.321610 0.288380 0.506110 -0.631539
O5    O     O_R   0.355400 0.513520 0.588790 -0.620652
O6    O     O_R   0.644600 0.486480 0.411210 -0.617054
O7    O     O_R   0.644550 0.486570 0.578900 -0.628510
O8    O     O_R   0.355450 0.513430 0.421100 -0.624845
O9    O     O_2   0.515064 0.204578 0.147456 -0.554511
O10   O     O_2   0.435993 0.746618 0.854397 -0.571948
O11   O     O_2   0.378498 0.732291 0.154132 -0.552616
O12   O     O_2   0.570744 0.218249 0.847319 -0.548018
Zn1   Zn    Zn3+2 0.306930 0.518000 0.506610 0.945323
Zn2   Zn    Zn3+2 0.693070 0.482000 0.493390 0.946400
H7    H     H_    0.374687 0.854340 0.953624 0.189752
H8    H     H_    0.559727 0.091992 0.048092 0.190559
C33   C     C_3   0.833856 0.561196 0.785022 -0.445602
C34   C     C_3   0.877553 0.738397 0.785417 -0.371746
C35   C     C_3   0.050249 0.778976 0.810905 -0.756295
H9    H     H_    0.047879 0.733827 0.855277 0.263713
H10   H     H_    0.156729 0.727747 0.783851 0.280105
H11   H     H_    0.075544 0.908062 0.812376 0.262792
H12   H     H_    0.884854 0.783403 0.740887 0.228167
H13   H     H_    0.774385 0.797901 0.811342 0.275224
H14   H     H_    0.828678 0.517789 0.829667 0.211545
H15   H     H_    0.938564 0.500764 0.760172 0.198520
C36   C     C_3   0.771211 0.619993 0.194061 -0.411102
C37   C     C_3   0.883947 0.495492 0.165185 -0.352323
C38   C     C_3   0.973005 0.552590 0.108243 -0.823217
H16   H     H_    0.875062 0.569580 0.076968 0.255758
H17   H     H_    0.048832 0.665086 0.114670 0.288505
H18   H     H_    0.061452 0.464090 0.090271 0.248192
H19   H     H_    0.806699 0.385194 0.156869 0.254580
H20   H     H_    0.983421 0.467642 0.194444 0.221900
H21   H     H_    0.720089 0.694219 0.161647 0.237837
H22   H     H_    0.854892 0.700857 0.219426 0.204750
H23   H     H_    0.235420 0.422993 0.791707 0.141714
H24   H     H_    0.222804 0.355044 0.227517 0.139177
H25   H     H_    0.702202 0.009353 0.493185 0.180263
H26   H     H_    0.297798 0.990649 0.506845 0.180202
H27   H     H_    0.013887 0.382491 0.456743 0.189630
H28   H     H_    0.986114 0.617485 0.543267 0.188293

loop_
_geom_bond_atom_site_label_1
_geom_bond_atom_site_label_2
_ccdc_geom_bond_type
C21   O11   S    
N3    N4    D    
C36   H21   S    
C32   H8    S    
C22   O12   S    
C2    O4    A    
C19   N1    A    
C24   C26   A    
N4    Zn1   S    
C15   C16   D    
N3    H27   S    
C29   H1    S    
C7    C9    A    
C35   H10   S    
C13   N2    S    
C33   H14   S    
C14   N1    S    
C1    O1    A    
O3    Zn2   S    
C2    O2    A    
C7    C17   S    
O4    Zn1   S    
C37   C38   S    
C1    C15   S    
C19   C27   A    
C3    C13   A    
C34   H13   S    
C33   C34   S    
C36   H22   S    
C35   H9    S    
C10   C12   A    
C9    H5    S    
C4    C36   S    
C30   H2    S    
N4    H28   S    
C15   H25   S    
C17   O7    A    
C5    C7    A    
C6    C8    A    
C20   C28   A    
C25   C26   A    
C8    C18   S    
C34   C35   S    
C35   H11   S    
N3    Zn2   S    
C33   H15   S    
O2    Zn2   S    
C21   N1    A    
C22   N2    A    
C16   H26   S    
C9    C11   A    
C11   H23   S    
O1    Zn1   S    
C12   C14   A    
C34   H12   S    
C21   C23   A    
C37   H20   S    
C22   C24   A    
C4    C6    A    
C23   C29   A    
C2    C16   S    
C18   O8    A    
O5    Zn1   S    
O6    Zn2   S    
C27   C32   A    
C12   H24   S    
C28   C31   A    
C17   O5    A    
C3    C5    A    
C18   O6    A    
C38   H18   S    
C25   C27   A    
O7    Zn2   S    
C20   O10   S    
C26   C28   A    
O8    Zn1   S    
C10   H6    S    
C31   H7    S    
C38   H16   S    
C29   C31   A    
C30   C32   A    
C11   C13   A    
C1    O3    A    
C20   N2    A    
C5    H3    S    
C6    H4    S    
C23   C25   A    
C4    C14   A    
C36   C37   S    
C24   C30   A    
C19   O9    S    
C8    C10   A    
C38   H17   S    
C37   H19   S    
C3    C33   S    
