data_mof_unit_10096.cif
_audit_creation_date              2012-12-11T16:53:29-0500
_audit_creation_method            fapswitch 2.2
_symmetry_space_group_name_H-M    P1
_symmetry_Int_Tables_number       1
_space_group_crystal_system       triclinic
_cell_length_a                    14.893208
_cell_length_b                    14.975294
_cell_length_c                    16.833807
_cell_angle_alpha                 108.645647
_cell_angle_beta                  105.866813
_cell_angle_gamma                 108.592581
_cell_volume                      3063.12687003

loop_
_atom_site_label
_atom_site_type_symbol
_atom_type_description
_atom_site_fract_x
_atom_site_fract_y
_atom_site_fract_z
_atom_type_partial_charge
C1    C     C_R   0.082021 0.277175 0.069517 0.404682
C2    C     C_R   0.023745 0.570370 0.738003 0.106828
C3    C     C_R   0.773228 0.199782 0.727948 0.067939
C4    C     C_R   0.282713 0.456594 0.956314 0.084182
C5    C     C_R   0.272373 0.693998 0.255518 -0.011921
C6    C     C_R   0.705875 0.503111 0.919690 -0.143788
C7    C     C_R   0.887957 0.468685 0.185214 -0.216254
C8    C     C_R   0.081440 0.802233 0.009529 -0.132279
C9    C     C_R   0.910335 0.716919 0.933004 -0.107597
C10   C     C_R   0.059784 0.550189 0.264934 0.526904
C11   C     C_R   0.271003 0.791224 0.180662 0.545206
C12   C     C_R   0.934319 0.516940 0.745563 -0.133030
C13   C     C_R   0.697506 0.407809 0.996815 -0.062161
C14   C     C_R   0.322763 0.795811 0.264843 -0.191236
C15   C     C_R   0.639776 0.441718 0.944728 0.085329
C16   C     C_R   0.966199 0.544449 0.271197 -0.059392
C17   C     C_R   0.994834 0.813408 0.966325 0.044257
C18   C     C_R   0.392658 0.461963 0.868706 0.168196
C19   C     C_R   0.343784 0.414781 0.914786 0.036867
C20   C     C_R   0.371872 0.340903 0.935597 -0.193463
C21   C     C_R   0.464506 0.338160 0.934164 -0.189557
C22   C     C_R   0.527560 0.408222 0.910614 0.028428
C23   C     C_R   0.781056 0.203800 0.813132 -0.089450
C24   C     C_R   0.483210 0.458152 0.866126 0.160022
C25   C     C_3   0.529287 0.568093 0.876616 -0.507977
C26   C     C_3   0.431468 0.572964 0.881121 -0.534559
C27   C     C_R   0.951646 0.596471 0.355075 0.142698
C28   C     C_R   0.026251 0.604152 0.664669 -0.062051
C29   C     C_R   0.122750 0.706450 0.602873 -0.214773
C30   C     C_R   0.118490 0.681917 0.675582 -0.223526
C31   C     C_R   0.936039 0.555835 0.580935 0.468160
C32   C     C_R   0.937636 0.590529 0.513486 0.063802
C33   C     C_R   0.033279 0.657730 0.520241 0.089751
C34   C     C_R   0.252725 0.530453 0.943153 -0.146940
C35   C     C_R   0.039544 0.662227 0.440063 -0.234745
C36   C     C_R   0.852337 0.560962 0.356849 -0.045321
C37   C     C_R   0.846150 0.551979 0.435156 -0.313628
C38   C     C_R   0.736476 0.105480 0.641570 0.140574
C39   C     C_R   0.422953 0.881397 0.340942 0.157101
C40   C     C_R   0.572869 0.051235 0.408155 -0.257515
C41   C     C_R   0.477040 0.975052 0.337269 -0.178246
C42   C     C_R   0.464830 0.870222 0.420529 -0.266671
C43   C     C_R   0.563471 0.941945 0.488294 0.188008
C44   C     C_R   0.616465 0.034951 0.483678 0.216941
C45   C     C_R   0.791124 0.300009 0.736394 -0.141228
C46   C     C_R   0.705534 0.115170 0.559577 -0.310922
C47   C     C_R   0.700253 0.003805 0.637418 -0.031087
C48   C     C_R   0.609034 0.923442 0.561998 -0.336904
C49   C     C_R   0.038116 0.078200 0.121764 -0.073434
C50   C     C_R   0.978048 0.082952 0.043914 0.101610
C51   C     C_R   0.885775 0.989372 0.978904 -0.080499
C52   C     C_R   0.843303 0.908294 0.002433 -0.292780
C53   C     C_R   0.894736 0.915987 0.089200 0.224655
C54   C     C_R   0.994633 0.998001 0.144330 0.018141
C55   C     C_3   0.052261 0.063527 0.245998 -0.368194
C56   C     C_R   0.250784 0.436274 0.021298 -0.161083
C57   C     C_3   0.102252 0.153328 0.223464 0.383611
C58   C     C_R   0.106426 0.599129 0.819344 -0.160807
C59   C     C_R   0.911862 0.199894 0.994229 0.449862
C60   C     C_R   0.993415 0.181602 0.033724 -0.147359
H1    H     H_    0.684397 0.527258 0.866298 0.098000
H2    H     H_    0.805247 0.436049 0.164576 0.156301
H3    H     H_    0.160204 0.860312 0.035297 0.136182
H4    H     H_    0.830928 0.693767 0.888451 0.092669
H5    H     H_    0.666925 0.346753 0.016535 0.062089
H6    H     H_    0.331210 0.295720 0.964431 0.139401
H7    H     H_    0.491795 0.291282 0.962181 0.126582
H8    H     H_    0.599407 0.623895 0.942566 0.210010
H9    H     H_    0.856051 0.502095 0.706177 0.150983
H10   H     H_    0.537768 0.570361 0.813596 0.190650
H11   H     H_    0.446917 0.629300 0.950593 0.217932
H12   H     H_    0.384425 0.580341 0.821849 0.195864
H13   H     H_    0.115055 0.703817 0.442180 0.177462
H14   H     H_    0.196665 0.759929 0.609851 0.145827
H15   H     H_    0.770522 0.512874 0.434285 0.167563
H16   H     H_    0.188907 0.720357 0.738389 0.141945
H17   H     H_    0.739769 0.189424 0.558140 0.123316
H18   H     H_    0.765322 0.139432 0.830632 0.164657
H19   H     H_    0.610934 0.123977 0.405112 0.145544
H20   H     H_    0.573436 0.847281 0.560856 0.147801
H21   H     H_    0.446147 0.993374 0.282494 0.197547
H22   H     H_    0.419864 0.809289 0.433605 0.194894
H23   H     H_    0.840370 0.983254 0.913329 0.176487
H24   H     H_    0.767795 0.842501 0.955310 0.135927
H25   H     H_    0.106821 0.035900 0.277780 0.145572
H26   H     H_    0.080024 0.218392 0.244832 0.035221
H27   H     H_    0.261321 0.562440 0.895474 0.111256
H28   H     H_    0.789131 0.326524 0.683923 0.105886
H29   H     H_    0.262591 0.382126 0.045958 0.164133
H30   H     H_    0.186071 0.656212 0.844043 0.081263
N1    N     N_R   0.055640 0.348550 0.045600 -0.120897
N2    N     N_R   0.798340 0.505430 0.954400 -0.036621
N3    N     N_R   0.931580 0.439470 0.128350 -0.096753
N4    N     N_R   0.051950 0.704140 0.002340 -0.041182
N5    N     N_R   0.944360 0.651450 0.954400 -0.039863
N6    N     N_R   0.039170 0.492150 0.176290 -0.116005
N7    N     N_R   0.188710 0.696600 0.128350 -0.112902
N8    N     N_R   0.794820 0.447010 0.002340 -0.037848
N9    N     N_R   0.960830 0.507850 0.823710 -0.044798
N10   N     N_R   0.811290 0.303400 0.871650 -0.050109
N11   N     N_R   0.205180 0.552990 0.997660 -0.055017
N12   N     N_R   0.814810 0.361830 0.823710 -0.044227
N13   N     N_R   0.201660 0.494570 0.045600 -0.055797
N14   N     N_R   0.068420 0.560530 0.871650 -0.038001
N15   N     N_R   0.948050 0.295860 0.997660 -0.118055
N16   N     N_R   0.185190 0.638170 0.176290 -0.109326
Ni1   Ni    Ni4+2 0.119330 0.493420 0.109950 0.194655
Ni2   Ni    Ni4+2 0.880670 0.506580 0.890050 0.213947
Ni3   Ni    Ni4+2 0.872590 0.372590 0.000000 0.204392
Ni4   Ni    Ni4+2 0.127410 0.627410 0.000000 0.201732
O1    O     O_3   0.181338 0.286975 0.108246 -0.680804
C61   C     C_3   0.241248 0.374231 0.195565 0.204592
H31   H     H_    0.214985 0.355074 0.245858 0.133558
H32   H     H_    0.232222 0.444481 0.195342 0.075449
C62   C     C_3   0.356584 0.396710 0.222985 -0.253680
H33   H     H_    0.361345 0.322067 0.191163 0.216957
H34   H     H_    0.393454 0.449227 0.195407 0.163721
C63   C     C_3   0.420445 0.446219 0.327192 -0.945192
H35   H     H_    0.439692 0.530526 0.360034 0.299460
H36   H     H_    0.495371 0.440825 0.340785 0.244876
H37   H     H_    0.378242 0.404974 0.359705 0.275783
O2    O     O_3   0.147351 0.574122 0.338714 -0.649605
C64   C     C_3   0.140991 0.480879 0.347017 0.245592
H38   H     H_    0.219631 0.484238 0.365146 0.173426
H39   H     H_    0.087303 0.406357 0.282297 0.020190
C65   C     C_3   0.110594 0.475168 0.425632 -0.318966
H40   H     H_    0.163050 0.549938 0.489465 0.226472
H41   H     H_    0.028690 0.462787 0.407310 0.196764
C66   C     C_3   0.119745 0.384472 0.444067 -1.034002
H42   H     H_    0.063115 0.308692 0.382935 0.257797
H43   H     H_    0.102260 0.385212 0.504182 0.269899
H44   H     H_    0.199873 0.391664 0.459431 0.278368
O3    O     O_3   0.304974 0.866467 0.150947 -0.703237
C67   C     C_3   0.328259 0.827885 0.074515 0.102265
H45   H     H_    0.323415 0.877646 0.038282 0.136661
H46   H     H_    0.270643 0.746793 0.022546 0.100924
C68   C     C_3   0.438838 0.836412 0.104798 -0.284913
H47   H     H_    0.493123 0.909345 0.169587 0.223058
H48   H     H_    0.438052 0.767718 0.117351 0.185654
C69   C     C_3   0.479858 0.840189 0.031507 -1.004546
H49   H     H_    0.421507 0.776079 0.962373 0.254553
H50   H     H_    0.553422 0.832057 0.048755 0.283630
H51   H     H_    0.496104 0.916682 0.028918 0.270523
C70   C     C_2   0.755457 0.537012 0.281889 0.485372
H52   H     H_    0.680196 0.485773 0.274787 0.000780
O4    O     O_2   0.758400 0.578796 0.230481 -0.568638
O5    O     O_3   0.851466 0.463815 0.557641 -0.689259
C71   C     C_3   0.872840 0.376787 0.523215 0.201401
H53   H     H_    0.860882 0.332441 0.563952 0.114795
H54   H     H_    0.954673 0.398248 0.530349 0.087338
C72   C     C_3   0.798170 0.305135 0.421565 -0.362258
H55   H     H_    0.716570 0.284507 0.413320 0.208132
H56   H     H_    0.814140 0.347218 0.379656 0.203730
C73   C     C_3   0.811014 0.204756 0.385285 -0.918897
H57   H     H_    0.890263 0.224385 0.387312 0.277044
H58   H     H_    0.752660 0.152207 0.312857 0.285087
H59   H     H_    0.799205 0.161978 0.427426 0.264890
C74   C     C_2   0.755806 0.978170 0.707738 0.473089
H60   H     H_    0.715242 0.907283 0.712915 0.007678
O6    O     O_2   0.848612 0.033259 0.757682 -0.589156
C75   C     C_2   0.986688 0.084026 0.297362 0.503882
H61   H     H_    0.024958 0.133038 0.371366 0.024922
O7    O     O_2   0.891935 0.046643 0.257980 -0.578667
O8    O     O_3   0.212935 0.191769 0.258896 -0.659019
C76   C     C_3   0.248280 0.129917 0.204253 0.257041
H62   H     H_    0.239997 0.142971 0.141762 0.146989
H63   H     H_    0.203672 0.044392 0.182258 0.089093
C77   C     C_3   0.362969 0.162246 0.261133 -0.280790
H64   H     H_    0.404781 0.248072 0.306925 0.225859
H65   H     H_    0.367294 0.121582 0.305916 0.196143
C78   C     C_3   0.418834 0.135550 0.199971 -1.048015
H66   H     H_    0.376405 0.051139 0.150125 0.296278
H67   H     H_    0.499157 0.153043 0.243395 0.271796
H68   H     H_    0.423935 0.183313 0.161242 0.265432
O9    O     O_3   0.810212 0.141640 0.978798 -0.687936
C79   C     C_3   0.787582 0.196482 0.049877 0.185267
H69   H     H_    0.764376 0.253829 0.033272 0.111720
H70   H     H_    0.855218 0.238031 0.118897 0.091280
C80   C     C_3   0.696512 0.118741 0.055319 -0.239992
H71   H     H_    0.628519 0.074165 0.986962 0.197101
H72   H     H_    0.719525 0.061863 0.073778 0.226573
C81   C     C_3   0.665000 0.175786 0.127585 -1.058755
H73   H     H_    0.732583 0.223187 0.196093 0.277491
H74   H     H_    0.601810 0.117397 0.133040 0.284264
H75   H     H_    0.636200 0.228749 0.107644 0.260327
C82   C     C_2   0.333455 0.641657 0.285120 0.491942
H76   H     H_    0.375671 0.616814 0.246426 -0.007298
O10   O     O_2   0.339581 0.628158 0.353539 -0.608949

loop_
_geom_bond_atom_site_label_1
_geom_bond_atom_site_label_2
_ccdc_geom_bond_type
C59   C60   A    
C78   H66   S    
C76   H62   S    
C9    H4    S    
C26   H12   S    
N1    N15   A    
C3    C23   A    
O5    C71   S    
C18   C26   S    
C71   C72   S    
C12   H9    S    
C2    C12   A    
C67   C68   S    
C61   H32   S    
C75   H61   S    
N2    N8    A    
C64   H38   S    
C39   C41   A    
C13   H5    S    
C53   C54   A    
N9    Ni2   S    
C68   H48   S    
C59   N15   A    
C18   C24   A    
C6    H1    S    
C20   H6    S    
O8    C76   S    
C15   C22   S    
C69   H50   S    
C59   O9    S    
C11   O3    S    
C11   C14   A    
C77   H65   S    
C64   H39   S    
N16   Ni1   S    
C49   C54   A    
C29   C33   A    
C49   C57   S    
C57   H26   S    
C18   C19   A    
C72   C73   S    
C13   N8    A    
C52   H24   S    
C81   H73   S    
C37   H15   S    
C12   N9    A    
C14   C39   S    
C63   H35   S    
C4    C19   S    
N2    Ni2   S    
C79   C80   S    
C35   H13   S    
C31   C32   A    
C3    C38   S    
C62   H34   S    
C42   H22   S    
C72   H55   S    
C69   H51   S    
N12   Ni2   S    
C43   C48   A    
C9    N5    A    
C73   H58   S    
C66   H44   S    
C31   O5    S    
C16   C27   S    
C79   H70   S    
C23   N10   A    
C6    C15   A    
N10   Ni3   S    
C1    N1    A    
N8    Ni3   S    
C21   C22   A    
C4    C56   A    
C74   O6    D    
C26   H11   S    
C76   H63   S    
C25   H8    S    
C5    C82   S    
C61   H31   S    
C75   O7    D    
C44   C46   A    
C39   C42   A    
C81   H74   S    
C5    N16   A    
C77   C78   S    
C69   H49   S    
C7    N3    A    
C78   H68   S    
C4    C34   A    
C34   N11   A    
C51   C52   A    
C77   H64   S    
C45   H28   S    
C8    N4    A    
C24   C25   S    
C55   C75   S    
C73   H59   S    
C70   O4    D    
C45   N12   A    
C1    C60   A    
C64   C65   S    
C67   H46   S    
C29   H14   S    
C65   C66   S    
C27   C35   A    
N11   Ni4   S    
N4    Ni4   S    
C63   H37   S    
C55   H25   S    
C43   C44   A    
C7    H2    S    
C29   C30   A    
N1    Ni1   S    
C30   H16   S    
C47   C48   A    
C13   C15   A    
C10   N6    A    
C62   C63   S    
C41   H21   S    
N10   N12   A    
C50   C51   A    
C73   H57   S    
C40   H19   S    
C32   C37   A    
C71   H53   S    
C58   H30   S    
C5    C14   A    
C82   H76   S    
N7    N16   A    
C9    C17   A    
C40   C41   A    
N6    Ni1   S    
N3    N6    A    
C76   C77   S    
C55   C57   S    
O3    C67   S    
C22   C24   A    
C58   N14   A    
C42   C43   A    
C82   O10   D    
C51   H23   S    
C52   C53   A    
C66   H42   S    
N11   N13   A    
N15   Ni3   S    
C54   C55   S    
C56   H29   S    
C65   H41   S    
O1    C61   S    
C28   C31   A    
C7    C16   A    
C56   N13   A    
C71   H54   S    
C70   H52   S    
C10   O2    S    
C46   H17   S    
N13   Ni1   S    
C2    C58   A    
C67   H45   S    
C27   C36   A    
C78   H67   S    
C68   H47   S    
C8    C17   A    
C38   C47   A    
C11   N7    A    
C50   C60   S    
C32   C33   A    
C80   C81   S    
C19   C20   A    
C79   H69   S    
C25   C26   S    
O9    C79   S    
C10   C16   A    
C1    O1    S    
N14   Ni4   S    
N7    Ni4   S    
C48   H20   S    
C74   H60   S    
C57   O8    S    
C65   H40   S    
C6    N2    A    
C68   C69   S    
C28   C30   A    
C33   C35   A    
C3    C45   A    
N9    N14   A    
C34   H27   S    
C72   H56   S    
C23   H18   S    
C36   C70   S    
N4    N5    A    
C63   H36   S    
C38   C46   A    
N5    Ni2   S    
C8    H3    S    
C80   H71   S    
C40   C44   A    
C20   C21   A    
C36   C37   A    
C49   C50   A    
C2    C28   S    
C25   H10   S    
C66   H43   S    
O2    C64   S    
C81   H75   S    
C61   C62   S    
C21   H7    S    
C62   H33   S    
N3    Ni3   S    
C80   H72   S    
C47   C74   S    
