data_mof_unit_13592.cif
_audit_creation_date              2012-12-11T14:54:19-0500
_audit_creation_method            fapswitch 2.2
_symmetry_space_group_name_H-M    P1
_symmetry_Int_Tables_number       1
_space_group_crystal_system       triclinic
_cell_length_a                    18.995228
_cell_length_b                    10.897389
_cell_length_c                    18.846045
_cell_angle_alpha                 90.116186
_cell_angle_beta                  90.216069
_cell_angle_gamma                 89.899034
_cell_volume                      3901.05918282

loop_
_atom_site_label
_atom_site_type_symbol
_atom_type_description
_atom_site_fract_x
_atom_site_fract_y
_atom_site_fract_z
_atom_type_partial_charge
C1    C     C_R   0.730450 0.376725 0.645883 0.559609
C2    C     C_R   0.271512 0.373673 0.355716 0.566507
C3    C     C_R   0.230450 0.876725 0.645883 0.559609
C4    C     C_R   0.771512 0.873672 0.355716 0.566507
C5    C     C_3   0.530248 0.353571 0.448091 -0.265058
C6    C     C_3   0.551844 0.356492 0.525654 -0.258050
C7    C     C_3   0.030248 0.853571 0.448091 -0.265058
C8    C     C_3   0.051844 0.856492 0.525654 -0.258050
C9    C     C_R   0.688775 0.892592 0.536113 -0.132220
C10   C     C_R   0.297031 0.856874 0.459868 -0.147650
C11   C     C_R   0.188775 0.392592 0.536113 -0.132220
C12   C     C_R   0.797031 0.356874 0.459868 -0.147651
C13   C     C_R   0.693650 0.882721 0.462503 0.071682
C14   C     C_R   0.297451 0.843309 0.533346 0.082249
C15   C     C_R   0.193650 0.382721 0.462503 0.071683
C16   C     C_R   0.797451 0.343310 0.533346 0.082249
C17   C     C_R   0.759615 0.898513 0.430444 0.071949
C18   C     C_R   0.250909 0.915142 0.575034 0.062312
C19   C     C_R   0.259615 0.398513 0.430444 0.071950
C20   C     C_R   0.750909 0.415142 0.575034 0.062312
C21   C     C_R   0.819608 0.920031 0.472544 -0.172121
C22   C     C_R   0.211071 0.007897 0.543359 -0.175250
C23   C     C_R   0.319608 0.420031 0.472544 -0.172121
C24   C     C_R   0.711071 0.507897 0.543359 -0.175250
C25   C     C_R   0.814853 0.925358 0.545178 -0.158244
C26   C     C_R   0.211324 0.020858 0.470880 -0.142908
C27   C     C_R   0.314853 0.425359 0.545178 -0.158243
C28   C     C_R   0.711324 0.520858 0.470880 -0.142908
C29   C     C_R   0.749166 0.918057 0.577094 0.009900
C30   C     C_R   0.253126 0.943819 0.428544 0.008793
C31   C     C_R   0.249166 0.418057 0.577094 0.009900
C32   C     C_R   0.753125 0.443819 0.428544 0.008793
C33   C     C_R   0.526350 0.050596 0.972535 0.142963
C34   C     C_R   0.528095 0.058851 0.045931 0.100165
C35   C     C_R   0.026341 0.550593 0.972533 0.142967
C36   C     C_R   0.028090 0.558847 0.045928 0.100169
C37   C     C_R   0.503340 0.166641 0.078688 0.012758
C38   C     C_R   0.516771 0.158448 0.931097 0.036211
C39   C     C_R   0.003339 0.666639 0.078688 0.012757
C40   C     C_R   0.016767 0.658448 0.931096 0.036211
C41   C     C_R   0.493262 0.273386 0.038063 -0.170697
C42   C     C_R   0.502422 0.270112 0.964887 -0.186752
C43   C     C_R   0.993264 0.773387 0.038064 -0.170696
C44   C     C_R   0.002424 0.770113 0.964887 -0.186749
C45   C     C_R   0.531296 0.155174 0.646629 0.544372
C46   C     C_R   0.436094 0.150952 0.360910 0.559320
C47   C     C_R   0.031296 0.655174 0.646629 0.544372
C48   C     C_R   0.936094 0.650952 0.360910 0.559321
C49   C     C_R   0.779873 0.033188 0.974164 -0.122501
C50   C     C_R   0.184115 0.934696 0.042629 -0.141985
C51   C     C_R   0.279882 0.533183 0.974163 -0.122505
C52   C     C_R   0.684115 0.434693 0.042629 -0.141989
C53   C     C_R   0.781718 0.016527 0.046578 -0.136128
C54   C     C_R   0.178784 0.925693 0.970133 -0.129450
C55   C     C_R   0.281726 0.516523 0.046577 -0.136129
C56   C     C_R   0.678784 0.425689 0.970133 -0.129452
C57   C     C_R   0.751794 0.911501 0.075624 0.038628
C58   C     C_R   0.238532 0.899130 0.928984 0.033204
C59   C     C_R   0.251792 0.411506 0.075625 0.038622
C60   C     C_R   0.738532 0.399131 0.928984 0.033200
C61   C     C_R   0.717235 0.825516 0.031853 -0.115698
C62   C     C_R   0.303476 0.877541 0.961661 -0.153642
C63   C     C_R   0.217223 0.325530 0.031856 -0.115693
C64   C     C_R   0.803477 0.377547 0.961661 -0.153646
C65   C     C_R   0.715577 0.842294 0.958895 -0.150628
C66   C     C_R   0.309166 0.888918 0.034821 -0.141842
C67   C     C_R   0.215566 0.342306 0.958898 -0.150615
C68   C     C_R   0.809167 0.388923 0.034821 -0.141845
C69   C     C_R   0.747638 0.945516 0.929960 0.037885
C70   C     C_R   0.249693 0.921470 0.075126 0.027578
C71   C     C_R   0.247637 0.445517 0.929961 0.037885
C72   C     C_R   0.749694 0.421471 0.075125 0.027574
C73   C     C_R   0.741215 0.967785 0.647855 0.547085
C74   C     C_R   0.259523 0.973429 0.354117 0.539511
C75   C     C_R   0.241215 0.467785 0.647855 0.547086
C76   C     C_R   0.759523 0.473429 0.354117 0.539511
C77   C     C_R   0.727749 0.374332 0.854338 0.544659
C78   C     C_R   0.270258 0.377348 0.147326 0.546974
C79   C     C_R   0.227749 0.874332 0.854338 0.544660
C80   C     C_R   0.770259 0.877347 0.147326 0.546974
C81   C     C_R   0.535210 0.155831 0.855652 0.560695
C82   C     C_R   0.469983 0.157396 0.148020 0.555450
C83   C     C_R   0.035208 0.655831 0.855651 0.560694
C84   C     C_R   0.969983 0.657396 0.148020 0.555449
C85   C     C_R   0.740690 0.974625 0.855564 0.543013
C86   C     C_R   0.258753 0.969896 0.146006 0.548190
C87   C     C_R   0.240689 0.474627 0.855564 0.543015
C88   C     C_R   0.758753 0.469896 0.146006 0.548188
C89   C     C_R   0.451018 0.158242 0.436849 0.016545
C90   C     C_R   0.490427 0.164241 0.581092 0.016830
C91   C     C_R   0.951018 0.658242 0.436849 0.016545
C92   C     C_R   0.990427 0.664241 0.581092 0.016830
C93   C     C_R   0.472859 0.267546 0.468979 0.007060
C94   C     C_R   0.492345 0.270572 0.539763 0.005267
C95   C     C_R   0.972859 0.767546 0.468979 0.007060
C96   C     C_R   0.992345 0.770572 0.539763 0.005267
C97   C     C_R   0.458482 0.058867 0.552064 -0.152842
C98   C     C_R   0.439683 0.055682 0.480251 -0.160117
C99   C     C_R   0.958482 0.558867 0.552064 -0.152842
C100  C     C_R   0.939683 0.555682 0.480251 -0.160116
Cr1   Cr    Cr6+3 0.771950 0.169480 0.750100 1.036938
Cr2   Cr    Cr6+3 0.228050 0.169480 0.249900 1.028440
Cr3   Cr    Cr6+3 0.271950 0.669480 0.750100 1.036937
Cr4   Cr    Cr6+3 0.728050 0.669480 0.249900 1.028441
Cr5   Cr    Cr6+3 0.614930 0.323340 0.749170 1.012324
Cr6   Cr    Cr6+3 0.385070 0.323340 0.250830 1.009936
Cr7   Cr    Cr6+3 0.114930 0.823340 0.749170 1.012324
Cr8   Cr    Cr6+3 0.885070 0.823340 0.250830 1.009937
Cr9   Cr    Cr6+3 0.616590 0.010620 0.750610 1.030422
Cr10  Cr    Cr6+3 0.383410 0.010620 0.249390 1.006165
Cr11  Cr    Cr6+3 0.116590 0.510620 0.750610 1.030421
Cr12  Cr    Cr6+3 0.883410 0.510620 0.249390 1.006164
H1    H     H_    0.454099 0.975483 0.582845 0.141305
H2    H     H_    0.421038 0.970639 0.457574 0.133008
H3    H     H_    0.954099 0.475483 0.582845 0.141307
H4    H     H_    0.921038 0.470639 0.457574 0.133008
H5    H     H_    0.803272 0.115650 0.952780 0.140700
H6    H     H_    0.137595 0.958838 0.072764 0.130679
H7    H     H_    0.303289 0.615637 0.952778 0.140697
H8    H     H_    0.637595 0.458831 0.072765 0.130681
H9    H     H_    0.808875 0.083062 0.079546 0.125504
H10   H     H_    0.127174 0.938068 0.946579 0.139847
H11   H     H_    0.308890 0.583052 0.079544 0.125507
H12   H     H_    0.627173 0.438060 0.946579 0.139850
H13   H     H_    0.694922 0.742202 0.053446 0.146515
H14   H     H_    0.349426 0.853165 0.930778 0.122484
H15   H     H_    0.194902 0.242223 0.053450 0.146513
H16   H     H_    0.849427 0.353173 0.930777 0.122486
H17   H     H_    0.689728 0.775222 0.925263 0.118319
H18   H     H_    0.360629 0.878919 0.059120 0.131617
H19   H     H_    0.189709 0.275240 0.925267 0.118315
H20   H     H_    0.860630 0.378928 0.059119 0.131619
H21   H     H_    0.009369 0.942895 0.428833 0.133973
H22   H     H_    0.104141 0.813702 0.535553 0.158981
H23   H     H_    0.509368 0.442895 0.428834 0.133973
H24   H     H_    0.604141 0.313703 0.535553 0.158981
H25   H     H_    0.570217 0.309835 0.413195 0.156009
H26   H     H_    0.543720 0.447584 0.551005 0.138548
H27   H     H_    0.070217 0.809834 0.413195 0.156009
H28   H     H_    0.043720 0.947584 0.551005 0.138548
H29   H     H_    0.637181 0.888263 0.560326 0.135224
H30   H     H_    0.331858 0.801186 0.427623 0.118467
H31   H     H_    0.137181 0.388263 0.560326 0.135224
H32   H     H_    0.831858 0.301186 0.427623 0.118467
H33   H     H_    0.871062 0.932457 0.449407 0.143571
H34   H     H_    0.176257 0.065947 0.574189 0.132036
H35   H     H_    0.371062 0.432458 0.449407 0.143570
H36   H     H_    0.676257 0.565947 0.574189 0.132036
H37   H     H_    0.861917 0.944873 0.575870 0.140753
H38   H     H_    0.179124 0.092951 0.448229 0.152037
H39   H     H_    0.361916 0.444874 0.575869 0.140753
H40   H     H_    0.679124 0.592951 0.448229 0.152037
H41   H     H_    0.475325 0.357987 0.062317 0.143732
H42   H     H_    0.496063 0.353723 0.934528 0.130123
H43   H     H_    0.975331 0.857989 0.062319 0.143730
H44   H     H_    0.996068 0.853726 0.934529 0.130124
O1    O     O_R   0.787510 0.042610 0.670410 -0.504375
O2    O     O_R   0.212490 0.042610 0.329590 -0.520459
O3    O     O_R   0.287510 0.542610 0.670410 -0.504374
O4    O     O_R   0.712490 0.542610 0.329590 -0.520459
O5    O     O_R   0.556450 0.252890 0.823790 -0.515606
O6    O     O_R   0.443550 0.252890 0.176210 -0.499205
O7    O     O_R   0.056450 0.752890 0.823790 -0.515605
O8    O     O_R   0.943550 0.752890 0.176210 -0.499204
O9    O     O_R   0.545750 0.051070 0.830560 -0.472536
O10   O     O_R   0.454250 0.051070 0.169440 -0.523049
O11   O     O_R   0.045750 0.551070 0.830560 -0.472537
O12   O     O_R   0.954250 0.551070 0.169440 -0.523049
O13   O     O_R   0.681210 0.959150 0.825320 -0.496714
O14   O     O_R   0.318790 0.959150 0.174680 -0.506034
O15   O     O_R   0.181210 0.459150 0.825320 -0.496717
O16   O     O_R   0.818790 0.459150 0.174680 -0.506034
O17   O     O_3   0.667820 0.167810 0.749960 -0.256224
O18   O     O_3   0.332180 0.167810 0.250040 -0.269844
O19   O     O_3   0.167820 0.667810 0.749960 -0.256223
O20   O     O_3   0.832180 0.667810 0.250040 -0.269846
O21   O     O_R   0.765670 0.292090 0.675090 -0.455583
O22   O     O_R   0.234330 0.292090 0.324910 -0.468439
O23   O     O_R   0.265670 0.792090 0.675090 -0.455583
O24   O     O_R   0.734330 0.792090 0.324910 -0.468438
O25   O     O_R   0.670220 0.409020 0.668560 -0.538907
O26   O     O_R   0.329780 0.409020 0.331440 -0.546936
O27   O     O_R   0.170220 0.909020 0.668560 -0.538907
O28   O     O_R   0.829780 0.909020 0.331440 -0.546936
O29   O     O_R   0.556580 0.251590 0.674980 -0.498473
O30   O     O_R   0.443420 0.251590 0.325020 -0.502754
O31   O     O_R   0.056580 0.751590 0.674980 -0.498473
O32   O     O_R   0.943420 0.751590 0.325020 -0.502754
O33   O     O_R   0.545890 0.049670 0.670030 -0.527115
O34   O     O_R   0.454110 0.049670 0.329970 -0.515535
O35   O     O_R   0.045890 0.549670 0.670030 -0.527115
O36   O     O_R   0.954110 0.549670 0.329970 -0.515535
O37   O     O_R   0.681340 0.957860 0.676500 -0.511375
O38   O     O_R   0.318660 0.957860 0.323500 -0.522285
O39   O     O_R   0.181340 0.457860 0.676500 -0.511374
O40   O     O_R   0.818660 0.457860 0.323500 -0.522285
O41   O     O_R   0.787380 0.044010 0.830940 -0.527923
O42   O     O_R   0.212620 0.044010 0.169060 -0.524034
O43   O     O_R   0.287380 0.544010 0.830940 -0.527925
O44   O     O_R   0.712620 0.544010 0.169060 -0.524035
O45   O     O_R   0.765540 0.293390 0.823910 -0.507864
O46   O     O_R   0.234460 0.293390 0.176090 -0.502275
O47   O     O_R   0.265540 0.793390 0.823910 -0.507864
O48   O     O_R   0.734460 0.793390 0.176090 -0.502274
O49   O     O_R   0.670090 0.410410 0.829090 -0.528084
O50   O     O_R   0.329910 0.410410 0.170910 -0.521221
O51   O     O_R   0.170090 0.910410 0.829090 -0.528084
O52   O     O_R   0.829910 0.910410 0.170910 -0.521220
N1    N     N_3   0.631566 0.862955 0.420623 -0.609198
H45   H     H_    0.607708 0.782090 0.437989 0.215409
H46   H     H_    0.596628 0.935213 0.430549 0.236931
N2    N     N_3   0.343875 0.754902 0.564678 -0.589359
H47   H     H_    0.332788 0.669858 0.541793 0.237995
H48   H     H_    0.395446 0.777825 0.550894 0.203655
N3    N     N_3   0.131566 0.362955 0.420623 -0.609198
H49   H     H_    0.107709 0.282089 0.437988 0.215409
H50   H     H_    0.096627 0.435212 0.430550 0.236931
N4    N     N_3   0.843876 0.254903 0.564678 -0.589356
H51   H     H_    0.832787 0.169857 0.541795 0.237996
H52   H     H_    0.895446 0.277824 0.550891 0.203654
N5    N     N_3   0.532299 0.931126 0.940621 -0.578840
H53   H     H_    0.579606 0.891108 0.956566 0.257576
H54   H     H_    0.491022 0.876542 0.959058 0.213456
N6    N     N_3   0.552527 0.954364 0.085683 -0.642742
H55   H     H_    0.577264 0.983174 0.132489 0.249856
H56   H     H_    0.509980 0.897225 0.097260 0.246877
N7    N     N_3   0.032280 0.431122 0.940618 -0.578845
H57   H     H_    0.079587 0.391095 0.956560 0.257570
H58   H     H_    0.991002 0.376545 0.959057 0.213452
N8    N     N_3   0.052520 0.454357 0.085679 -0.642745
H59   H     H_    0.077258 0.483163 0.132484 0.249857
H60   H     H_    0.009971 0.397220 0.097257 0.246875

loop_
_geom_bond_atom_site_label_1
_geom_bond_atom_site_label_2
_ccdc_geom_bond_type
C8    H28   S    
C58   C62   A    
C74   O38   A    
Cr11  O35   S    
C93   C94   A    
C88   O16   A    
C73   O37   A    
Cr3   O47   S    
C34   C37   A    
C41   C42   A    
C14   C18   A    
Cr1   O17   S    
C35   C36   A    
C8    C96   S    
C87   O43   A    
Cr8   O52   S    
Cr3   O3    S    
N6    H55   S    
Cr2   O2    S    
C3    O27   A    
C97   C98   A    
C7    C8    S    
Cr4   O20   S    
C46   C89   S    
Cr12  O16   S    
C56   H12   S    
C15   C19   A    
Cr8   O8    S    
C50   C54   A    
C78   O46   A    
Cr11  O19   S    
C64   C68   A    
C42   H42   S    
Cr4   O4    S    
C39   C84   S    
C38   C42   A    
C55   C59   A    
N3    H50   S    
C2    O26   A    
C5    C6    S    
C30   C74   S    
Cr9   O17   S    
C79   O51   A    
C98   H2    S    
Cr3   O23   S    
C29   C73   S    
Cr12  O12   S    
Cr7   O31   S    
C92   C96   A    
C46   O34   A    
C3    C18   S    
C25   H37   S    
C10   H30   S    
Cr1   O41   S    
Cr5   O29   S    
C57   C61   A    
C68   H20   S    
C9    C13   A    
Cr6   O26   S    
C6    H24   S    
C76   O40   A    
C11   C15   A    
Cr12  O40   S    
C22   H34   S    
Cr9   O33   S    
C6    C94   S    
C48   C91   S    
C100  H4    S    
Cr10  O38   S    
C51   H7    S    
C40   C44   A    
C16   N4    S    
C23   C27   A    
C91   C100  A    
N6    H56   S    
Cr2   O42   S    
C90   C97   A    
Cr7   O51   S    
C84   O8    A    
C9    C29   A    
Cr6   O6    S    
C54   H10   S    
C11   C31   A    
Cr5   O17   S    
C12   C32   A    
C3    O23   A    
C89   C93   A    
Cr9   O37   S    
Cr4   O44   S    
C57   C80   S    
C40   C83   S    
C1    O21   A    
C4    O24   A    
C47   C92   S    
C43   H43   S    
C59   C78   S    
C72   C88   S    
C34   N6    S    
C90   C94   A    
C41   H41   S    
Cr10  O18   S    
C25   C29   A    
C12   C16   A    
C55   H11   S    
C60   C77   S    
C82   O10   A    
Cr8   O28   S    
C27   C31   A    
C44   H44   S    
C13   N1    S    
C28   C32   A    
C62   C66   A    
Cr1   O21   S    
Cr6   O30   S    
C15   N3    S    
C24   H36   S    
Cr1   O45   S    
C62   H14   S    
C7    H21   S    
C1    O25   A    
C33   N5    S    
C39   C43   A    
C82   O6    A    
C51   C55   A    
C64   H16   S    
C83   O11   A    
Cr10  O34   S    
C17   C21   A    
C12   H32   S    
Cr7   O27   S    
C68   C72   A    
C21   H33   S    
C6    H26   S    
C19   C23   A    
N3    H49   S    
C78   O50   A    
C63   C67   A    
Cr6   O50   S    
N5    H53   S    
C84   O12   A    
C77   O49   A    
C65   H17   S    
Cr12  O36   S    
C10   C30   A    
C31   C75   S    
N7    H57   S    
C8    H22   S    
C26   H38   S    
C16   C20   A    
C87   O15   A    
C52   C72   A    
C77   O45   A    
Cr3   O19   S    
N1    H45   S    
Cr6   O18   S    
C48   O32   A    
Cr3   O43   S    
C4    O28   A    
C74   O2    A    
N8    H60   S    
C45   C90   S    
Cr9   O9    S    
C58   C79   S    
C86   O42   A    
C71   C87   S    
C4    C17   S    
C52   H8    S    
Cr4   O48   S    
C45   O33   A    
Cr12  O20   S    
N2    H48   S    
C26   C30   A    
C83   O7    A    
C79   O47   A    
C50   H6    S    
C38   C81   S    
C10   C14   A    
Cr2   O22   S    
C35   N7    S    
C37   C82   S    
Cr11  O11   S    
Cr9   O13   S    
C97   H1    S    
C70   C86   S    
Cr10  O14   S    
C47   O31   A    
C69   C85   S    
C23   H35   S    
C54   C58   A    
C75   O3    A    
C5    H23   S    
C21   C25   A    
C76   O4    A    
C1    C20   S    
C27   H39   S    
N7    H58   S    
C2    C19   S    
C86   O14   A    
C81   O5    A    
Cr8   O32   S    
C36   C39   A    
C67   H19   S    
Cr4   O24   S    
C24   C28   A    
Cr7   O7    S    
C53   C57   A    
C32   C76   S    
C5    C93   S    
C51   C71   A    
C47   O35   A    
Cr5   O49   S    
C73   O1    A    
C14   N2    S    
Cr2   O18   S    
C7    C95   S    
C89   C98   A    
C59   C63   A    
C33   C38   A    
C99   C100  A    
C13   C17   A    
N4    H52   S    
C60   C64   A    
C88   O44   A    
C28   H40   S    
C18   C22   A    
C35   C40   A    
Cr2   O46   S    
C5    H25   S    
N5    H54   S    
C53   H9    S    
C7    H27   S    
Cr10  O10   S    
C45   O29   A    
N4    H51   S    
C66   C70   A    
Cr7   O19   S    
C43   C44   A    
C65   C69   A    
Cr8   O20   S    
C99   H3    S    
N1    H46   S    
C33   C34   A    
C67   C71   A    
C80   O52   A    
C61   C65   A    
C37   C41   A    
N8    H59   S    
C85   O13   A    
C50   C70   A    
C48   O36   A    
C49   C53   A    
C9    H29   S    
Cr1   O1    S    
C56   C60   A    
C61   H13   S    
N2    H47   S    
C46   O30   A    
C91   C95   A    
C36   N8    S    
C22   C26   A    
C49   H5    S    
C95   C96   A    
C81   O9    A    
C85   O41   A    
Cr5   O5    S    
C49   C69   A    
C2    O22   A    
Cr5   O25   S    
C80   O48   A    
C11   H31   S    
C20   C24   A    
C63   H15   S    
C52   C56   A    
C92   C99   A    
Cr11  O39   S    
C66   H18   S    
Cr11  O15   S    
C75   O39   A    
