data_mof_unit_29387.cif
_audit_creation_date              2012-12-10T17:56:20-0500
_audit_creation_method            fapswitch 2.2
_symmetry_space_group_name_H-M    P1
_symmetry_Int_Tables_number       1
_space_group_crystal_system       triclinic
_cell_length_a                    13.053459
_cell_length_b                    10.927019
_cell_length_c                    9.625912
_cell_angle_alpha                 90.484497
_cell_angle_beta                  96.590298
_cell_angle_gamma                 101.465575
_cell_volume                      1336.01561548

loop_
_atom_site_label
_atom_site_type_symbol
_atom_type_description
_atom_site_fract_x
_atom_site_fract_y
_atom_site_fract_z
_atom_type_partial_charge
C1    C     C_R   0.507018 0.263872 0.500157 0.916611
C2    C     C_R   0.492982 0.736128 0.499843 0.916615
C3    C     C_R   0.486504 0.869194 0.500939 -0.379860
C4    C     C_R   0.513495 0.130806 0.499061 -0.379862
C5    C     C_R   0.425210 0.413078 0.062602 0.363748
C6    C     C_R   0.574790 0.586922 0.937398 0.363747
C7    C     C_R   0.426009 0.412537 0.911488 0.369386
C8    C     C_R   0.573991 0.587463 0.088512 0.369388
C9    C     C_R   0.302392 0.510728 0.474091 0.916252
C10   C     C_R   0.697608 0.489272 0.525909 0.916251
C11   C     C_R   0.808320 0.472713 0.539170 -0.320778
C12   C     C_R   0.191680 0.527288 0.460830 -0.320777
C13   C     C_R   0.028361 0.539583 0.317498 0.428988
C14   C     C_R   0.971639 0.460417 0.682502 0.428988
C15   C     C_R   0.137623 0.548883 0.330953 0.299546
C16   C     C_R   0.862377 0.451117 0.669047 0.299547
C17   C     C_R   0.138967 0.525026 0.581264 0.398938
C18   C     C_R   0.861033 0.474975 0.418737 0.398937
C19   C     C_R   0.028141 0.497554 0.567303 -0.198869
C20   C     C_R   0.971859 0.502446 0.432697 -0.198870
C21   C     C_R   0.495814 0.060063 0.371700 0.336847
C22   C     C_R   0.504186 0.939937 0.628300 0.336850
C23   C     C_R   0.473602 0.930205 0.373421 0.325912
C24   C     C_R   0.526397 0.069795 0.626579 0.325911
Cu1   Cu    Cu3+1 0.500000 0.500020 0.640660 1.190973
Cu2   Cu    Cu3+1 0.500000 0.499980 0.359340 1.190974
N1    N     N_R   0.500030 0.500030 0.852080 -0.312922
N2    N     N_R   0.499970 0.499970 0.147920 -0.312923
O1    O     O_R   0.499990 0.319660 0.618740 -0.505189
O2    O     O_R   0.500010 0.680340 0.381260 -0.505187
O3    O     O_R   0.499990 0.319630 0.381170 -0.515420
O4    O     O_R   0.500010 0.680370 0.618830 -0.515421
O5    O     O_R   0.349000 0.499990 0.599490 -0.506714
O6    O     O_R   0.651000 0.500010 0.400510 -0.506714
O7    O     O_R   0.348990 0.499960 0.361920 -0.508430
O8    O     O_R   0.651010 0.500040 0.638080 -0.508430
Cl1   Cl    Cl    0.789748 0.405805 0.259304 -0.388069
Cl2   Cl    Cl    0.210252 0.594196 0.740696 -0.388071
Cl3   Cl    Cl    0.793394 0.392115 0.810148 -0.337147
Cl4   Cl    Cl    0.206606 0.607885 0.189852 -0.337149
Cl5   Cl    Cl    0.967978 0.591603 0.160629 -0.285517
Cl6   Cl    Cl    0.032022 0.408398 0.839371 -0.285515
Cl7   Cl    Cl    0.513859 0.128457 0.207523 -0.314873
Cl8   Cl    Cl    0.486140 0.871542 0.792477 -0.314871
Cl9   Cl    Cl    0.415030 0.847931 0.215366 -0.332329
Cl10  Cl    Cl    0.584970 0.152068 0.784634 -0.332326
S1    S     S_3+6 0.316003 0.306863 0.133375 0.155982
O9    O     O_2   0.320790 0.287218 0.286810 -0.279196
O10   O     O_2   0.217833 0.356423 0.092686 -0.177275
O11   O     O_3   0.296367 0.159998 0.067988 -0.389025
H1    H     H_    0.224478 0.120040 0.086861 0.397783
S2    S     S_3+6 0.683997 0.693137 0.866625 0.155983
O12   O     O_2   0.782167 0.643578 0.907314 -0.177280
O13   O     O_2   0.679210 0.712782 0.713189 -0.279188
O14   O     O_3   0.703632 0.840002 0.932011 -0.389023
H2    H     H_    0.775527 0.879957 0.913155 0.397784
S3    S     S_3+6 0.334258 0.286256 0.806025 0.150517
O15   O     O_2   0.370884 0.167393 0.842216 -0.173328
O16   O     O_2   0.225337 0.276745 0.845770 -0.180560
O17   O     O_3   0.313484 0.281211 0.630840 -0.514484
H3    H     H_    0.268530 0.198193 0.604430 0.368498
S4    S     S_3+6 0.665742 0.713744 0.193975 0.150514
O18   O     O_2   0.774663 0.723255 0.154230 -0.180572
O19   O     O_2   0.629116 0.832607 0.157784 -0.173326
O20   O     O_3   0.686516 0.718790 0.369160 -0.514484
H4    H     H_    0.731476 0.801804 0.395570 0.368500

loop_
_geom_bond_atom_site_label_1
_geom_bond_atom_site_label_2
_ccdc_geom_bond_type
C12   C17   A    
C6    C8    A    
O14   H2    S    
C12   C15   A    
C11   C18   A    
S4    O18   D    
C23   Cl9   S    
Cu1   N1    S    
C5    N2    A    
C5    C7    A    
C11   C16   A    
Cu2   N2    S    
C19   C20   A    
S4    O20   S    
S2    O14   S    
C2    O2    A    
C14   Cl6   S    
C1    C4    S    
C24   Cl10  S    
Cu1   O4    S    
C13   Cl5   S    
C2    C3    S    
Cu2   O3    S    
S1    O10   D    
Cu2   O6    S    
C9    O5    A    
C4    C21   A    
C5    S1    S    
S3    O15   D    
C8    N2    A    
C1    O1    A    
C17   C19   A    
C18   Cl1   S    
S2    O13   D    
Cu2   O2    S    
S1    O11   S    
C22   C24   A    
C17   Cl2   S    
C13   C15   A    
C21   C23   A    
Cu1   O1    S    
C4    C24   A    
C9    C12   S    
C14   C16   A    
C15   Cl4   S    
S3    O16   D    
C10   C11   S    
C16   Cl3   S    
S4    O19   D    
C10   O6    A    
C6    S2    S    
Cu2   O7    S    
C1    O3    A    
C7    N1    A    
S2    O12   D    
C18   C20   A    
C2    O4    A    
O20   H4    S    
Cu1   O5    S    
C9    O7    A    
C6    N1    A    
S3    O17   S    
C10   O8    A    
Cu1   O8    S    
C13   C20   A    
O11   H1    S    
Cu1   Cu2   S    
C21   Cl7   S    
C3    C23   A    
C14   C19   A    
C7    S3    S    
C22   Cl8   S    
S1    O9    D    
C8    S4    S    
O17   H3    S    
C3    C22   A    
