data_mof_unit_55624.cif
_audit_creation_date              2012-12-11T16:06:24-0500
_audit_creation_method            fapswitch 2.2
_symmetry_space_group_name_H-M    P1
_symmetry_Int_Tables_number       1
_space_group_crystal_system       triclinic
_cell_length_a                    7.201233
_cell_length_b                    14.468292
_cell_length_c                    15.781
_cell_angle_alpha                 89.999935
_cell_angle_beta                  90.00006
_cell_angle_gamma                 89.999852
_cell_volume                      1644.2151592

loop_
_atom_site_label
_atom_site_type_symbol
_atom_type_description
_atom_site_fract_x
_atom_site_fract_y
_atom_site_fract_z
_atom_type_partial_charge
O1    O     O_R   0.388780 0.834790 0.412340 -0.537018
O2    O     O_R   0.111220 0.165210 0.912340 -0.538142
O3    O     O_R   0.888780 0.665210 0.587660 -0.537020
O4    O     O_R   0.611220 0.334790 0.087660 -0.538142
O5    O     O_R   0.059040 0.845930 0.587040 -0.541624
O6    O     O_R   0.440960 0.154070 0.087040 -0.540356
O7    O     O_R   0.559040 0.654070 0.412960 -0.541624
O8    O     O_R   0.940960 0.345930 0.912960 -0.540354
C1    C     C_R   0.227660 0.867991 0.615335 0.643338
C2    C     C_R   0.271936 0.132016 0.115395 0.643157
C3    C     C_R   0.727661 0.632005 0.384669 0.643339
C4    C     C_R   0.771936 0.367984 0.884606 0.643164
O9    O     O_R   0.059070 0.845930 0.412970 -0.541625
O10   O     O_R   0.440930 0.154070 0.912970 -0.540357
O11   O     O_R   0.559070 0.654070 0.587030 -0.541627
O12   O     O_R   0.940930 0.345930 0.087030 -0.540358
O13   O     O_R   0.888760 0.665210 0.412340 -0.537024
O14   O     O_R   0.611240 0.334790 0.912340 -0.538146
O15   O     O_R   0.388760 0.834790 0.587660 -0.537023
O16   O     O_R   0.111240 0.165210 0.087660 -0.538148
C5    C     C_R   0.227683 0.867997 0.384674 0.643358
C6    C     C_R   0.271913 0.132010 0.884614 0.643175
C7    C     C_R   0.727683 0.632004 0.615326 0.643351
C8    C     C_R   0.771914 0.367986 0.115390 0.643175
O17   O     O_3   0.222280 0.690700 0.500000 -0.372198
O18   O     O_3   0.277720 0.309300 0.000000 -0.372284
O19   O     O_3   0.722280 0.809300 0.500000 -0.372196
O20   O     O_3   0.777720 0.190700 0.000000 -0.372285
V1    V     V_3+5 0.947430 0.761000 0.500000 1.358181
V2    V     V_3+5 0.552570 0.239000 0.000000 1.357688
V3    V     V_3+5 0.447430 0.739000 0.500000 1.358180
V4    V     V_3+5 0.052570 0.261000 0.000000 1.357687
C9    C     C_3   0.832706 0.604163 0.766462 -0.320463
C10   C     C_3   0.554354 0.456491 0.213503 -0.305159
C11   C     C_3   0.332676 0.895833 0.233534 -0.320465
C12   C     C_3   0.054342 0.043398 0.786589 -0.305148
H1    H     H_    0.974878 0.628517 0.750146 0.136022
H2    H     H_    0.473898 0.482611 0.158220 0.137963
H3    H     H_    0.474843 0.871469 0.249843 0.136019
H4    H     H_    0.974056 0.017235 0.841904 0.137916
H5    H     H_    0.752567 0.665533 0.788139 0.114964
H6    H     H_    0.488289 0.390695 0.234262 0.132006
H7    H     H_    0.252515 0.834470 0.211860 0.114967
H8    H     H_    0.988099 0.109159 0.765863 0.132059
C13   C     C_3   0.845514 0.532510 0.839737 -0.326234
C14   C     C_3   0.541831 0.527604 0.286255 -0.318312
C15   C     C_3   0.345486 0.967487 0.160259 -0.326237
C16   C     C_3   0.041820 0.972285 0.713837 -0.318315
H9    H     H_    0.771521 0.559586 0.896450 0.115168
H10   H     H_    0.470083 0.495414 0.341335 0.134966
H11   H     H_    0.271475 0.940416 0.103549 0.115166
H12   H     H_    0.969896 0.004444 0.658791 0.135014
H13   H     H_    0.993630 0.522901 0.857821 0.138295
H14   H     H_    0.455841 0.587324 0.265267 0.133814
H15   H     H_    0.493600 0.977087 0.142169 0.138291
H16   H     H_    0.955998 0.912520 0.734854 0.133770
H17   H     H_    0.995282 0.496652 0.640906 0.141946
H18   H     H_    0.771412 0.559589 0.103544 0.115172
H19   H     H_    0.495309 0.003332 0.359081 0.141952
H20   H     H_    0.271824 0.940403 0.896449 0.115165
H21   H     H_    0.014047 0.391431 0.748873 0.136798
H22   H     H_    0.752476 0.665536 0.211855 0.114965
H23   H     H_    0.514071 0.108554 0.251116 0.136802
H24   H     H_    0.252887 0.834456 0.788137 0.114957
C17   C     C_3   0.852646 0.475373 0.659775 -0.321197
C18   C     C_3   0.845446 0.532520 0.160249 -0.326241
C19   C     C_3   0.352674 0.024620 0.340220 -0.321192
C20   C     C_3   0.345686 0.967513 0.839716 -0.326234
C21   C     C_3   0.541845 0.527623 0.713756 -0.318316
C22   C     C_3   0.865496 0.403824 0.266863 -0.325374
C23   C     C_3   0.041849 0.972391 0.286255 -0.318321
C24   C     C_3   0.365264 0.096224 0.733105 -0.325376
C25   C     C_3   0.738148 0.561463 0.686981 0.125784
C26   C     C_3   0.759915 0.438514 0.187138 0.124527
C27   C     C_3   0.238148 0.938539 0.313020 0.125777
C28   C     C_3   0.259915 0.061477 0.812869 0.124513
H25   H     H_    0.470066 0.495438 0.658683 0.134974
H26   H     H_    0.014081 0.391463 0.251101 0.136801
H27   H     H_    0.970093 0.004581 0.341332 0.134969
H28   H     H_    0.513851 0.108659 0.748807 0.136764
H29   H     H_    0.455886 0.587352 0.734748 0.133799
H30   H     H_    0.806161 0.336688 0.288100 0.115385
H31   H     H_    0.955869 0.912669 0.265268 0.133808
H32   H     H_    0.305750 0.163331 0.711897 0.115393
C29   C     C_3   0.759932 0.438513 0.812858 0.124528
C30   C     C_3   0.738132 0.561463 0.313015 0.125788
C31   C     C_3   0.259932 0.061488 0.187143 0.124532
C32   C     C_3   0.238130 0.938528 0.686993 0.125785
C33   C     C_3   0.865462 0.403811 0.733124 -0.325375
C34   C     C_3   0.832644 0.604172 0.233526 -0.320465
C35   C     C_3   0.365488 0.096183 0.266872 -0.325378
C36   C     C_3   0.332884 0.895860 0.766439 -0.320455
C37   C     C_3   0.554368 0.456512 0.786511 -0.305155
C38   C     C_3   0.852673 0.475385 0.340213 -0.321188
C39   C     C_3   0.054371 0.043501 0.213500 -0.305154
C40   C     C_3   0.352441 0.024663 0.659755 -0.321215
H33   H     H_    0.473951 0.482644 0.841800 0.137955
H34   H     H_    0.787159 0.442511 0.396521 0.114042
H35   H     H_    0.973936 0.017375 0.158215 0.137961
H36   H     H_    0.286748 0.057508 0.603478 0.114048
H37   H     H_    0.488263 0.390724 0.765762 0.132017
H38   H     H_    0.995308 0.496677 0.359074 0.141952
H39   H     H_    0.988286 0.109294 0.234252 0.132009
H40   H     H_    0.495076 0.003443 0.640832 0.141917
H41   H     H_    0.787103 0.442507 0.603471 0.114042
H42   H     H_    0.993557 0.522927 0.142150 0.138282
H43   H     H_    0.287154 0.057489 0.396529 0.114043
H44   H     H_    0.493812 0.977178 0.857752 0.138323
H45   H     H_    0.806085 0.336683 0.711892 0.115389
H46   H     H_    0.974814 0.628538 0.249831 0.136016
H47   H     H_    0.306131 0.163314 0.288108 0.115389
H48   H     H_    0.475069 0.871569 0.750074 0.136059

loop_
_geom_bond_atom_site_label_1
_geom_bond_atom_site_label_2
_ccdc_geom_bond_type
O17   V3    S    
C32   C40   S    
O1    C5    A    
C31   C35   S    
O19   V1    S    
C9    C13   S    
C21   H25   S    
C10   H6    S    
C6    C28   S    
C24   C28   S    
C11   C15   S    
C23   H27   S    
C17   C25   S    
C18   C34   S    
O18   V4    S    
C11   C27   S    
C4    C29   S    
O9    V1    S    
C22   C38   S    
O10   V2    S    
C16   H12   S    
C21   C37   S    
C1    C32   S    
O4    C8    A    
C39   H35   S    
C22   H26   S    
C38   H34   S    
C3    C30   S    
C18   C26   S    
C33   H45   S    
O1    V3    S    
O13   V1    S    
O2    V4    S    
C35   H47   S    
O3    V1    S    
C22   C26   S    
C30   C38   S    
H19   C19   S    
C7    C25   S    
C29   C37   S    
C1    O15   A    
C32   C36   S    
C39   H39   S    
C31   C39   S    
O2    C6    A    
C16   C32   S    
C21   C25   S    
C10   C14   S    
C11   H7    S    
C23   H31   S    
O11   C7    A    
C15   H15   S    
O15   V3    S    
O12   C8    A    
C18   H42   S    
C17   H41   S    
H21   C33   S    
O7    C3    A    
O5    V1    S    
C2    C31   S    
O7    V3    S    
O8    V4    S    
C12   H4    S    
C30   C34   S    
C37   H37   S    
C29   C33   S    
C36   H48   S    
C15   H11   S    
O3    C7    A    
C9    H1    S    
C15   C31   S    
C11   H3    S    
O5    C1    A    
C13   H9    S    
O8    C4    A    
C14   H14   S    
C19   C35   S    
O9    C5    A    
C20   C28   S    
H20   C20   S    
C24   H32   S    
C10   C26   S    
O14   V2    S    
C9    C25   S    
O6    V2    S    
C40   H40   S    
C12   H8    S    
C19   C27   S    
H24   C36   S    
H23   C35   S    
C37   H33   S    
H18   C18   S    
O16   V4    S    
C16   H16   S    
C5    C27   S    
C3    O13   A    
C10   H2    S    
H17   C17   S    
O6    C2    A    
C8    C26   S    
O11   V3    S    
C17   C33   S    
O12   V4    S    
C14   H10   S    
C13   C29   S    
C9    H5    S    
O10   C6    A    
O20   V2    S    
H22   C34   S    
C24   H28   S    
C23   C27   S    
C19   H43   S    
C2    O16   A    
C40   H36   S    
C20   C36   S    
C12   C16   S    
C22   H30   S    
C21   H29   S    
C13   H13   S    
C24   C40   S    
C12   C28   S    
C23   C39   S    
C38   H38   S    
C4    O14   A    
C34   H46   S    
C20   H44   S    
O4    V2    S    
C14   C30   S    
