data_mof_unit_48957.cif
_audit_creation_date              2012-12-11T15:42:43-0500
_audit_creation_method            fapswitch 2.2
_symmetry_space_group_name_H-M    P1
_symmetry_Int_Tables_number       1
_space_group_crystal_system       triclinic
_cell_length_a                    6.94942
_cell_length_b                    14.632939
_cell_length_c                    16.186674
_cell_angle_alpha                 90.570185
_cell_angle_beta                  90.120475
_cell_angle_gamma                 90.045999
_cell_volume                      1645.94428085

loop_
_atom_site_label
_atom_site_type_symbol
_atom_type_description
_atom_site_fract_x
_atom_site_fract_y
_atom_site_fract_z
_atom_type_partial_charge
O1    O     O_R   0.505810 0.583360 0.413880 -0.535643
O2    O     O_R   0.175870 0.595480 0.585520 -0.546636
O3    O     O_R   0.005540 0.416640 0.586120 -0.540180
C1    C     C_R   0.345836 0.615192 0.616588 0.685704
O4    O     O_R   0.176100 0.594390 0.414490 -0.544645
O5    O     O_R   0.005770 0.415540 0.413870 -0.538480
C2    C     C_R   0.347205 0.618923 0.387673 0.693011
O6    O     O_R   0.505580 0.584460 0.586130 -0.539283
O7    O     O_3   0.339190 0.441320 0.500000 -0.366692
V1    V     V_3+5 0.064350 0.510890 0.500000 1.372053
O8    O     O_R   0.676050 0.404520 0.414480 -0.543157
C3    C     C_R   0.844997 0.382804 0.385445 0.691258
O9    O     O_R   0.675830 0.405610 0.585510 -0.538109
C4    C     C_R   0.845254 0.383331 0.613362 0.755368
V2    V     V_3+5 0.564340 0.489110 0.500000 1.385277
O10   O     O_3   0.839370 0.558680 0.500000 -0.377608
C5    C     C_2   0.721116 0.210025 0.786669 -0.127671
C6    C     C_2   0.885791 0.181878 0.822793 -0.315512
H1    H     H_    0.585079 0.182458 0.808036 0.137210
H2    H     H_    0.023360 0.209094 0.803617 0.129013
C7    C     C_2   0.709144 0.278197 0.718629 -0.137339
C8    C     C_2   0.862081 0.314881 0.679911 -0.321135
H3    H     H_    0.006922 0.295564 0.697178 0.131295
C9    C     C_R   0.035549 0.207477 0.231566 -0.212226
H4    H     H_    0.168629 0.170784 0.221734 0.123181
C10   C     C_R   0.026370 0.269429 0.297720 -0.155604
C11   C     C_R   0.855498 0.316609 0.315365 -0.068325
C12   C     C_R   0.696426 0.303304 0.263342 -0.187722
C13   C     C_R   0.704042 0.243173 0.194833 0.142610
C14   C     C_R   0.875091 0.190867 0.180341 -0.060494
C15   C     C_R   0.205367 0.739226 0.705628 -0.206938
C16   C     C_R   0.213482 0.802936 0.770721 -0.156390
H5    H     H_    0.090678 0.846986 0.781436 0.124730
C17   C     C_R   0.378966 0.811082 0.820204 -0.073421
C18   C     C_R   0.534087 0.752694 0.804467 -0.186667
C19   C     C_R   0.527358 0.686121 0.741077 0.151126
C20   C     C_R   0.361035 0.680442 0.688527 -0.063219
C21   C     C_R   0.213412 0.750081 0.307449 -0.243801
H6    H     H_    0.099024 0.750524 0.350801 0.142193
C22   C     C_R   0.215932 0.815404 0.244315 0.154376
C23   C     C_R   0.379101 0.820241 0.191482 -0.082225
C24   C     C_R   0.542075 0.769039 0.212851 -0.231365
H7    H     H_    0.674590 0.778761 0.178923 0.123030
C25   C     C_R   0.542010 0.710972 0.281677 0.138501
C26   C     C_R   0.366512 0.691417 0.322661 -0.093690
O11   O     O_R   0.230120 0.912300 0.917180 -0.538808
O12   O     O_R   0.559740 0.902430 0.088770 -0.546611
O13   O     O_R   0.729930 0.081310 0.089370 -0.539759
C27   C     C_R   0.390566 0.883249 0.119498 0.700091
O14   O     O_R   0.559840 0.901330 0.917750 -0.542297
O15   O     O_R   0.730030 0.080210 0.917120 -0.536626
C28   C     C_R   0.390455 0.879525 0.888688 0.700570
O16   O     O_R   0.230020 0.913400 0.089430 -0.538451
O17   O     O_3   0.396460 0.055470 0.003290 -0.371527
V3    V     V_3+5 0.671360 0.985960 0.003250 1.385564
O18   O     O_R   0.059740 0.091300 0.917690 -0.543794
C29   C     C_R   0.890910 0.113308 0.889611 0.736713
O19   O     O_R   0.059640 0.092400 0.088720 -0.544695
C30   C     C_R   0.889374 0.117889 0.114942 0.692599
V4    V     V_3+5 0.171350 0.007820 0.003190 1.383591
O20   O     O_3   0.896380 0.938200 0.003220 -0.371754
H8    H     H_    0.659897 0.757135 0.843994 0.120628
C31   C     C_3   0.696113 0.620216 0.736934 -0.360185
C32   C     C_3   0.638870 0.525786 0.767814 -0.723313
H9    H     H_    0.579536 0.531173 0.831353 0.217405
H10   H     H_    0.529490 0.493642 0.726853 0.220573
H11   H     H_    0.767872 0.481255 0.769683 0.210287
H12   H     H_    0.760378 0.616640 0.674479 0.200612
H13   H     H_    0.816200 0.644583 0.777019 0.166126
C33   C     C_3   0.050765 0.883231 0.241860 -0.356075
C34   C     C_3   0.114581 0.977292 0.272624 -0.734049
H14   H     H_    0.176085 0.972342 0.335828 0.220259
H15   H     H_    0.224217 0.007016 0.231105 0.215862
H16   H     H_    0.987882 0.023257 0.275246 0.208904
H17   H     H_    0.982070 0.886432 0.180239 0.199790
H18   H     H_    0.932712 0.861743 0.282687 0.170364
C35   C     C_3   0.733894 0.687802 0.319363 -0.316407
C36   C     C_3   0.756775 0.739905 0.402563 -0.666693
H19   H     H_    0.777622 0.813914 0.392219 0.185001
H20   H     H_    0.629123 0.734276 0.443004 0.212138
H21   H     H_    0.880161 0.713428 0.438292 0.217030
H22   H     H_    0.753834 0.613113 0.325812 0.187938
H23   H     H_    0.850084 0.707231 0.276593 0.143536
H24   H     H_    0.565418 0.298380 0.699715 0.135522
H25   H     H_    0.152878 0.279196 0.336013 0.128578
H26   H     H_    0.566587 0.342308 0.274981 0.114523
C37   C     C_3   0.529257 0.240924 0.138232 -0.355979
C38   C     C_3   0.573864 0.280616 0.053386 -0.695448
H27   H     H_    0.620606 0.352929 0.060103 0.209092
H28   H     H_    0.688593 0.241541 0.021363 0.215009
H29   H     H_    0.442300 0.278274 0.014358 0.208224
H30   H     H_    0.469183 0.171048 0.132794 0.201226
H31   H     H_    0.410343 0.282584 0.164747 0.163848
H32   H     H_    0.076438 0.736643 0.667961 0.125110

loop_
_geom_bond_atom_site_label_1
_geom_bond_atom_site_label_2
_ccdc_geom_bond_type
O13   V3    S    
C21   C22   A    
C37   C38   S    
C23   C24   A    
C18   C19   A    
C1    O6    A    
O12   C27   A    
O17   V4    S    
C35   C36   S    
C10   C11   A    
C22   C33   S    
C2    C26   S    
C7    C8    D    
C25   C35   S    
C9    C10   A    
O5    C3    A    
C21   H6    S    
C36   H20   S    
C35   H23   S    
O19   V4    S    
V2    O10   S    
O11   C28   A    
O18   C29   A    
C17   C18   A    
C21   C26   A    
C31   H12   S    
O8    V2    S    
C31   H13   S    
O14   C28   A    
C7    H24   S    
C33   C34   S    
O15   C29   A    
C19   C31   S    
O7    V1    S    
O15   V3    S    
C37   H30   S    
C24   C25   A    
C23   C27   S    
O16   V4    S    
O4    C2    A    
C3    C11   S    
C32   H11   S    
C9    H4    S    
C34   H15   S    
C36   H19   S    
O19   C30   A    
C5    C7    S    
O18   V4    S    
V4    O20   S    
C16   C17   A    
O2    C1    A    
C13   C14   A    
C6    C29   S    
C15   C16   A    
C38   H29   S    
C14   C30   S    
C5    C6    D    
C38   H27   S    
O3    C4    A    
O1    V2    S    
C22   C23   A    
C38   H28   S    
O6    V2    S    
O9    V2    S    
C12   H26   S    
C24   H7    S    
V3    O20   S    
O2    V1    S    
C11   C12   A    
C25   C26   A    
O13   C30   A    
O12   V3    S    
O17   V3    S    
C12   C13   A    
O11   V4    S    
O1    C2    A    
O5    V1    S    
C34   H16   S    
O8    C3    A    
C15   H32   S    
C17   C28   S    
O14   V3    S    
C32   H9    S    
C4    C8    S    
O7    V2    S    
C34   H14   S    
O3    V1    S    
V1    O10   S    
C16   H5    S    
C33   H18   S    
C36   H21   S    
C35   H22   S    
C10   H25   S    
C27   O16   A    
C37   H31   S    
C5    H1    S    
C18   H8    S    
C6    H2    S    
C9    C14   A    
C13   C37   S    
C31   C32   S    
C15   C20   A    
O4    V1    S    
C1    C20   S    
C19   C20   A    
C33   H17   S    
C8    H3    S    
O9    C4    A    
C32   H10   S    
