data_mof_unit_18710.cif
_audit_creation_date              2013-03-05T15:40:28-0500
_audit_creation_method            fapswitch 2.2
_symmetry_space_group_name_H-M    P1
_symmetry_Int_Tables_number       1
_space_group_crystal_system       triclinic
_cell_length_a                    7.424387
_cell_length_b                    8.694441
_cell_length_c                    13.404556
_cell_angle_alpha                 94.022416
_cell_angle_beta                  77.146287
_cell_angle_gamma                 103.170002
_cell_volume                      821.232796759

loop_
_atom_site_label
_atom_site_type_symbol
_atom_site_description
_atom_site_fract_x
_atom_site_fract_y
_atom_site_fract_z
_atom_type_partial_charge
O1    O     O_R   0.383920 0.714220 0.492660 -0.576458
O2    O     O_R   0.685730 0.742660 0.511730 -0.584595
C1    C     C_R   0.545355 0.800224 0.503015 0.877984
O3    O     O_R   0.275440 0.478800 0.636790 -0.595437
O4    O     O_R   0.577250 0.507240 0.655860 -0.586271
C2    C     C_R   0.398925 0.497257 0.694564 0.766083
Cu1   Cu    Cu3+1 0.321300 0.483160 0.488710 0.989315
Cu2   Cu    Cu3+1 0.678700 0.516840 0.511290 0.986666
O5    O     O_R   0.314270 0.257340 0.488270 -0.585509
O6    O     O_R   0.616080 0.285780 0.507340 -0.588951
O7    O     O_R   0.422750 0.492760 0.344140 -0.554867
O8    O     O_R   0.724560 0.521200 0.363210 -0.535774
C3    C     C_R   0.454660 0.199775 0.496965 0.881695
C4    C     C_R   0.603019 0.512362 0.305552 0.831964
C5    C     C_R   0.878434 0.683210 0.050218 -0.241654
H1    H     H_    0.901863 0.785451 0.865424 0.143255
H2    H     H_    0.014694 0.756803 0.016868 0.173682
C6    C     C_R   0.667308 0.538506 0.194520 -0.180649
C7    C     C_R   0.152594 0.407082 0.848604 -0.194120
C8    C     C_R   0.100842 0.371137 0.951730 -0.153653
C9    C     C_R   0.232418 0.413311 0.013856 -0.140586
C10   C     C_R   0.417727 0.501939 0.975190 0.096921
C11   C     C_R   0.463057 0.552149 0.872289 0.082008
C12   C     C_R   0.559501 0.543220 0.034901 0.082140
C13   C     C_R   0.736622 0.642762 0.993433 0.094927
C14   C     C_R   0.769956 0.704044 0.896213 -0.208821
C15   C     C_R   0.634257 0.661905 0.837302 -0.197598
C16   C     C_R   0.530991 0.489232 0.134664 -0.241970
C17   C     C_R   0.846481 0.631627 0.150346 0.328446
C18   C     C_R   0.335441 0.491867 0.806905 -0.108364
H3    H     H_    0.400741 0.411012 0.169321 0.179684
H4    H     H_    0.051528 0.362890 0.800599 0.163092
H5    H     H_    0.182880 0.376555 0.092018 0.167073
H6    H     H_    0.959465 0.304813 0.983074 0.154884
H7    H     H_    0.664451 0.719093 0.764564 0.158416
C19   C     C_2   0.570928 0.968087 0.504489 -0.359770
H8    H     H_    0.707590 0.039516 0.513061 0.179762
C20   C     C_2   0.429120 0.031896 0.495431 -0.349969
H9    H     H_    0.292467 0.960458 0.486843 0.190266
N1    N     N_2   0.947230 0.542220 0.528320 -0.206394
H10   H     H_    0.011082 0.618067 0.579002 0.217708
N2    N     N_2   0.052770 0.457780 0.471680 -0.186731
H11   H     H_    0.988715 0.381604 0.421225 0.246368
N3    N     N_R   0.994815 0.679867 0.206123 0.129488
O9    O     O_R   0.061698 0.573504 0.240951 -0.376092
O10   O     O_R   0.090605 0.825573 0.201877 -0.367592

loop_
_geom_bond_atom_site_label_1
_geom_bond_atom_site_label_2
_geom_bond_distance
_ccdc_geom_bond_type
O4    Cu2   1.916858 S    
C5    H2    1.084728 S    
C11   C15   1.411031 A    
C4    C6    1.475322 S    
C7    C8    1.387723 A    
Cu2   O8    1.939421 S    
C8    H6    1.082939 S    
C8    C9    1.392162 A    
C19   C20   1.327962 D    
O2    C1    1.284671 A    
C3    C20   1.427677 S    
Cu1   Cu2   2.684981 S    
C6    C17   1.414823 A    
C9    C10   1.418072 A    
C12   C13   1.418073 A    
Cu1   O7    1.916858 S    
C14   C15   1.384926 A    
O4    C2    1.295336 A    
C1    C19   1.427533 S    
O3    Cu1   1.939421 S    
C7    H4    1.083282 S    
N1    N2    1.283999 D    
N1    H10   1.029146 S    
C2    C18   1.475149 S    
O8    C4    1.299184 A    
C5    C17   1.397547 A    
C17   N3    1.435140 S    
H1    C14   1.084286 S    
C20   H9    1.087734 S    
O7    C4    1.299341 A    
C10   C12   1.428205 A    
C5    C13   1.400668 A    
O3    C2    1.302861 A    
C9    H5    1.075684 S    
N2    H11   1.029060 S    
C11   C18   1.421014 A    
C6    C16   1.402526 A    
N3    O9    1.301030 A    
Cu2   O6    1.955813 S    
Cu1   N2    2.017543 S    
Cu1   O5    1.951776 S    
O5    C3    1.284696 A    
C10   C11   1.420360 A    
C19   H8    1.087697 S    
Cu2   N1    2.017544 S    
C15   H7    1.080795 S    
C13   C14   1.391864 A    
O1    Cu1   1.955813 S    
C7    C18   1.401036 A    
C16   H3    1.076210 S    
O2    Cu2   1.951776 S    
C12   C16   1.403675 A    
N3    O10   1.302092 A    
O1    C1    1.290740 A    
O6    C3    1.290722 A    
