data_mof_unit_68299.cif
_audit_creation_date              2013-03-05T15:58:26-0500
_audit_creation_method            fapswitch 2.2
_symmetry_space_group_name_H-M    P1
_symmetry_Int_Tables_number       1
_space_group_crystal_system       triclinic
_cell_length_a                    7.200589
_cell_length_b                    15.120384
_cell_length_c                    15.439315
_cell_angle_alpha                 90.002026
_cell_angle_beta                  89.888642
_cell_angle_gamma                 90.001277
_cell_volume                      1680.96259953

loop_
_atom_site_label
_atom_site_type_symbol
_atom_site_description
_atom_site_fract_x
_atom_site_fract_y
_atom_site_fract_z
_atom_type_partial_charge
O1    O     O_R   0.388780 0.834790 0.412340 -0.563183
O2    O     O_R   0.111220 0.165210 0.912340 -0.592882
O3    O     O_R   0.888780 0.665210 0.587660 -0.592819
O4    O     O_R   0.611220 0.334790 0.087660 -0.562416
O5    O     O_R   0.059040 0.845930 0.587040 -0.575271
O6    O     O_R   0.440960 0.154070 0.087040 -0.582198
O7    O     O_R   0.559040 0.654070 0.412960 -0.582379
O8    O     O_R   0.940960 0.345930 0.912960 -0.575414
C1    C     C_R   0.227126 0.865216 0.617895 1.117910
C2    C     C_R   0.272462 0.134807 0.117861 1.187172
C3    C     C_R   0.727582 0.634778 0.382172 1.187538
C4    C     C_R   0.772874 0.365218 0.882105 1.117800
O9    O     O_R   0.059070 0.845930 0.412970 -0.555545
O10   O     O_R   0.440930 0.154070 0.912970 -0.567134
O11   O     O_R   0.559070 0.654070 0.587030 -0.566978
O12   O     O_R   0.940930 0.345930 0.087030 -0.555929
O13   O     O_R   0.888760 0.665210 0.412340 -0.554041
O14   O     O_R   0.611240 0.334790 0.912340 -0.575758
O15   O     O_R   0.388760 0.834790 0.587660 -0.575686
O16   O     O_R   0.111240 0.165210 0.087660 -0.553060
C5    C     C_R   0.227475 0.866791 0.383877 1.166992
C6    C     C_R   0.272720 0.133472 0.883573 1.152227
C7    C     C_R   0.727277 0.633471 0.616427 1.152427
C8    C     C_R   0.772519 0.366739 0.116181 1.166020
O17   O     O_3   0.222280 0.690700 0.500000 -0.274728
O18   O     O_3   0.277720 0.309300 0.000000 -0.259106
O19   O     O_3   0.722280 0.809300 0.500000 -0.258932
O20   O     O_3   0.777720 0.190700 0.000000 -0.274091
V1    V     V_3+5 0.947430 0.761000 0.500000 1.346516
V2    V     V_3+5 0.552570 0.239000 0.000000 1.337647
V3    V     V_3+5 0.447430 0.739000 0.500000 1.337111
V4    V     V_3+5 0.052570 0.261000 0.000000 1.346603
C9    C     C_3   0.887680 0.587057 0.758170 0.737429
C10   C     C_3   0.626876 0.409072 0.262000 0.747523
C11   C     C_3   0.371512 0.908729 0.237632 0.747271
C12   C     C_3   0.112323 0.087056 0.741826 0.737351
C13   C     C_3   0.899682 0.513415 0.829961 0.236406
C14   C     C_3   0.607619 0.485925 0.330092 0.193715
C15   C     C_3   0.390861 0.985504 0.169457 0.193196
C16   C     C_3   0.100329 0.013414 0.670031 0.236650
H1    H     H_    0.043882 0.487703 0.830633 0.196978
H2    H     H_    0.462169 0.510113 0.327807 0.199348
H3    H     H_    0.536742 0.009146 0.171177 0.200031
H4    H     H_    0.956125 0.987703 0.669351 0.197040
C17   C     C_3   0.781962 0.470005 0.644440 0.202085
C18   C     C_3   0.695408 0.527293 0.145194 0.181020
C19   C     C_3   0.306217 0.027145 0.354757 0.179908
C20   C     C_3   0.218012 0.970010 0.855559 0.202377
C21   C     C_3   0.545842 0.550343 0.734761 0.122029
C22   C     C_3   0.958497 0.457054 0.227949 0.115302
C23   C     C_3   0.041186 0.957808 0.272815 0.115049
C24   C     C_3   0.454157 0.050341 0.765245 0.122058
C25   C     C_3   0.737281 0.561975 0.686856 -0.517083
C26   C     C_3   0.762153 0.438321 0.186422 -0.499317
C27   C     C_3   0.237810 0.938391 0.313672 -0.499750
C28   C     C_3   0.262712 0.061976 0.813144 -0.517127
H5    H     H_    0.508624 0.614377 0.764941 0.193178
H6    H     H_    0.010843 0.395056 0.257086 0.222465
H7    H     H_    0.987486 0.896022 0.243777 0.222855
H8    H     H_    0.491386 0.114374 0.735068 0.193197
C29   C     C_3   0.763939 0.435125 0.809492 -0.512587
C30   C     C_3   0.738519 0.566118 0.308335 -0.492586
C31   C     C_3   0.261699 0.066162 0.191738 -0.492911
C32   C     C_3   0.236056 0.935124 0.690507 -0.512821
C33   C     C_3   0.817480 0.394893 0.714976 0.274211
C34   C     C_3   0.685556 0.606227 0.214125 0.252516
C35   C     C_3   0.317242 0.105982 0.285797 0.253807
C36   C     C_3   0.182487 0.894898 0.785022 0.274265
C37   C     C_3   0.561424 0.476580 0.806179 0.254074
C38   C     C_3   0.943681 0.529718 0.299994 0.234763
C39   C     C_3   0.056075 0.030486 0.200807 0.235938
C40   C     C_3   0.438577 0.976578 0.693825 0.254121
H9    H     H_    0.462712 0.423156 0.791160 0.217343
H10   H     H_    0.033747 0.585854 0.280953 0.215943
H11   H     H_    0.967336 0.086928 0.220224 0.217353
H12   H     H_    0.537280 0.923154 0.708845 0.217378
H13   H     H_    0.657930 0.450990 0.606585 0.203996
H14   H     H_    0.800305 0.543373 0.095174 0.201820
H15   H     H_    0.201720 0.043834 0.404788 0.201623
H16   H     H_    0.342044 0.950994 0.893409 0.203573
O21   O     O_3   0.065338 0.591575 0.720360 -0.715176
H17   H     H_    0.095033 0.653572 0.704922 0.397204
O22   O     O_3   0.446786 0.392658 0.229610 -0.713138
H18   H     H_    0.426087 0.327979 0.224656 0.394201
O23   O     O_3   0.551874 0.891733 0.269399 -0.715145
H19   H     H_    0.571232 0.827005 0.274827 0.394263
O24   O     O_3   0.934661 0.091572 0.779631 -0.715192
H20   H     H_    0.904972 0.153568 0.795078 0.397207
N1    N     N_R   0.698636 0.316991 0.694834 0.218452
O25   O     O_R   0.773133 0.240432 0.678551 -0.317641
O26   O     O_R   0.521250 0.324633 0.681424 -0.428154
N2    N     N_R   0.821185 0.675660 0.188979 0.209742
O27   O     O_R   0.877541 0.732994 0.245917 -0.449213
O28   O     O_R   0.842692 0.696428 0.107675 -0.311244
N3    N     N_R   0.183893 0.176145 0.311623 0.209241
O29   O     O_R   0.123416 0.232438 0.254618 -0.451763
O30   O     O_R   0.167819 0.198192 0.392873 -0.308546
N4    N     N_R   0.301308 0.816993 0.805168 0.218445
O31   O     O_R   0.226788 0.740443 0.821475 -0.317446
O32   O     O_R   0.478701 0.824627 0.818564 -0.428386
O33   O     O_3   0.846874 0.670964 0.794190 -0.660829
H21   H     H_    0.740365 0.666750 0.834369 0.356020
O34   O     O_3   0.692981 0.329776 0.299747 -0.679754
H22   H     H_    0.795501 0.341638 0.340279 0.354029
O35   O     O_3   0.303645 0.829645 0.200106 -0.677799
H23   H     H_    0.200719 0.841850 0.159893 0.354523
O36   O     O_3   0.153136 0.170963 0.705812 -0.660849
H24   H     H_    0.259657 0.166750 0.665640 0.356027
O37   O     O_3   0.867811 0.546940 0.913801 -0.723508
H25   H     H_    0.978192 0.582750 0.929866 0.385586
O38   O     O_3   0.637433 0.456170 0.415380 -0.715227
H26   H     H_    0.529244 0.418781 0.431390 0.380811
O39   O     O_3   0.359072 0.955884 0.084285 -0.715093
H27   H     H_    0.466323 0.918070 0.067870 0.380626
O40   O     O_3   0.132226 0.046935 0.586193 -0.723756
H28   H     H_    0.021852 0.082743 0.570121 0.385305
O41   O     O_3   0.919551 0.475928 0.579530 -0.639276
H29   H     H_    0.036987 0.496419 0.605447 0.400733
O42   O     O_3   0.532065 0.516207 0.096199 -0.615387
H30   H     H_    0.425617 0.511432 0.136072 0.408957
O43   O     O_3   0.469360 0.015503 0.403737 -0.615221
H31   H     H_    0.575376 0.009579 0.363789 0.409849
O44   O     O_3   0.080426 0.975937 0.920474 -0.639058
H32   H     H_    0.962998 0.996439 0.894561 0.400565
N5    N     N_R   0.014843 0.365407 0.707619 0.259643
O45   O     O_R   0.119634 0.351706 0.774574 -0.401672
O46   O     O_R   0.074909 0.334915 0.633726 -0.230372
N6    N     N_R   0.500105 0.648110 0.208876 0.246983
O47   O     O_R   0.380945 0.647826 0.272079 -0.416881
O48   O     O_R   0.450489 0.684433 0.136012 -0.240573
N7    N     N_R   0.504009 0.146688 0.290456 0.247765
O49   O     O_R   0.621493 0.146488 0.226590 -0.415805
O50   O     O_R   0.556340 0.182208 0.363288 -0.241120
N8    N     N_R   0.985114 0.865420 0.792370 0.259618
O51   O     O_R   0.880336 0.851711 0.725411 -0.401694
O52   O     O_R   0.925024 0.834939 0.866262 -0.230268
O53   O     O_3   0.398679 0.534095 0.676557 -0.665804
H33   H     H_    0.385628 0.470238 0.664868 0.367685
O54   O     O_3   0.093005 0.479662 0.165144 -0.670952
H34   H     H_    0.078981 0.542574 0.148543 0.342116
O55   O     O_3   0.907976 0.980757 0.336104 -0.672321
H35   H     H_    0.922467 0.043717 0.352462 0.342387
O56   O     O_3   0.601313 0.034093 0.823452 -0.665911
H36   H     H_    0.614352 0.970237 0.835140 0.367610
O57   O     O_3   0.501130 0.506552 0.888268 -0.631307
H37   H     H_    0.537640 0.568972 0.896890 0.379221
O58   O     O_3   0.018492 0.501670 0.379840 -0.645159
H38   H     H_    0.973699 0.441644 0.393532 0.378768
O59   O     O_3   0.979424 0.002761 0.121231 -0.644894
H39   H     H_    0.023178 0.942620 0.107287 0.378500
O60   O     O_3   0.498882 0.006546 0.611738 -0.631160
H40   H     H_    0.462390 0.068967 0.603119 0.379198

loop_
_geom_bond_atom_site_label_1
_geom_bond_atom_site_label_2
_geom_bond_distance
_ccdc_geom_bond_type
O17   V3    1.778099 S    
O24   H20   0.990509 S    
O1    C5    1.333536 A    
O33   H21   0.987524 S    
C21   O53   1.412254 S    
O19   V1    1.778128 S    
C1    C32   1.542231 S    
C37   O57   1.413501 S    
O3    C7    1.333386 A    
N3    O29   1.300114 A    
C19   H15   1.106449 S    
C40   H12   1.100958 S    
C3    C30   1.543752 S    
O15   V3    2.026244 S    
N6    O47   1.298131 A    
C20   O44   1.410720 S    
O57   H37   0.988809 S    
C21   H5    1.107195 S    
O44   H32   0.986129 S    
O23   H19   0.992164 S    
C33   N1    1.489100 S    
O5    C1    1.333814 A    
C22   C26   1.579112 S    
C9    O33   1.415830 S    
C32   C36   1.626653 S    
O9    V1    2.024026 S    
C18   C34   1.600548 S    
O4    C8    1.333481 A    
C19   O43   1.409362 S    
C16   O40   1.408546 S    
C8    C26   1.533877 S    
O56   H36   0.986764 S    
O1    V3    2.027380 S    
O13   V1    2.027329 S    
C30   C38   1.581511 S    
C36   N4    1.489104 S    
O2    V4    2.026217 S    
O3    V1    2.026271 S    
C24   H8    1.107193 S    
O58   H38   0.986004 S    
O55   H35   0.990468 S    
C1    O15   1.334930 A    
O38   H26   0.993385 S    
C2    O16   1.333630 A    
C15   O39   1.408301 S    
O2    C6    1.333374 A    
O60   H40   0.988812 S    
C37   H9    1.100961 S    
O14   V2    2.026300 S    
N1    O26   1.299503 A    
C13   O37   1.408533 S    
O53   H33   0.986765 S    
O11   C7    1.331224 A    
C19   C27   1.564325 S    
C17   C25   1.570137 S    
O12   C8    1.330406 A    
C21   C37   1.572552 S    
C12   O36   1.415827 S    
C35   N3    1.484921 S    
C23   C39   1.566761 S    
O10   V2    2.026040 S    
C19   C35   1.600188 S    
C7    C25   1.535131 S    
O5    V1    2.026054 S    
C23   O55   1.411237 S    
C12   O24   1.406765 S    
C9    C25   1.591708 S    
O54   H34   0.990411 S    
C31   C35   1.622813 S    
C24   O56   1.412260 S    
O7    V3    2.024006 S    
C30   C34   1.622075 S    
C11   C27   1.581741 S    
O8    V4    2.026138 S    
C12   C16   1.573632 S    
O37   H25   0.993556 S    
C18   H14   1.106242 S    
C22   O54   1.411220 S    
C6    C28   1.535074 S    
O21   H17   0.990509 S    
C22   H6    1.106300 S    
C11   C15   1.573028 S    
C38   H10   1.107582 S    
C11   O35   1.416125 S    
O7    C3    1.334778 A    
O22   H18   0.992231 S    
O8    C4    1.333835 A    
C40   O60   1.413506 S    
C24   C40   1.572521 S    
C18   C26   1.564370 S    
N2    O28   1.302914 A    
O9    C5    1.330253 A    
C20   C36   1.594471 S    
O43   H31   0.984546 S    
O6    V2    2.024042 S    
C31   C39   1.581765 S    
C10   C26   1.581636 S    
N4    O32   1.299503 A    
C17   C33   1.594494 S    
N5    O45   1.297665 A    
C23   H7    1.106301 S    
C10   O22   1.412704 S    
O36   H24   0.987524 S    
N7    O49   1.297953 A    
N1    O25   1.300190 A    
C13   C29   1.567698 S    
C5    C27   1.533694 S    
O39   H27   0.993371 S    
O16   V4    2.027410 S    
C29   C37   1.588174 S    
C20   C28   1.570132 S    
C3    O13   1.333295 A    
C10   C14   1.572939 S    
C35   N7    1.480853 S    
C2    C31   1.544031 S    
N7    O50   1.302495 A    
N6    O48   1.302492 A    
O6    C2    1.334576 A    
N8    O52   1.303549 A    
O42   H30   0.984817 S    
N3    O30   1.302896 A    
O11   V3    2.026122 S    
N8    O51   1.297665 A    
O18   V4    1.778099 S    
C34   N2    1.484984 S    
O12   V4    2.023987 S    
C15   C31   1.571459 S    
O35   H23   0.985180 S    
C10   O34   1.415963 S    
C16   C32   1.567697 S    
O10   C6    1.331215 A    
C36   N8    1.493554 S    
C22   C38   1.566928 S    
O41   H29   0.986127 S    
C39   H11   1.107137 S    
C4    C29   1.542290 S    
C11   O23   1.412709 S    
C20   H16   1.106283 S    
O40   H28   0.993556 S    
C39   O59   1.411533 S    
C21   C25   1.572956 S    
O20   V2    1.778129 S    
N2    O27   1.300121 A    
C34   N6    1.480289 S    
C18   O42   1.409653 S    
C23   C27   1.578649 S    
C32   C40   1.588168 S    
C13   H1    1.108798 S    
C9    C13   1.573643 S    
C17   O41   1.410685 S    
C14   H2    1.109979 S    
C29   C33   1.626630 S    
C16   H4    1.108798 S    
C15   H3    1.109947 S    
N4    O31   1.300190 A    
C12   C28   1.591718 S    
C4    O14   1.334928 A    
O34   H22   0.985144 S    
N5    O46   1.303550 A    
C17   H13   1.106300 S    
C38   O58   1.411518 S    
C14   O38   1.408400 S    
O59   H39   0.986044 S    
C9    O21   1.406765 S    
O4    V2    2.027297 S    
C24   C28   1.572962 S    
C33   N5    1.493551 S    
C14   C30   1.571713 S    
