data_mof_unit_21806.cif
_audit_creation_date              2012-12-11T14:06:50-0500
_audit_creation_method            fapswitch 2.2
_symmetry_space_group_name_H-M    P1
_symmetry_Int_Tables_number       1
_space_group_crystal_system       triclinic
_cell_length_a                    6.922205
_cell_length_b                    17.313858
_cell_length_c                    24.111932
_cell_angle_alpha                 104.478023
_cell_angle_beta                  90.457677
_cell_angle_gamma                 90.095389
_cell_volume                      2797.93740749

loop_
_atom_site_label
_atom_site_type_symbol
_atom_type_description
_atom_site_fract_x
_atom_site_fract_y
_atom_site_fract_z
_atom_type_partial_charge
O1    O     O_R   0.494290 0.391990 0.999150 -0.538824
O2    O     O_R   0.827170 0.534410 0.082350 -0.533313
O3    O     O_R   0.994360 0.608010 0.000850 -0.494549
C1    C     C_R   0.658865 0.552328 0.105949 0.766557
O4    O     O_R   0.824210 0.388010 0.004470 -0.556195
O5    O     O_R   0.991370 0.460560 0.922410 -0.533664
C2    C     C_R   0.654440 0.354881 0.001432 0.766205
O6    O     O_R   0.497270 0.539440 0.077590 -0.534259
O7    O     O_3   0.659770 0.523970 0.973170 -0.356463
V1    V     V_3+5 0.935840 0.495550 0.004980 1.501981
O8    O     O_R   0.320910 0.465590 0.917650 -0.540098
C3    C     C_R   0.151282 0.447887 0.894057 0.711588
O9    O     O_R   0.323870 0.611990 0.995530 -0.553872
C4    C     C_R   0.154101 0.645223 0.998822 0.814730
V2    V     V_3+5 0.435470 0.504450 0.995020 1.485278
O10   O     O_3   0.161670 0.476030 0.026830 -0.377920
C5    C     C_2   0.139126 0.730224 0.998010 -0.356676
C6    C     C_2   0.968958 0.770562 0.005517 0.190496
C7    C     C_R   0.109921 0.252438 0.624171 0.662685
N1    N     N_R   0.102688 0.332947 0.647844 -0.535845
C8    C     C_R   0.079186 0.385521 0.614193 0.641812
C9    C     C_R   0.049612 0.357399 0.554047 -0.203425
C10   C     C_R   0.059270 0.274396 0.529314 -0.061987
C11   C     C_R   0.089577 0.221642 0.564708 -0.012286
C12   C     C_R   0.010525 0.409010 0.517821 0.371227
C13   C     C_R   0.992148 0.378616 0.458278 0.369480
C14   C     C_R   0.012633 0.295598 0.432959 -0.203796
C15   C     C_R   0.040260 0.243640 0.469105 -0.059509
C16   C     C_R   0.050525 0.160505 0.445109 -0.002361
C17   C     C_R   0.077864 0.108961 0.481114 -0.112978
C18   C     C_R   0.097695 0.139137 0.540096 -0.127464
C19   C     C_R   0.009575 0.262498 0.372721 0.606999
N2    N     N_R   0.017161 0.181507 0.350476 -0.571716
C20   C     C_R   0.034338 0.130583 0.385441 0.604401
O11   O     O_2   0.137655 0.202184 0.658195 -0.492744
O12   O     O_2   0.085957 0.464430 0.639000 -0.497520
O13   O     O_2   0.004671 0.310476 0.336473 -0.490518
O14   O     O_2   0.037836 0.051091 0.362408 -0.484833
H1    H     H_    0.085827 0.044986 0.463792 0.181299
H2    H     H_    0.119889 0.097417 0.566347 0.183022
C21   C     C_R   0.172958 0.116236 0.257324 0.415305
C22   C     C_R   0.155687 0.083636 0.198076 -0.177176
H3    H     H_    0.283334 0.058946 0.174517 0.151062
C23   C     C_R   0.977687 0.082834 0.169270 -0.143899
C24   C     C_R   0.815182 0.115517 0.201174 -0.170328
C25   C     C_R   0.830836 0.148711 0.260266 -0.084461
C26   C     C_R   0.007917 0.149135 0.289062 0.264275
C27   C     C_R   0.277787 0.401879 0.736077 -0.155007
H4    H     H_    0.397743 0.412320 0.710290 0.177800
C28   C     C_R   0.289845 0.428514 0.795744 -0.226258
H5    H     H_    0.418457 0.460514 0.814658 0.178697
C29   C     C_R   0.137879 0.414899 0.830592 -0.173685
C30   C     C_R   0.972369 0.371584 0.803834 0.224056
C31   C     C_R   0.957146 0.348435 0.743217 0.393683
C32   C     C_R   0.112204 0.362192 0.709528 0.286177
C33   C     C_R   0.511305 0.871322 0.614272 0.622051
N3    N     N_R   0.506939 0.819963 0.649215 -0.548415
C34   C     C_R   0.515555 0.738964 0.626779 0.655205
C35   C     C_R   0.521245 0.706271 0.566545 -0.127045
C36   C     C_R   0.538031 0.759308 0.530608 -0.053411
C37   C     C_R   0.532658 0.842217 0.554708 -0.094498
C38   C     C_R   0.516908 0.622744 0.540857 0.380093
C39   C     C_R   0.544222 0.594340 0.481851 -0.066578
C40   C     C_R   0.565978 0.646686 0.446292 -0.097086
C41   C     C_R   0.561455 0.729607 0.470519 -0.060025
C42   C     C_R   0.581377 0.782771 0.434789 -0.122499
C43   C     C_R   0.566290 0.866174 0.459701 0.372201
C44   C     C_R   0.546921 0.894551 0.518926 -0.137246
C45   C     C_R   0.587098 0.617761 0.386601 0.625341
N4    N     N_R   0.613026 0.669520 0.352596 -0.569199
C46   C     C_R   0.618356 0.750397 0.375746 0.607927
O15   O     O_2   0.497356 0.950599 0.637252 -0.493366
O16   O     O_2   0.524763 0.690801 0.662843 -0.494093
O17   O     O_2   0.581387 0.538516 0.362709 -0.494118
O18   O     O_2   0.661789 0.798782 0.341601 -0.476316
H6    H     H_    0.538846 0.958466 0.536666 0.188346
C47   C     C_R   0.468529 0.651841 0.255532 0.407012
C48   C     C_R   0.484604 0.629149 0.195631 0.339035
C49   C     C_R   0.648344 0.585863 0.169438 -0.322575
C50   C     C_R   0.800559 0.572636 0.204842 -0.194689
C51   C     C_R   0.792585 0.599817 0.264702 0.439379
C52   C     C_R   0.624274 0.639148 0.290877 0.076022
C53   C     C_R   0.325411 0.841981 0.739833 0.424655
C54   C     C_R   0.311310 0.875692 0.799429 -0.278436
H7    H     H_    0.179896 0.867759 0.821517 0.138508
C55   C     C_R   0.467087 0.917745 0.830706 -0.166626
C56   C     C_R   0.637204 0.926616 0.801497 -0.189173
H8    H     H_    0.759414 0.958711 0.824778 0.165342
C57   C     C_R   0.653815 0.894682 0.742331 0.343329
C58   C     C_R   0.496137 0.851991 0.710778 0.239685
C59   C     C_2   0.642852 0.269768 0.001812 -0.333828
H9    H     H_    0.777534 0.239037 0.005148 0.147836
C60   C     C_2   0.472700 0.230151 0.997920 -0.330359
H10   H     H_    0.338022 0.260881 0.994573 0.146761
O19   O     O_R   0.618210 0.960470 0.922400 -0.542560
O20   O     O_R   0.291310 0.111960 0.995450 -0.546066
O21   O     O_R   0.124210 0.039530 0.077580 -0.541749
C61   C     C_R   0.461092 0.145070 0.998398 0.773260
O22   O     O_R   0.288310 0.965490 0.917650 -0.538192
O23   O     O_R   0.121180 0.892010 0.999220 -0.545779
C62   C     C_R   0.456682 0.949659 0.893973 0.748088
O24   O     O_R   0.621230 0.107990 0.000760 -0.537219
O25   O     O_3   0.455770 0.976060 0.026840 -0.373259
V3    V     V_3+5 0.179680 0.004440 0.995020 1.421823
O26   O     O_R   0.791670 0.888040 0.004570 -0.547720
C63   C     C_R   0.960583 0.855231 0.002606 0.665154
O27   O     O_R   0.794680 0.034510 0.082370 -0.540655
C64   C     C_R   0.964376 0.050443 0.106035 0.731542
V4    V     V_3+5 0.680070 0.995560 0.005010 1.422627
O28   O     O_3   0.953840 0.023940 0.973160 -0.368407
H11   H     H_    0.271267 0.760063 0.990747 0.105054
H12   H     H_    0.704605 0.174290 0.284001 0.168876
O29   O     O_3   0.826758 0.349033 0.835324 -0.645575
H13   H     H_    0.887081 0.332811 0.868039 0.292264
O30   O     O_3   0.795228 0.310107 0.715233 -0.624602
H14   H     H_    0.693191 0.307869 0.743309 0.339226
O31   O     O_3   0.481397 0.566818 0.571317 -0.608339
H15   H     H_    0.369220 0.585836 0.596234 0.361461
H16   H     H_    0.543160 0.530393 0.463748 0.187791
O32   O     O_3   0.564353 0.921956 0.427828 -0.601856
H17   H     H_    0.471482 0.902790 0.395834 0.343624
O33   O     O_3   0.299324 0.688882 0.277813 -0.578506
H18   H     H_    0.291512 0.690761 0.319068 0.310677
O34   O     O_3   0.802498 0.732111 0.016272 -0.626914
H19   H     H_    0.692973 0.769798 0.023870 0.291550
O35   O     O_3   0.336789 0.651289 0.164184 -0.598611
H20   H     H_    0.394797 0.667002 0.131183 0.290535
H21   H     H_    0.928115 0.540774 0.185929 0.193810
O36   O     O_3   0.952474 0.586541 0.295635 -0.595904
H22   H     H_    0.937849 0.615019 0.336374 0.320936
O37   O     O_3   0.174739 0.798933 0.708950 -0.612719
H23   H     H_    0.070326 0.793705 0.735708 0.311227
O38   O     O_3   0.826661 0.906438 0.717403 -0.613558
H24   H     H_    0.830461 0.872832 0.677694 0.321133
O39   O     O_3   0.979665 0.489497 0.539182 -0.586504
H25   H     H_    0.879236 0.495043 0.568982 0.346215
O40   O     O_3   0.944140 0.431994 0.426601 -0.576100
H26   H     H_    0.830980 0.409486 0.402463 0.339244
O41   O     O_3   0.353025 0.114975 0.282059 -0.639775
H27   H     H_    0.350548 0.146426 0.322399 0.299959
H28   H     H_    0.676303 0.116512 0.180361 0.150167

loop_
_geom_bond_atom_site_label_1
_geom_bond_atom_site_label_2
_ccdc_geom_bond_type
C27   C32   A    
C46   O18   S    
C56   H8    S    
O35   H20   S    
C25   H12   S    
C21   C22   A    
O26   C63   A    
C7    N1    A    
C1    O6    A    
C13   O40   S    
C51   C52   A    
O39   H25   S    
C8    O12   S    
C47   C48   A    
C33   N3    A    
C13   C14   A    
C38   C39   A    
C8    C9    A    
C15   C16   A    
C54   C55   A    
O29   H13   S    
O5    C3    A    
C17   C18   A    
O30   H14   S    
O23   V3    S    
C18   H2    S    
C38   O31   S    
C47   O33   S    
C31   C32   A    
O21   C64   A    
O8    V2    S    
C42   C46   A    
C33   O15   S    
C9    C12   A    
O20   C61   A    
O19   C62   A    
C28   C29   A    
O27   C64   A    
N4    C46   A    
O1    V2    S    
O7    V1    S    
C27   C28   A    
C42   C43   A    
C35   C36   A    
C20   O14   S    
O9    C4    A    
C24   H28   S    
O27   V4    S    
C4    C5    S    
C22   C23   A    
N1    C32   S    
C12   O39   S    
C5    H11   S    
C3    C29   S    
C30   O29   S    
C28   H5    S    
C23   C64   S    
O41   H27   S    
C57   O38   S    
N3    C58   S    
C43   C44   A    
C54   H7    S    
C1    C49   S    
O19   V4    S    
C59   H9    S    
O4    C2    A    
C55   C56   A    
C50   H21   S    
C12   C13   A    
C61   O24   A    
C16   C20   A    
C49   C50   A    
C36   C37   A    
O2    C1    A    
C6    C63   S    
C53   O37   S    
C16   C17   A    
C59   C60   D    
C39   H16   S    
C51   O36   S    
C53   C54   A    
C10   C11   A    
C2    C59   S    
C31   O30   S    
C5    C6    D    
C21   C26   A    
C45   O17   S    
C33   C37   A    
C60   H10   S    
C19   O13   S    
O3    C4    A    
C27   H4    S    
O22   C62   A    
C36   C41   A    
O6    V2    S    
O9    V2    S    
O38   H24   S    
N2    C26   S    
C10   C15   A    
C22   H3    S    
O37   H23   S    
O2    V1    S    
C14   C15   A    
O32   H17   S    
O36   H22   S    
C43   O32   S    
C53   C58   A    
O26   V4    S    
C25   C26   A    
C35   C38   A    
C14   C19   A    
O1    C2    A    
C23   C24   A    
C50   C51   A    
O5    V1    S    
O8    C3    A    
C30   C31   A    
C44   H6    S    
C40   C45   A    
O40   H26   S    
O23   C63   A    
O25   V4    S    
C19   N2    A    
O20   V3    S    
C7    C11   A    
C34   C35   A    
C11   C18   A    
O4    V1    S    
O3    V1    S    
V1    O10   S    
O31   H15   S    
C40   C41   A    
V3    O28   S    
C48   C49   A    
C37   C44   A    
N3    C34   A    
C47   C52   A    
N2    C20   A    
C17   H1    S    
O22   V3    S    
O7    V2    S    
C45   N4    A    
N4    C52   S    
C21   O41   S    
O21   V3    S    
C39   C40   A    
C24   C25   A    
N1    C8    A    
C41   C42   A    
C6    O34   S    
O25   V3    S    
O33   H18   S    
C56   C57   A    
C9    C10   A    
O24   V4    S    
C7    O11   S    
C57   C58   A    
V4    O28   S    
C55   C62   S    
C60   C61   S    
V2    O10   S    
C34   O16   S    
C29   C30   A    
O34   H19   S    
C48   O35   S    
