data_mof_unit_66202.cif
_audit_creation_date              2012-12-10T19:59:53-0500
_audit_creation_method            fapswitch 2.2
_symmetry_space_group_name_H-M    P1
_symmetry_Int_Tables_number       1
_space_group_crystal_system       triclinic
_cell_length_a                    18.368162
_cell_length_b                    18.368138
_cell_length_c                    36.224674
_cell_angle_alpha                 90.001909
_cell_angle_beta                  90.025135
_cell_angle_gamma                 90.000232
_cell_volume                      12221.8029777

loop_
_atom_site_label
_atom_site_type_symbol
_atom_type_description
_atom_site_fract_x
_atom_site_fract_y
_atom_site_fract_z
_atom_type_partial_charge
C1    C     C_R   0.499986 1.000000 0.901099 0.548247
C2    C     C_R   0.434087 0.995122 0.730656 0.390961
C3    C     C_R   0.273752 0.781048 0.537419 0.012765
C4    C     C_3   0.213175 0.728486 0.933556 0.792231
C5    C     C_3   0.271943 0.213213 0.933597 0.790998
C6    C     C_3   0.786916 0.271790 0.933597 0.791595
C7    C     C_3   0.728148 0.786491 0.933541 0.791589
C8    C     C_3   0.213541 0.271840 0.933541 0.791861
C9    C     C_3   0.271589 0.787106 0.933606 0.791883
C10   C     C_3   0.786760 0.728071 0.933588 0.791276
C11   C     C_3   0.728291 0.213381 0.933545 0.792444
C12   C     C_3   0.713295 0.228435 0.433549 0.792094
C13   C     C_R   0.999072 0.433904 0.730678 0.391197
C14   C     C_3   0.771795 0.713091 0.433597 0.791408
C15   C     C_3   0.286902 0.771887 0.433607 0.791293
C16   C     C_3   0.228099 0.286415 0.433536 0.791968
C17   C     C_3   0.713382 0.771708 0.433547 0.792043
C18   C     C_3   0.771682 0.287082 0.433613 0.791426
C19   C     C_3   0.286723 0.228006 0.433588 0.791424
C20   C     C_3   0.228245 0.713511 0.433537 0.792162
C21   C     C_R   0.999076 0.433902 0.769283 0.403904
C22   C     C_R   0.565914 0.004868 0.769309 0.403944
C23   C     C_R   0.000880 0.566097 0.769287 0.403917
C24   C     C_R   0.565935 0.004867 0.730703 0.391464
C25   C     C_R   0.434066 0.995124 0.769262 0.403831
C26   C     C_R   0.500570 0.933898 0.269284 0.403897
C27   C     C_R   0.066091 0.500600 0.269309 0.403950
C28   C     C_R   0.499390 0.066100 0.269287 0.403898
C29   C     C_R   0.933889 0.499399 0.269262 0.403850
C30   C     C_R   0.999981 0.499999 0.788656 -0.080844
C31   C     C_R   0.499979 0.999997 0.788656 -0.080836
C32   C     C_R   0.499982 0.999998 0.288656 -0.080851
C33   C     C_R   0.999979 0.499999 0.288656 -0.080852
C34   C     C_2   0.316988 0.795379 0.072461 0.629923
C35   C     C_R   0.499977 0.000001 0.211312 -0.079486
C36   C     C_2   0.205805 0.318321 0.072045 0.635185
C37   C     C_2   0.681731 0.205762 0.072058 0.634909
C38   C     C_2   0.795625 0.683241 0.072457 0.629920
C39   C     C_2   0.316721 0.204384 0.072492 0.629745
C40   C     C_2   0.205938 0.681574 0.072059 0.634883
C41   C     C_2   0.681879 0.794388 0.072079 0.634559
C42   C     C_2   0.795614 0.316758 0.072480 0.629837
C43   C     C_2   0.816718 0.295590 0.572529 0.629775
C44   C     C_2   0.705839 0.818341 0.572058 0.634552
C45   C     C_2   0.181583 0.705887 0.572007 0.636336
C46   C     C_R   0.000022 0.499999 0.211312 -0.079477
C47   C     C_2   0.295734 0.183372 0.572484 0.629480
C48   C     C_2   0.816884 0.704524 0.572463 0.629748
C49   C     C_2   0.706032 0.181454 0.572016 0.636204
C50   C     C_2   0.181848 0.294369 0.572062 0.634733
C51   C     C_2   0.295849 0.816445 0.572561 0.629725
C52   C     C_R   0.999974 0.500002 0.711312 -0.079467
C53   C     C_R   0.500022 0.999995 0.711312 -0.079509
C54   C     C_1   0.999988 0.499997 0.828354 0.158848
C55   C     C_1   0.499960 0.999998 0.828354 0.158844
C56   C     C_1   0.499989 0.999997 0.328354 0.158835
C57   C     C_R   0.000000 0.499999 0.901099 0.548233
C58   C     C_1   0.999960 0.500000 0.328354 0.158836
C59   C     C_1   0.499982 0.000003 0.171619 0.125806
C60   C     C_1   0.000040 0.499999 0.171619 0.125825
C61   C     C_1   0.999980 0.500003 0.671619 0.125844
C62   C     C_1   0.500041 0.999996 0.671619 0.125813
C63   C     C_1   0.499988 0.000003 0.138392 0.117485
C64   C     C_1   0.000040 0.500000 0.138392 0.117448
C65   C     C_1   0.999987 0.500003 0.638392 0.117432
C66   C     C_1   0.500040 0.999998 0.638392 0.117492
C67   C     C_1   0.999994 0.499997 0.861586 0.164177
C68   C     C_R   0.999986 0.500000 0.401099 0.548243
C69   C     C_1   0.499960 0.999999 0.861586 0.164181
C70   C     C_1   0.499995 0.999997 0.361586 0.164175
C71   C     C_1   0.999961 0.500000 0.361586 0.164167
C72   C     C_R   0.499996 0.000001 0.098889 0.539523
C73   C     C_R   0.000014 0.500000 0.098889 0.539375
C74   C     C_R   0.999996 0.500001 0.598889 0.539280
C75   C     C_R   0.500014 0.999999 0.598889 0.539515
C76   C     C_R   0.640871 0.860568 0.000577 0.572137
C77   C     C_R   0.139437 0.640875 0.000578 0.572631
C78   C     C_R   0.359040 0.139326 0.000621 0.577191
C79   C     C_R   0.500000 0.999999 0.401099 0.548226
C80   C     C_R   0.860678 0.359043 0.000621 0.576408
C81   C     C_R   0.640868 0.139437 0.000576 0.571908
C82   C     C_R   0.139446 0.359133 0.000573 0.572384
C83   C     C_R   0.359040 0.860673 0.000621 0.576898
C84   C     C_R   0.860670 0.640950 0.000617 0.576220
C85   C     C_R   0.140866 0.360562 0.500574 0.571821
C86   C     C_R   0.639450 0.140865 0.500573 0.571890
C87   C     C_R   0.859044 0.639331 0.500619 0.577066
C88   C     C_R   0.360697 0.859028 0.500629 0.577021
C89   C     C_R   0.140858 0.639451 0.500570 0.571033
C90   C     C_R   0.499387 0.066102 0.230681 0.391198
C91   C     C_R   0.639440 0.859128 0.500576 0.572740
C92   C     C_R   0.859028 0.360688 0.500628 0.577451
C93   C     C_R   0.360676 0.140954 0.500619 0.576397
C94   C     C_R   0.253558 0.799339 0.973354 -0.041171
C95   C     C_R   0.200903 0.253785 0.973258 -0.039896
C96   C     C_R   0.746264 0.200848 0.973287 -0.040368
C97   C     C_R   0.799189 0.746289 0.973305 -0.040583
C98   C     C_R   0.253697 0.200790 0.973304 -0.040600
C99   C     C_R   0.200757 0.746354 0.973313 -0.040395
C100  C     C_R   0.746210 0.799097 0.973267 -0.039852
C101  C     C_R   0.933910 0.499399 0.230656 0.390981
C102  C     C_R   0.799253 0.253645 0.973330 -0.041029
C103  C     C_R   0.753579 0.299328 0.473351 -0.040955
C104  C     C_R   0.700842 0.753727 0.473280 -0.040199
C105  C     C_R   0.246229 0.700895 0.473272 -0.039932
C106  C     C_R   0.299172 0.246268 0.473299 -0.040822
C107  C     C_R   0.753644 0.700742 0.473322 -0.040868
C108  C     C_R   0.700802 0.246319 0.473298 -0.040025
C109  C     C_R   0.246183 0.299067 0.473256 -0.040054
C110  C     C_R   0.299247 0.753664 0.473329 -0.040865
C111  C     C_R   0.298500 0.809837 0.003827 -0.010823
C112  C     C_R   0.500567 0.933900 0.230678 0.391195
C113  C     C_R   0.190601 0.298826 0.003687 -0.011637
C114  C     C_R   0.701193 0.190576 0.003700 -0.011601
C115  C     C_R   0.809813 0.701477 0.003807 -0.010813
C116  C     C_R   0.298499 0.190160 0.003818 -0.010764
C117  C     C_R   0.190565 0.701204 0.003710 -0.011567
C118  C     C_R   0.701200 0.809436 0.003697 -0.011512
C119  C     C_R   0.809844 0.298497 0.003822 -0.010780
C120  C     C_R   0.798455 0.309895 0.503845 -0.010785
C121  C     C_R   0.690578 0.798808 0.503698 -0.011536
C122  C     C_R   0.201154 0.690629 0.503681 -0.011821
C123  C     C_R   0.066112 0.500600 0.230703 0.391440
C124  C     C_R   0.309834 0.201493 0.503812 -0.010753
C125  C     C_R   0.798513 0.690177 0.503816 -0.010794
C126  C     C_R   0.690611 0.201170 0.503694 -0.011784
C127  C     C_R   0.201184 0.309415 0.503689 -0.011582
C128  C     C_R   0.309916 0.798442 0.503844 -0.010780
C129  C     C_R   0.281272 0.773519 0.037381 0.013635
C130  C     C_R   0.226890 0.281554 0.037238 0.015843
C131  C     C_R   0.718458 0.226880 0.037245 0.015689
C132  C     C_R   0.773626 0.718838 0.037376 0.013540
C133  C     C_R   0.281156 0.226369 0.037388 0.013404
C134  C     C_R   0.000876 0.566098 0.730682 0.391259
C135  C     C_R   0.226962 0.718377 0.037246 0.015723
C136  C     C_R   0.718505 0.773175 0.037249 0.015522
C137  C     C_R   0.773623 0.281173 0.037387 0.013416
C138  C     C_R   0.781167 0.273629 0.537408 0.013138
C139  C     C_R   0.726918 0.781583 0.537242 0.015958
C140  C     C_R   0.218460 0.726885 0.537232 0.015863
C141  C     C_R   0.273678 0.218888 0.537385 0.013579
C142  C     C_R   0.781226 0.726439 0.537378 0.013684
C143  C     C_R   0.726966 0.218379 0.537235 0.015744
C144  C     C_R   0.218513 0.273180 0.537243 0.015738
F1    F     F_    0.239790 0.658746 0.928107 -0.525477
F2    F     F_    0.841657 0.739468 0.428266 -0.526433
F3    F     F_    0.260568 0.841774 0.428285 -0.526694
F4    F     F_    0.158331 0.259764 0.428204 -0.525846
F5    F     F_    0.740012 0.841465 0.428174 -0.525658
F6    F     F_    0.841548 0.260750 0.428240 -0.526475
F7    F     F_    0.260338 0.158127 0.428301 -0.526578
F8    F     F_    0.158504 0.740194 0.428157 -0.525617
F9    F     F_    0.153580 0.744820 0.911671 -0.481929
F10   F     F_    0.255563 0.153729 0.911652 -0.483208
F11   F     F_    0.846449 0.255357 0.911713 -0.482025
F12   F     F_    0.341822 0.239589 0.928322 -0.526760
F13   F     F_    0.744381 0.845979 0.911580 -0.483196
F14   F     F_    0.154063 0.255624 0.911552 -0.482728
F15   F     F_    0.255098 0.846699 0.911760 -0.481570
F16   F     F_    0.846249 0.744449 0.911663 -0.482755
F17   F     F_    0.744561 0.153847 0.911620 -0.481549
F18   F     F_    0.653728 0.244728 0.411636 -0.482386
F19   F     F_    0.755373 0.653560 0.411692 -0.482412
F20   F     F_    0.346415 0.755459 0.411708 -0.482463
F21   F     F_    0.244308 0.345884 0.411556 -0.482432
F22   F     F_    0.653854 0.755438 0.411602 -0.482258
F23   F     F_    0.760548 0.341654 0.928240 -0.526388
F24   F     F_    0.755199 0.346655 0.411751 -0.482288
F25   F     F_    0.346195 0.244373 0.411650 -0.482321
F26   F     F_    0.244470 0.654006 0.411583 -0.482297
F27   F     F_    0.501140 0.869580 0.212193 -0.512981
F28   F     F_    0.130442 0.501184 0.212243 -0.512764
F29   F     F_    0.498811 0.130423 0.212199 -0.512979
F30   F     F_    0.869599 0.498814 0.212149 -0.513158
F31   F     F_    0.998193 0.369588 0.712192 -0.512985
F32   F     F_    0.630093 0.009609 0.712243 -0.512688
F33   F     F_    0.001753 0.630415 0.712200 -0.512893
F34   F     F_    0.658378 0.759858 0.928191 -0.526148
F35   F     F_    0.369949 0.990380 0.712149 -0.513139
F36   F     F_    0.998199 0.369583 0.787761 -0.475820
F37   F     F_    0.630055 0.009610 0.787812 -0.475763
F38   F     F_    0.001760 0.630414 0.787769 -0.475793
F39   F     F_    0.369905 0.990383 0.787718 -0.475900
F40   F     F_    0.501146 0.869575 0.287762 -0.475815
F41   F     F_    0.130403 0.501184 0.287812 -0.475751
F42   F     F_    0.498817 0.130422 0.287768 -0.475813
F43   F     F_    0.869556 0.498815 0.287718 -0.475867
F44   F     F_    0.240198 0.341602 0.928219 -0.525798
F45   F     F_    0.341434 0.760746 0.928199 -0.526064
F46   F     F_    0.760366 0.658202 0.928278 -0.526694
F47   F     F_    0.658539 0.240017 0.928144 -0.525421
F48   F     F_    0.739950 0.158704 0.428121 -0.525581
H1    H     H_    0.377203 0.765919 0.116543 0.376292
H2    H     H_    0.733571 0.887701 0.612830 0.373882
H3    H     H_    0.110658 0.733034 0.612160 0.375339
H4    H     H_    0.266439 0.123700 0.616768 0.375887
H5    H     H_    0.877003 0.733929 0.616591 0.375975
H6    H     H_    0.733439 0.110852 0.612289 0.375444
H7    H     H_    0.112452 0.266833 0.612829 0.375049
H8    H     H_    0.266301 0.874565 0.617333 0.378055
H9    H     H_    0.233328 0.388132 0.112654 0.374663
H10   H     H_    0.612304 0.233403 0.112796 0.375234
H11   H     H_    0.766378 0.622986 0.116544 0.376624
H12   H     H_    0.376241 0.233819 0.116824 0.376553
H13   H     H_    0.233751 0.612220 0.112815 0.374925
H14   H     H_    0.612964 0.766688 0.113028 0.375423
H15   H     H_    0.766248 0.376553 0.116710 0.376901
H16   H     H_    0.875518 0.265973 0.617077 0.376954
O1    O     O_3   0.500000 0.000000 0.000000 -0.519498
O2    O     O_R   0.500000 0.939300 0.418540 -0.485178
O3    O     O_R   0.060700 0.500000 0.418540 -0.485006
O4    O     O_R   0.500000 0.060700 0.418540 -0.485149
O5    O     O_R   0.500000 0.939270 0.081460 -0.514393
O6    O     O_R   0.060730 0.500000 0.081460 -0.517920
O7    O     O_R   0.500000 0.060730 0.081460 -0.514406
O8    O     O_R   0.939270 0.500000 0.081460 -0.511200
O9    O     O_R   0.000000 0.439270 0.581460 -0.514094
O10   O     O_R   0.560730 0.000000 0.581460 -0.518286
O11   O     O_R   0.000000 0.560730 0.581460 -0.515142
O12   O     O_3   0.000000 0.500000 0.000000 -0.519467
O13   O     O_R   0.439270 0.000000 0.581460 -0.510570
O14   O     O_R   0.646180 0.914510 0.978640 -0.491230
O15   O     O_R   0.085490 0.646180 0.978640 -0.490937
O16   O     O_R   0.353820 0.085490 0.978640 -0.490954
O17   O     O_R   0.914510 0.353820 0.978640 -0.491039
O18   O     O_R   0.646180 0.085490 0.978640 -0.491100
O19   O     O_R   0.085490 0.353820 0.978640 -0.491045
O20   O     O_R   0.353820 0.914510 0.978640 -0.490791
O21   O     O_R   0.914510 0.646180 0.978640 -0.491054
O22   O     O_R   0.146180 0.414510 0.478640 -0.491251
O23   O     O_3   0.000000 0.500000 0.500000 -0.519452
O24   O     O_R   0.585490 0.146180 0.478640 -0.490994
O25   O     O_R   0.853820 0.585490 0.478640 -0.490863
O26   O     O_R   0.414510 0.853820 0.478640 -0.491028
O27   O     O_R   0.146180 0.585490 0.478640 -0.491205
O28   O     O_R   0.585490 0.853820 0.478640 -0.490982
O29   O     O_R   0.853820 0.414510 0.478640 -0.490817
O30   O     O_R   0.414510 0.146180 0.478640 -0.491096
O31   O     O_R   0.414550 0.146120 0.021350 -0.509285
O32   O     O_R   0.853880 0.414550 0.021350 -0.510301
O33   O     O_R   0.585450 0.853880 0.021350 -0.512418
O34   O     O_3   0.500000 0.000000 0.500000 -0.519492
O35   O     O_R   0.146120 0.585450 0.021350 -0.511506
O36   O     O_R   0.414550 0.853880 0.021350 -0.509513
O37   O     O_R   0.853880 0.585450 0.021350 -0.510447
O38   O     O_R   0.585450 0.146120 0.021350 -0.512547
O39   O     O_R   0.146120 0.414550 0.021350 -0.511618
O40   O     O_R   0.914550 0.646120 0.521350 -0.509201
O41   O     O_R   0.353880 0.914550 0.521350 -0.509946
O42   O     O_R   0.085450 0.353880 0.521350 -0.512585
O43   O     O_R   0.646120 0.085450 0.521350 -0.511827
O44   O     O_R   0.914550 0.353880 0.521350 -0.509106
O45   O     O_R   0.439300 1.000000 0.918540 -0.485323
O46   O     O_R   0.353880 0.085450 0.521350 -0.510436
O47   O     O_R   0.085450 0.646120 0.521350 -0.512795
O48   O     O_R   0.646120 0.914550 0.521350 -0.511378
O49   O     O_2   0.314213 0.858851 0.082565 -0.477037
O50   O     O_R   0.354881 0.744057 0.093465 -0.585499
O51   O     O_2   0.144928 0.308726 0.084791 -0.475136
O52   O     O_R   0.254461 0.365667 0.089448 -0.578206
O53   O     O_2   0.691028 0.144738 0.084695 -0.475627
O54   O     O_R   0.634762 0.254566 0.089595 -0.578607
O55   O     O_2   0.859105 0.686192 0.082549 -0.477632
O56   O     O_R   0.000000 0.439300 0.918540 -0.485172
O57   O     O_R   0.744432 0.645223 0.093466 -0.585387
O58   O     O_2   0.314325 0.140784 0.082412 -0.477081
O59   O     O_R   0.353979 0.255765 0.093752 -0.586038
O60   O     O_2   0.144888 0.690697 0.084679 -0.475129
O61   O     O_R   0.254868 0.634747 0.089621 -0.578418
O62   O     O_2   0.690852 0.855599 0.084546 -0.475733
O63   O     O_R   0.635386 0.745443 0.089837 -0.578826
O64   O     O_2   0.859172 0.314163 0.082473 -0.477538
O65   O     O_R   0.744304 0.354301 0.093635 -0.585822
O66   O     O_2   0.814873 0.359298 0.582306 -0.476860
O67   O     O_R   0.560700 1.000000 0.918540 -0.485052
O68   O     O_R   0.853236 0.244033 0.594008 -0.586563
O69   O     O_2   0.644785 0.809158 0.584665 -0.475879
O70   O     O_R   0.754719 0.865201 0.589636 -0.578701
O71   O     O_2   0.192102 0.645482 0.585147 -0.474678
O72   O     O_R   0.133087 0.754055 0.588919 -0.577756
O73   O     O_2   0.359317 0.185956 0.582437 -0.478357
O74   O     O_R   0.244452 0.145909 0.593693 -0.586288
O75   O     O_2   0.814129 0.641027 0.582527 -0.477228
O76   O     O_R   0.854703 0.755825 0.593517 -0.585772
O77   O     O_2   0.645479 0.191580 0.585044 -0.473896
O78   O     O_R   0.000000 0.560700 0.918540 -0.485142
O79   O     O_R   0.754441 0.133358 0.589063 -0.577609
O80   O     O_2   0.191209 0.355402 0.584678 -0.475996
O81   O     O_R   0.134863 0.245623 0.589628 -0.578805
O82   O     O_2   0.359668 0.814936 0.582180 -0.476988
O83   O     O_R   0.244270 0.852369 0.594265 -0.587114
O84   O     O_R   0.939300 0.500000 0.418540 -0.485281
Zn1   Zn    Zn3+2 0.500000 0.913220 0.030510 1.057669
Zn2   Zn    Zn3+2 0.000000 0.586770 0.969480 1.111847
Zn3   Zn    Zn3+2 0.413230 1.000000 0.969480 1.113171
Zn4   Zn    Zn3+2 0.000000 0.413230 0.969480 1.111763
Zn5   Zn    Zn3+2 0.086770 0.500000 0.469480 1.110183
Zn6   Zn    Zn3+2 0.500000 0.086770 0.469480 1.111638
Zn7   Zn    Zn3+2 0.913230 0.500000 0.469480 1.113359
Zn8   Zn    Zn3+2 0.500000 0.913230 0.469480 1.112027
Zn9   Zn    Zn3+2 0.086780 0.500000 0.030510 1.055521
Zn10  Zn    Zn3+2 0.500000 0.086780 0.030510 1.057707
Zn11  Zn    Zn3+2 0.913220 0.500000 0.030510 1.059474
Zn12  Zn    Zn3+2 0.000000 0.413220 0.530510 1.057706
Zn13  Zn    Zn3+2 0.586780 0.000000 0.530510 1.055361
Zn14  Zn    Zn3+2 0.000000 0.586780 0.530510 1.057106
Zn15  Zn    Zn3+2 0.413220 0.000000 0.530510 1.059937
Zn16  Zn    Zn3+2 0.586770 1.000000 0.969480 1.110500

loop_
_geom_bond_atom_site_label_1
_geom_bond_atom_site_label_2
_ccdc_geom_bond_type
C20   F26   S    
C105  C110  A    
C96   C102  A    
C48   O76   S    
C33   C58   S    
O8    Zn11  S    
C20   C105  S    
C22   F37   S    
H4    O74   S    
C138  C143  A    
C139  C142  A    
C39   O59   S    
O18   Zn16  S    
C29   C33   A    
C94   C111  A    
O27   Zn5   S    
C36   O51   D    
C14   F19   S    
O67   Zn16  S    
C77   O15   A    
C80   O17   A    
C97   C115  A    
H7    O81   S    
C6    F11   S    
C83   O20   A    
O23   Zn14  S    
C4    F9    S    
C42   C137  S    
C96   C114  A    
C9    F45   S    
O3    Zn5   S    
C16   C109  S    
C79   O4    A    
C12   F48   S    
C40   C135  S    
C28   C32   A    
C23   F38   S    
C81   O18   A    
C141  C144  A    
C6    C11   S    
O23   Zn5   S    
C93   O46   A    
C43   O68   S    
C83   O36   A    
C76   C118  S    
C34   O49   D    
C51   O83   S    
C47   O74   S    
C36   C130  S    
O31   Zn10  S    
H1    O50   S    
O1    Zn3   S    
C13   C21   A    
C14   C107  S    
C44   C139  S    
C73   O6    A    
C120  C138  A    
C24   F32   S    
C10   F16   S    
C118  C136  A    
C82   O19   A    
C86   O43   A    
C13   F31   S    
O7    Zn10  S    
O40   Zn14  S    
C18   F24   S    
O25   Zn7   S    
C46   C60   S    
C70   C79   S    
O26   Zn8   S    
C17   C104  S    
O1    Zn16  S    
C2    C53   A    
C5    C8    S    
C7    F13   S    
O12   Zn9   S    
C47   C141  S    
C59   C63   T    
C87   O25   A    
C60   C64   T    
C52   C61   S    
C76   O33   A    
H9    O52   S    
O42   Zn12  S    
H8    O83   S    
C6    C102  S    
C134  F33   S    
C42   O64   D    
O36   Zn1   S    
C19   C106  S    
C61   C65   T    
H16   O68   S    
C72   O7    A    
C106  C124  A    
O84   Zn7   S    
O9    Zn12  S    
C108  C126  A    
C18   F6    S    
C104  C107  A    
C102  C119  A    
C78   O16   A    
C25   C31   A    
C79   O2    A    
C57   O56   A    
C26   C32   A    
C86   C126  S    
C52   C134  A    
C126  C143  A    
C43   O66   D    
C27   C33   A    
C30   C54   S    
C17   F22   S    
O28   Zn8   S    
C112  F27   S    
C89   C122  S    
O78   Zn2   S    
C27   F41   S    
C37   O54   S    
C129  C135  A    
C44   O70   S    
C45   O71   D    
C81   C114  S    
C19   F7    S    
C64   C73   S    
C73   O8    A    
O44   Zn12  S    
C125  C142  A    
C123  F28   S    
C132  C136  A    
C127  C144  A    
O6    Zn9   S    
O34   Zn13  S    
C80   C119  S    
O35   Zn9   S    
O39   Zn9   S    
C14   C17   S    
C8    C95   S    
C50   C144  S    
C115  C132  A    
C92   O44   A    
O12   Zn11  S    
C46   C101  A    
C113  C130  A    
C62   C66   T    
C41   O62   D    
C107  C125  A    
C3    C128  A    
C65   C74   S    
C37   C131  S    
C38   C132  S    
C10   C97   S    
C28   F42   S    
C99   C117  A    
O12   Zn4   S    
C16   F21   S    
O43   Zn13  S    
C50   O81   S    
C55   C69   T    
H2    O70   S    
C124  C141  A    
O11   Zn14  S    
C97   C100  A    
O24   Zn6   S    
C23   C134  A    
C77   O35   A    
C81   O38   A    
C78   C116  S    
C82   C113  S    
C68   C71   S    
O17   Zn4   S    
C86   O24   A    
C89   O27   A    
O22   Zn5   S    
C92   C120  S    
C122  C140  A    
C54   C67   T    
C38   O55   D    
C116  C133  A    
C4    F1    S    
C105  C122  A    
C41   O63   S    
C11   F47   S    
C36   O52   S    
O21   Zn2   S    
O2    Zn8   S    
C12   F18   S    
C91   C121  S    
C4    C99   S    
C110  C128  A    
C4    C9    S    
C9    C94   S    
C35   C112  A    
C88   O41   A    
C106  C109  A    
C11   C96   S    
C7    C10   S    
C78   O31   A    
C114  C131  A    
C103  C120  A    
C8    F14   S    
O41   Zn15  S    
O14   Zn16  S    
C8    F44   S    
C38   O57   S    
O4    Zn6   S    
O33   Zn1   S    
C58   C71   T    
C5    F10   S    
H10   O54   S    
C11   F17   S    
C34   O50   S    
C43   C138  S    
C35   C59   S    
O19   Zn4   S    
C47   O73   D    
C111  C129  A    
C34   C129  S    
O37   Zn11  S    
H14   O63   S    
C15   C110  S    
C15   C20   S    
C48   O75   D    
C1    O45   A    
C95   C98   A    
C7    C100  S    
C15   F20   S    
C3    C51   S    
C24   C53   A    
C45   C140  S    
C1    C69   S    
C29   F43   S    
C7    F34   S    
C131  C137  A    
C13   C52   A    
O16   Zn3   S    
C29   C101  A    
C84   O21   A    
C40   O60   D    
C68   O84   A    
C22   C24   A    
C46   C123  A    
C130  C133  A    
C100  C118  A    
C26   C112  A    
C12   C108  S    
H6    O79   S    
C39   C133  S    
H12   O59   S    
C50   O80   D    
H3    O72   S    
C85   O22   A    
O12   Zn2   S    
O48   Zn13  S    
C5    F12   S    
C88   O26   A    
C21   C30   A    
C15   F3    S    
C121  C139  A    
C16   C19   S    
C66   C75   S    
C49   C143  S    
C109  C127  A    
C2    C25   A    
C18   C103  S    
C37   O53   D    
C35   C90   A    
C20   F8    S    
C63   C72   S    
O38   Zn10  S    
O34   Zn15  S    
C28   C90   A    
O56   Zn4   S    
C31   C55   S    
C32   C56   S    
O29   Zn7   S    
C93   C124  S    
O13   Zn15  S    
C39   O58   D    
C87   O40   A    
H15   O65   S    
C40   O61   S    
O34   Zn8   S    
C90   F29   S    
C49   O77   D    
C10   F46   S    
C82   O39   A    
O20   Zn3   S    
O45   Zn3   S    
C77   C117  S    
C117  C135  A    
C91   O48   A    
C9    F15   S    
O15   Zn2   S    
O47   Zn14  S    
C21   F36   S    
C74   O11   A    
C103  C108  A    
O5    Zn1   S    
C85   O42   A    
C42   O65   S    
C101  F30   S    
C57   C67   S    
O23   Zn12  S    
H13   O61   S    
C92   O29   A    
C22   C31   A    
C119  C137  A    
C23   C30   A    
C51   O82   D    
H11   O57   S    
C27   C123  A    
C104  C121  A    
C75   O10   A    
C76   O14   A    
C91   O28   A    
C84   O37   A    
C53   C62   S    
C98   C116  A    
C44   O69   D    
C93   O30   A    
C45   O72   S    
C48   C142  S    
O46   Zn15  S    
O30   Zn6   S    
C84   C115  S    
C56   C70   T    
C85   C127  S    
C2    F35   S    
C87   C125  S    
O34   Zn6   S    
C6    F23   S    
C49   O79   S    
C17   F5    S    
C19   F25   S    
C57   O78   A    
C72   O5    A    
C14   F2    S    
C16   F4    S    
O1    Zn10  S    
C80   O32   A    
O10   Zn13  S    
C88   C128  S    
O23   Zn7   S    
C94   C99   A    
C95   C113  A    
C74   O9    A    
C83   C111  S    
C1    O67   A    
H5    O76   S    
O32   Zn11  S    
C5    C98   S    
C75   O13   A    
C89   O47   A    
C12   C18   S    
O1    Zn1   S    
C3    C140  A    
C68   O3    A    
C41   C136  S    
C25   F39   S    
C26   F40   S    
