data_mof_unit_33254.cif
_audit_creation_date              2012-12-11T20:26:35-0500
_audit_creation_method            fapswitch 2.2
_symmetry_space_group_name_H-M    P1
_symmetry_Int_Tables_number       1
_space_group_crystal_system       triclinic
_cell_length_a                    8.2895
_cell_length_b                    17.277113
_cell_length_c                    18.807776
_cell_angle_alpha                 102.806497
_cell_angle_beta                  91.916426
_cell_angle_gamma                 98.26004
_cell_volume                      2593.41441616

loop_
_atom_site_label
_atom_site_type_symbol
_atom_type_description
_atom_site_fract_x
_atom_site_fract_y
_atom_site_fract_z
_atom_type_partial_charge
Ba1   Ba    Ba6+2 0.853800 0.535410 0.467450 1.740198
Ba2   Ba    Ba6+2 0.336030 0.464660 0.532560 1.710077
C1    C     C_3   0.692632 0.814149 0.283263 -0.358445
C2    C     C_R   0.910353 0.402582 0.085570 0.384297
C3    C     C_R   0.765331 0.440471 0.950139 -0.021617
C4    C     C_3   0.106495 0.697336 0.278756 0.375947
C5    C     C_R   0.932564 0.459430 0.972774 0.034655
C6    C     C_R   0.709360 0.437374 0.878720 -0.076502
C7    C     C_R   0.817161 0.459010 0.827862 -0.041374
C8    C     C_R   0.980527 0.491426 0.852499 -0.006965
C9    C     C_R   0.038100 0.492862 0.925802 0.026087
C10   C     C_R   0.765469 0.452090 0.753995 -0.011491
C11   C     C_R   0.874998 0.478207 0.705617 -0.296296
C12   C     C_3   0.645077 0.735392 0.306214 0.340819
C13   C     C_R   0.031895 0.519000 0.730185 0.037796
C14   C     C_R   0.084910 0.524845 0.804932 -0.066164
C15   C     C_R   0.151897 0.494760 0.070772 0.003005
C16   C     C_3   0.090371 0.725220 0.207966 -0.356166
C17   C     C_R   0.208025 0.498786 0.144527 0.034001
C18   C     C_R   0.106766 0.461451 0.190690 -0.061709
C19   C     C_R   0.961469 0.411956 0.159245 0.023559
C20   C     C_R   0.238976 0.564130 0.834437 0.040993
C21   C     C_R   0.296267 0.565823 0.904824 -0.084454
C22   C     C_R   0.199447 0.529145 0.951894 0.011189
C23   C     C_3   0.420165 0.282815 0.298842 0.246266
C24   C     C_R   0.256375 0.530867 0.024689 0.052405
C25   C     C_R   0.417164 0.565605 0.052473 -0.094212
C26   C     C_R   0.368614 0.537051 0.171048 0.019195
C27   C     C_R   0.471492 0.568256 0.123444 -0.079201
C28   C     C_3   0.212761 0.751348 0.719791 0.958833
C29   C     C_R   0.423806 0.541066 0.243847 0.007836
C30   C     C_R   0.317876 0.509695 0.290246 -0.263522
C31   C     C_R   0.161383 0.468886 0.265073 0.070246
C32   C     C_2   0.464018 0.716710 0.467184 -0.169175
C33   C     C_3   0.373034 0.767433 0.428784 -0.073384
C34   C     C_3   0.440126 0.239157 0.220268 0.217403
C35   C     C_2   0.428704 0.856212 0.454988 -0.053361
C36   C     C_2   0.562415 0.884370 0.501838 0.039053
C37   C     C_2   0.648260 0.826964 0.531260 -0.072413
C38   C     C_1   0.586957 0.749845 0.516935 0.162511
C39   C     C_R   0.789772 0.144435 0.553300 -0.130214
C40   C     C_3   0.100662 0.815041 0.742137 -0.221140
C41   C     C_R   0.857916 0.223385 0.554419 0.013995
C42   C     C_R   0.612394 0.242676 0.492026 0.054390
C43   C     C_R   0.543950 0.163394 0.489563 -0.127873
C44   C     C_R   0.630873 0.113799 0.520874 -0.002724
C45   C     C_3   0.071068 0.305993 0.725393 0.323330
C46   C     C_2   0.638253 0.969844 0.518422 -0.065607
C47   C     C_2   0.553513 0.029781 0.514953 -0.067384
C48   C     C_R   0.766577 0.273223 0.526601 -0.278510
C49   C     C_3   0.947134 0.290249 0.370734 0.304034
C50   C     C_3   0.904352 0.199136 0.349092 -0.363747
C51   C     C_3   0.728780 0.641341 0.688693 0.376778
C52   C     C_3   0.778917 0.662998 0.770984 -0.314956
C53   C     C_3   0.087957 0.283941 0.798940 -0.297139
C54   C     C_3   0.532793 0.258970 0.685505 0.346837
C55   C     C_3   0.496678 0.180617 0.710298 -0.316749
C56   C     C_R   0.994309 0.452606 0.042900 -0.078589
H1    H     H_    0.691858 0.743654 0.363886 0.042669
H2    H     H_    0.772563 0.727024 0.795569 0.196679
H3    H     H_    0.904710 0.653251 0.782560 0.090058
H4    H     H_    0.697867 0.624569 0.799534 0.091813
H5    H     H_    0.509951 0.721071 0.300939 -0.063407
H6    H     H_    0.635039 0.862006 0.318016 0.064093
H7    H     H_    0.293320 0.264874 0.312980 0.044187
H8    H     H_    0.446573 0.348940 0.304308 0.014899
H9    H     H_    0.566677 0.256893 0.205590 0.094179
H10   H     H_    0.650260 0.807441 0.225257 0.117905
H11   H     H_    0.123342 0.679136 0.161808 0.064506
H12   H     H_    0.005198 0.810167 0.697757 0.112780
H13   H     H_    0.144007 0.366077 0.729158 0.079860
H14   H     H_    0.218408 0.284080 0.814428 0.160144
H15   H     H_    0.018289 0.223279 0.796013 0.140808
H16   H     H_    0.666781 0.272446 0.681621 -0.065919
H17   H     H_    0.468993 0.251117 0.630950 0.077756
H18   H     H_    0.558600 0.187332 0.765099 0.146876
H19   H     H_    0.542029 0.131750 0.671138 0.082648
H20   H     H_    0.363017 0.164006 0.713222 0.155781
H21   H     H_    0.832913 0.472426 0.649357 0.062529
H22   H     H_    0.580003 0.418924 0.864649 0.118573
H23   H     H_    0.045615 0.306347 0.415145 0.065112
H24   H     H_    0.891855 0.374902 0.190304 0.147924
H25   H     H_    0.321557 0.592958 0.803264 0.174143
H26   H     H_    0.596722 0.594918 0.139789 0.104062
H27   H     H_    0.361098 0.513651 0.346057 0.060797
H28   H     H_    0.418047 0.597688 0.920276 0.071889
H29   H     H_    0.234545 0.686792 0.285573 -0.111395
H30   H     H_    0.507220 0.590671 0.020612 0.063008
H31   H     H_    0.422053 0.016388 0.503266 0.089051
H32   H     H_    0.761046 0.849302 0.565393 0.084369
H33   H     H_    0.861676 0.108184 0.577341 0.079890
H34   H     H_    0.804096 0.181159 0.305260 0.147372
H35   H     H_    0.769119 0.982135 0.531143 0.077358
H36   H     H_    0.370104 0.895590 0.428521 0.050771
H37   H     H_    0.425745 0.139467 0.460712 0.086600
H38   H     H_    0.820268 0.334080 0.526510 0.058033
H39   H     H_    0.963152 0.734431 0.196844 0.149984
H40   H     H_    0.173961 0.782529 0.211839 0.113128
H41   H     H_    0.037346 0.806629 0.791583 0.105611
H42   H     H_    0.171100 0.876810 0.754328 0.137832
H43   H     H_    0.838579 0.316328 0.390771 0.023935
H44   H     H_    0.419837 0.173265 0.216049 0.019425
H45   H     H_    0.864555 0.175286 0.396784 0.056262
H46   H     H_    0.092172 0.186211 0.184199 0.328315
H47   H     H_    0.940021 0.308404 0.713548 -0.061277
H48   H     H_    0.038839 0.327962 0.841662 0.098641
H49   H     H_    0.024042 0.639454 0.273563 0.082714
H50   H     H_    0.674927 0.429894 0.987982 0.141355
H51   H     H_    0.708238 0.197806 0.074087 0.375281
H52   H     H_    0.433525 0.651963 0.449025 0.063040
H53   H     H_    0.319162 0.747052 0.909248 0.359158
H54   H     H_    0.204046 0.678580 0.555658 0.343040
H55   H     H_    0.013034 0.172458 0.328837 0.105625
H56   H     H_    0.823548 0.611949 0.658257 -0.019594
H57   H     H_    0.614458 0.597514 0.678881 0.080007
H58   H     H_    0.827252 0.832242 0.289782 0.148303
O1    O     O_2   0.871520 0.445720 0.321500 -0.464295
O2    O     O_2   0.187108 0.220394 0.532449 -0.492243
O3    O     O_3   0.129788 0.248417 0.671700 -0.588941
O4    O     O_3   0.121030 0.451930 0.411150 -0.503239
O5    O     O_3   0.581210 0.598010 0.542960 -0.483418
O6    O     O_2   0.335820 0.303580 0.452320 -0.477083
O7    O     O_3   0.532629 0.258208 0.343057 -0.683937
O8    O     O_2   0.438603 0.469269 0.754834 -0.513250
O9    O     O_3   0.475344 0.319899 0.735986 -0.588042
O10   O     O_3   0.662190 0.593100 0.375060 -0.497419
O11   O     O_2   0.753163 0.525930 0.244576 -0.489336
O12   O     O_3   0.704160 0.710482 0.664464 -0.545556
O13   O     O_3   0.998071 0.317869 0.309329 -0.592319
O14   O     O_3   0.714172 0.674629 0.260984 -0.609297
O15   O     O_2   0.853880 0.696450 0.547730 -0.484407
O16   O     O_3   0.085100 0.636210 0.413950 -0.500603
O17   O     O_2   0.053071 0.785165 0.479951 -0.429179
O18   O     O_2   0.343409 0.347081 0.152832 -0.278969
O19   O     O_2   0.315743 0.208605 0.081612 -0.204971
O20   O     O_3   0.108085 0.242761 0.179579 -0.468613
O21   O     O_2   0.598989 0.329713 0.055237 -0.253795
O22   O     O_2   0.797586 0.282494 0.967878 -0.275486
O23   O     O_3   0.063881 0.755481 0.337509 -0.597576
O24   O     O_3   0.800094 0.242051 0.092387 -0.468867
O25   O     O_2   0.470513 0.705895 0.779411 -0.354266
O26   O     O_2   0.433459 0.845260 0.823115 -0.254683
O27   O     O_3   0.238525 0.736623 0.866852 -0.585550
O28   O     O_2   0.236836 0.830472 0.610166 -0.353580
O29   O     O_2   0.490341 0.812585 0.668775 -0.269969
O30   O     O_3   0.310785 0.686622 0.583573 -0.587084
O31   O     O_2   0.318180 0.554310 0.678550 -0.458974
O32   O     O_3   0.068680 0.548140 0.588860 -0.471476
O33   O     O_3   0.527520 0.406960 0.624950 -0.484475
O34   O     O_3   0.106862 0.677212 0.699076 -0.702833
O35   O     O_3   0.608500 0.402060 0.457050 -0.473261
O36   O     O_3   0.104610 0.363860 0.586060 -0.493975
P1    P     P_3+3 0.038810 0.422920 0.331160 1.007406
P2    P     P_3+3 0.678260 0.686080 0.568600 1.118746
P3    P     P_3+3 0.144711 0.737867 0.418553 1.002745
P4    P     P_3+3 0.150900 0.577150 0.668860 1.078490
P5    P     P_3+3 0.071184 0.262146 0.585723 0.955112
P6    P     P_3+3 0.636432 0.582673 0.280826 0.944313
P7    P     P_3+3 0.519899 0.300543 0.435875 0.946137
P8    P     P_3+3 0.553280 0.412529 0.717844 0.932969
S1    S     S_3+6 0.300931 0.260621 0.155819 -0.041690
S2    S     S_3+6 0.771298 0.313323 0.047215 -0.036437
S3    S     S_3+6 0.346723 0.760230 0.798540 -0.078090
S4    S     S_3+6 0.317655 0.773876 0.644467 -0.082573

loop_
_geom_bond_atom_site_label_1
_geom_bond_atom_site_label_2
_ccdc_geom_bond_type
C11   H21   S    
C50   H45   S    
C25   C27   A    
O19   S1    D    
C1    H10   S    
C28   S4    S    
Ba1   O16   S    
C49   O13   S    
C34   H9    S    
C52   H2    S    
C51   C52   S    
C42   C43   A    
C5    C9    A    
C12   H1    S    
C44   C47   S    
C24   C25   A    
H51   O24   S    
C32   C38   D    
C15   C24   A    
C55   H18   S    
C26   C27   A    
C33   C35   S    
C33   P3    S    
Ba1   Ba2   S    
C1    H58   S    
C36   C37   S    
C31   P1    S    
C28   O34   S    
C12   H5    S    
Ba2   O32   S    
C13   C14   A    
C9    C22   A    
C40   H12   S    
O16   P3    S    
C54   C55   S    
C34   H44   S    
C32   C33   S    
C4    O23   S    
C17   C18   A    
C6    C7    A    
C45   H47   S    
C21   H28   S    
Ba2   P4    S    
C39   C44   A    
C16   H39   S    
O3    P5    S    
H46   O20   S    
C7    C8    A    
C49   H23   S    
C5    C56   A    
C36   C46   S    
C53   H14   S    
O12   P2    S    
C15   C56   A    
C16   H11   S    
O10   P6    S    
C4    H49   S    
C54   H17   S    
O34   P4    S    
O28   S4    D    
C39   C41   A    
C38   P2    S    
Ba1   P2    S    
C28   S3    S    
O27   S3    S    
O33   P8    S    
O20   S1    S    
Ba2   O6    S    
Ba2   O36   S    
C4    C16   S    
O9    P8    S    
C54   H16   S    
C46   H35   S    
C53   H48   S    
C49   C50   S    
C55   H19   S    
C23   H7    S    
Ba1   O10   S    
C27   H26   S    
O5    P2    S    
C47   H31   S    
C37   C38   D    
C3    C5    A    
Ba2   O4    S    
C52   H4    S    
Ba1   O15   S    
Ba2   O31   S    
C50   H55   S    
O30   S4    S    
C4    H29   S    
Ba1   O4    S    
O35   P7    S    
C35   C36   D    
O31   P4    D    
C51   O12   S    
C40   H42   S    
C29   C30   A    
O23   P3    S    
O6    P7    D    
C21   C22   A    
O22   S2    D    
Ba1   O1    S    
C54   O9    S    
C10   P8    S    
Ba1   P1    S    
C17   C26   A    
C23   O7    S    
O11   P6    D    
C45   H13   S    
C13   P4    S    
C1    C12   S    
O15   P2    D    
C18   C31   A    
C46   C47   D    
C39   H33   S    
O25   S3    D    
C11   C13   A    
O1    P1    D    
C34   S1    S    
C32   H52   S    
C2    S2    S    
C50   H34   S    
C43   H37   S    
O26   S3    D    
C51   H56   S    
C45   C53   S    
C12   O14   S    
Ba2   O5    S    
C42   C48   A    
Ba2   O35   S    
O36   P5    S    
C14   C20   A    
C37   H32   S    
O17   P3    D    
C55   H20   S    
C26   C29   A    
C23   H8    S    
C22   C24   A    
C41   P5    S    
C52   H3    S    
C3    C6    A    
C41   C48   A    
O29   S4    D    
H53   O27   S    
C49   H43   S    
O32   P4    S    
O18   S1    D    
O14   P6    S    
C20   H25   S    
O2    P5    D    
C8    C14   A    
C40   H41   S    
C30   C31   A    
O13   P1    S    
C2    C19   A    
C48   H38   S    
O21   S2    D    
O7    P7    S    
Ba2   O33   S    
C30   H27   S    
O8    P8    D    
C45   O3    S    
O4    P1    S    
C15   C17   A    
H54   O30   S    
C35   H36   S    
Ba1   O35   S    
C1    H6    S    
C25   H30   S    
C7    C10   A    
Ba1   O5    S    
C29   P6    S    
C8    C9    A    
C23   C34   S    
C53   H15   S    
C43   C44   A    
C18   C19   A    
C19   H24   S    
C2    C56   A    
C6    H22   S    
C42   P7    S    
C20   C21   A    
C28   C40   S    
Ba1   O32   S    
C16   H40   S    
C10   C11   A    
O24   S2    S    
C51   H57   S    
C3    H50   S    
