data_mof_unit_51947.cif
_audit_creation_date              2013-03-05T16:31:29-0500
_audit_creation_method            fapswitch 2.2
_symmetry_space_group_name_H-M    P1
_symmetry_Int_Tables_number       1
_space_group_crystal_system       triclinic
_cell_length_a                    15.034082
_cell_length_b                    10.921305
_cell_length_c                    9.565006
_cell_angle_alpha                 89.52663
_cell_angle_beta                  90.211822
_cell_angle_gamma                 89.463514
_cell_volume                      1570.36187373

loop_
_atom_site_label
_atom_site_type_symbol
_atom_site_description
_atom_site_fract_x
_atom_site_fract_y
_atom_site_fract_z
_atom_type_partial_charge
O1    O     O_R   0.500000 0.319640 0.618810 -0.569880
O2    O     O_R   0.500010 0.319680 0.381230 -0.524811
C1    C     C_R   0.503811 0.262721 0.499766 0.834586
O3    O     O_R   0.370250 0.499950 0.618800 -0.567953
O4    O     O_R   0.370260 0.499990 0.381220 -0.584857
C2    C     C_R   0.329157 0.498032 0.499754 0.825578
Cu1   Cu    Cu3+1 0.500000 0.499980 0.640670 1.019901
Cu2   Cu    Cu3+1 0.500000 0.500020 0.359330 0.998141
O5    O     O_R   0.499990 0.680320 0.618770 -0.560647
O6    O     O_R   0.500000 0.680360 0.381190 -0.607868
O7    O     O_R   0.629740 0.500010 0.618780 -0.578694
O8    O     O_R   0.629750 0.500050 0.381200 -0.597466
C3    C     C_R   0.502827 0.737051 0.498501 0.903995
C4    C     C_R   0.671000 0.502611 0.500097 0.865641
C5    C     C_R   0.814332 0.595012 0.575804 0.289260
C6    C     C_R   0.767567 0.506438 0.499287 -0.167664
C7    C     C_R   0.812681 0.420232 0.418796 -0.286521
C8    C     C_R   0.905111 0.417974 0.415341 0.074217
C9    C     C_R   0.953563 0.502963 0.493562 0.024241
C10   C     C_R   0.908233 0.593551 0.572757 0.011664
C11   C     C_R   0.949033 0.334226 0.330232 -0.174986
C12   C     C_R   0.041995 0.330126 0.322997 0.147532
C13   C     C_R   0.093151 0.406898 0.412689 0.080993
C14   C     C_R   0.047310 0.498438 0.491263 0.012990
C15   C     C_R   0.094915 0.586546 0.567771 0.116288
C16   C     C_R   0.050204 0.678365 0.641114 -0.189896
C17   C     C_R   0.957999 0.682486 0.642952 -0.139338
C18   C     C_R   0.187527 0.398201 0.427594 0.093881
C19   C     C_R   0.232779 0.492237 0.498578 -0.059527
C20   C     C_R   0.186903 0.584254 0.567818 -0.260851
H1    H     H_    0.775252 0.353708 0.359533 0.173756
H2    H     H_    0.910091 0.273730 0.265165 0.157961
H3    H     H_    0.223513 0.654308 0.622851 0.193404
H4    H     H_    0.086784 0.747631 0.697311 0.176166
H5    H     H_    0.926763 0.756750 0.698905 0.208085
C21   C     C_R   0.499572 0.059801 0.615098 -0.051936
C22   C     C_R   0.511059 0.129834 0.495793 -0.224773
C23   C     C_R   0.528138 0.065883 0.369378 0.362332
C24   C     C_R   0.529808 0.935940 0.367405 0.042771
C25   C     C_R   0.508728 0.869472 0.492626 -0.089430
C26   C     C_R   0.494762 0.936588 0.612774 -0.033412
C27   C     C_3   0.478978 0.924727 0.766891 0.124047
C28   C     C_3   0.485892 0.066599 0.769238 0.360740
H6    H     H_    0.533484 0.873981 0.821886 0.109304
C29   C     C_R   0.562962 0.436947 0.074641 0.406038
N1    N     N_R   0.500570 0.500930 0.147930 -0.212017
C30   C     C_R   0.433783 0.557690 0.073395 -0.059115
H7    H     H_    0.381310 0.605567 0.128108 0.163566
C31   C     C_R   0.433755 0.557589 0.924682 0.005002
H8    H     H_    0.381163 0.605153 0.868447 0.181004
N2    N     N_R   0.500570 0.500890 0.852020 -0.199175
C32   C     C_R   0.562846 0.436902 0.927498 0.252332
C33   C     C_3   0.660787 0.455171 0.921853 -0.509585
C34   C     C_3   0.661067 0.456140 0.079988 -0.491605
H9    H     H_    0.696457 0.374978 0.877270 0.208393
H10   H     H_    0.678344 0.544977 0.875568 0.272958
H11   H     H_    0.697433 0.376739 0.126566 0.234847
H12   H     H_    0.679252 0.546685 0.123525 0.219850
N3    N     N_R   0.766447 0.688994 0.649454 0.101552
O9    O     O_R   0.708665 0.757787 0.583576 -0.400485
O10   O     O_R   0.780038 0.705930 0.782275 -0.399094
C35   C     C_3   0.556257 0.871727 0.233105 -0.682413
H13   H     H_    0.497661 0.826068 0.186499 0.248403
H14   H     H_    0.582787 0.934024 0.151852 0.240038
H15   H     H_    0.610371 0.804196 0.254715 0.231469
N4    N     N_R   0.390685 0.878633 0.802573 0.163787
O11   O     O_R   0.337949 0.834939 0.707354 -0.371646
O12   O     O_R   0.366537 0.874786 0.932950 -0.349754
N5    N     N_R   0.403357 0.132942 0.804943 0.200852
O13   O     O_R   0.403693 0.217553 0.899869 -0.301485
O14   O     O_R   0.331317 0.117870 0.731253 -0.320331
C36   C     C_3   0.569608 0.110813 0.845389 -0.806198
H16   H     H_    0.630170 0.063948 0.805130 0.213738
H17   H     H_    0.577982 0.210348 0.829819 0.251565
H18   H     H_    0.564673 0.089665 0.958104 0.288173
C37   C     C_3   0.081269 0.254980 0.205934 -0.791865
H19   H     H_    0.131410 0.309156 0.148072 0.246965
H20   H     H_    0.109668 0.167513 0.245864 0.243427
H21   H     H_    0.029971 0.230125 0.127426 0.231009
C38   C     C_3   0.239118 0.282841 0.390474 -0.725442
H22   H     H_    0.302524 0.274027 0.449497 0.226525
H23   H     H_    0.201177 0.200640 0.422062 0.240762
H24   H     H_    0.255987 0.281836 0.277815 0.249912
N6    N     N_R   0.542596 0.131681 0.241990 0.108635
O15   O     O_R   0.621867 0.169502 0.210512 -0.426411
O16   O     O_R   0.475209 0.160444 0.162338 -0.321145

loop_
_geom_bond_atom_site_label_1
_geom_bond_atom_site_label_2
_geom_bond_distance
_ccdc_geom_bond_type
N4    O12   1.300573 A    
C28   C36   1.535628 S    
C8    C11   1.392945 A    
C26   C27   1.498725 S    
C9    C10   1.421481 A    
C37   H21   1.111462 S    
C12   C37   1.512253 S    
Cu1   Cu2   2.691015 S    
C30   C31   1.422450 A    
C33   C34   1.512673 S    
Cu1   O7    1.962498 S    
C16   C17   1.386711 A    
C19   C20   1.387668 A    
C18   C19   1.414120 A    
C22   C23   1.424324 A    
N6    O16   1.299952 A    
C36   H18   1.103631 S    
O4    C2    1.293358 A    
O7    C4    1.295867 A    
C5    C6    1.409379 A    
C8    C9    1.404289 A    
N5    O14   1.302499 A    
O5    C3    1.303126 A    
C3    C25   1.450404 S    
C35   H14   1.106624 S    
N6    O15   1.300540 A    
C16   H4    1.084406 S    
C6    C7    1.393923 A    
C31   N2    1.369723 A    
C13   C14   1.429208 A    
C20   H3    1.085249 S    
N4    O11   1.301827 A    
N3    O9    1.300795 A    
C28   N5    1.473660 S    
C11   C12   1.399880 A    
C21   C26   1.348621 A    
C27   H6    1.113024 S    
C38   H24   1.108058 S    
C33   H9    1.111552 S    
C5    C10   1.412068 A    
C11   H2    1.085342 S    
N3    O10   1.301011 A    
N2    C32   1.364025 A    
C14   C15   1.412210 A    
C36   H17   1.104415 S    
C24   C25   1.433430 A    
C36   H16   1.111930 S    
C29   C32   1.407423 A    
C17   H5    1.080133 S    
C15   C16   1.397162 A    
C29   N1    1.363905 A    
O1    C1    1.302973 A    
C35   H13   1.110153 S    
C30   H7    1.081413 S    
Cu2   O8    1.961091 S    
C7    C8    1.390103 A    
C13   C18   1.427676 A    
C37   H19   1.109350 S    
O3    C2    1.293880 A    
C25   C26   1.383792 A    
O8    C4    1.293966 A    
C29   C34   1.492431 S    
C7    H1    1.085320 S    
C4    C6    1.452845 S    
C27   C28   1.554232 S    
C32   C33   1.488872 S    
C34   H12   1.112232 S    
C33   H10   1.107330 S    
C15   C20   1.382946 A    
Cu1   O5    1.978932 S    
C24   C35   1.521020 S    
N1    C30   1.369838 A    
C21   C22   1.380780 A    
C35   H15   1.110654 S    
C23   N6    1.427832 S    
O1    Cu1   1.982333 S    
C5    N3    1.438712 S    
O2    Cu2   1.978932 S    
C37   H20   1.107160 S    
C38   H22   1.109088 S    
O6    C3    1.286784 A    
O4    Cu2   1.962501 S    
C10   C17   1.405221 A    
O2    C1    1.289548 A    
Cu1   N2    2.021657 S    
C23   C24   1.419419 A    
C38   H23   1.108595 S    
C9    C14   1.410061 A    
N5    O13   1.300869 A    
C18   C38   1.518579 S    
Cu2   N1    2.022035 S    
C2    C19   1.450936 S    
C1    C22   1.455195 S    
O3    Cu1   1.961092 S    
Cu2   O6    1.982333 S    
C31   H8    1.081140 S    
C27   N4    1.464556 S    
C12   C13   1.431624 A    
C21   C28   1.491740 S    
C34   H11   1.110093 S    
