data_mof_unit_43085.cif
_audit_creation_date              2012-12-10T16:52:16-0500
_audit_creation_method            fapswitch 2.2
_symmetry_space_group_name_H-M    P1
_symmetry_Int_Tables_number       1
_space_group_crystal_system       triclinic
_cell_length_a                    11.022148
_cell_length_b                    10.900904
_cell_length_c                    9.685903
_cell_angle_alpha                 89.601268
_cell_angle_beta                  102.84427
_cell_angle_gamma                 90.299788
_cell_volume                      1134.61889898

loop_
_atom_site_label
_atom_site_type_symbol
_atom_type_description
_atom_site_fract_x
_atom_site_fract_y
_atom_site_fract_z
_atom_type_partial_charge
C1    C     C_R   0.494224 0.265399 0.499225 0.870969
C2    C     C_2   0.516356 0.868709 0.499392 0.237896
C3    C     C_2   0.467161 0.066660 0.382748 -0.232548
C4    C     C_2   0.474584 0.134227 0.498872 -0.305968
C5    C     C_2   0.513100 0.404335 0.930407 0.432204
C6    C     C_2   0.464228 0.408927 0.066129 0.429306
C7    C     C_R   0.262597 0.504041 0.442668 0.883860
C8    C     C_R   0.504233 0.735009 0.500507 0.777061
C9    C     C_R   0.737739 0.505433 0.557827 0.738010
C10   C     C_2   0.126925 0.509812 0.411523 -0.463248
C11   C     C_2   0.066915 0.555760 0.506214 0.534738
C12   C     C_2   0.873848 0.523235 0.591155 0.340773
C13   C     C_2   0.931883 0.535817 0.483276 -0.386751
C14   C     C_2   0.447098 0.932325 0.389195 0.408303
Cu1   Cu    Cu3+1 0.500020 0.500020 0.638640 0.982115
Cu2   Cu    Cu3+1 0.499980 0.499980 0.361360 0.988612
H1    H     H_    0.879875 0.529865 0.374094 0.125220
H2    H     H_    0.453743 0.572566 0.878254 0.142698
H3    H     H_    0.557801 0.562146 0.123047 0.132895
H4    H     H_    0.075257 0.471678 0.312213 0.117529
H5    H     H_    0.472979 0.109340 0.282800 0.179740
H6    H     H_    0.461535 0.092251 0.596667 0.175909
N1    N     N_2   0.498650 0.498660 0.846590 -0.330922
N2    N     N_2   0.498620 0.498630 0.152710 -0.312061
O1    O     O_R   0.500020 0.321960 0.617050 -0.521655
O2    O     O_R   0.499980 0.321920 0.382890 -0.536340
O3    O     O_R   0.320700 0.500020 0.574050 -0.535713
O4    O     O_R   0.320660 0.499980 0.339890 -0.545151
O5    O     O_R   0.500020 0.678080 0.617110 -0.617799
O6    O     O_R   0.499980 0.678040 0.382950 -0.546553
O7    O     O_R   0.679340 0.500020 0.660110 -0.546733
O8    O     O_R   0.679300 0.499980 0.425950 -0.611599
O9    O     O_3   0.387460 0.318565 0.104206 -0.575745
C15   C     C_3   0.315402 0.254545 0.987053 -0.045689
H7    H     H_    0.267152 0.178877 0.030371 0.152094
H8    H     H_    0.373728 0.208978 0.923034 0.179472
C16   C     C_3   0.214201 0.335009 0.894937 -0.297592
H9    H     H_    0.147911 0.365529 0.958927 0.233025
H10   H     H_    0.255566 0.417882 0.856338 0.233953
C17   C     C_3   0.143694 0.263557 0.766656 -0.836263
H11   H     H_    0.208535 0.233904 0.700483 0.244798
H12   H     H_    0.071426 0.322514 0.700808 0.295761
H13   H     H_    0.097720 0.181633 0.801334 0.233277
O10   O     O_3   0.132592 0.611043 0.629584 -0.550053
C18   C     C_3   0.103055 0.737448 0.628712 0.083520
H14   H     H_    0.112648 0.766134 0.740459 0.156527
H15   H     H_    0.005386 0.758710 0.573252 0.128463
C19   C     C_3   0.194403 0.813108 0.564531 -0.364767
H16   H     H_    0.290557 0.795698 0.625664 0.224592
H17   H     H_    0.187587 0.785123 0.452982 0.232351
C20   C     C_3   0.167593 0.950105 0.568324 -0.935365
H18   H     H_    0.071712 0.970197 0.507806 0.264300
H19   H     H_    0.234232 0.002349 0.519763 0.260961
H20   H     H_    0.178017 0.980885 0.679443 0.249197
O11   O     O_3   0.943312 0.518632 0.729974 -0.548266
C21   C     C_3   0.905550 0.610885 0.813028 -0.282512
H21   H     H_    0.834694 0.574213 0.867956 0.185268
H22   H     H_    0.870584 0.695319 0.751637 0.119833
H23   H     H_    0.987328 0.638318 0.896369 0.172110
O12   O     O_3   0.357904 0.868632 0.289126 -0.592085
C22   C     C_3   0.289140 0.944378 0.181667 -0.347639
H24   H     H_    0.349704 0.980825 0.113142 0.156554
H25   H     H_    0.241591 0.019213 0.226388 0.172227
H26   H     H_    0.215708 0.887926 0.113729 0.185833
O13   O     O_3   0.616296 0.926208 0.590110 -0.601570
C23   C     C_3   0.620381 0.896362 0.733018 -0.337968
H27   H     H_    0.669078 0.807823 0.761830 0.176835
H28   H     H_    0.526215 0.894803 0.757478 0.156812
H29   H     H_    0.675367 0.967978 0.800533 0.189325
O14   O     O_3   0.568252 0.299856 0.890725 -0.539362
C24   C     C_3   0.646085 0.243372 0.009245 -0.343188
H30   H     H_    0.590566 0.194256 0.075151 0.169716
H31   H     H_    0.710736 0.310545 0.074209 0.151613
H32   H     H_    0.703872 0.173990 0.970837 0.184846

loop_
_geom_bond_atom_site_label_1
_geom_bond_atom_site_label_2
_ccdc_geom_bond_type
Cu1   Cu2   S    
Cu2   O4    S    
C24   H32   S    
C23   H28   S    
O11   C21   S    
C6    O9    S    
Cu1   O7    S    
C5    O14   S    
Cu1   O5    S    
Cu2   O8    S    
C15   C16   S    
C4    H6    S    
Cu1   O3    S    
C5    N1    D    
C21   H23   S    
C13   H1    S    
C2    O13   S    
C6    N2    D    
C23   H29   S    
C1    C4    S    
Cu1   N1    S    
H3    N2    S    
C3    C4    D    
C8    O6    A    
C11   O10   S    
C16   H10   S    
C18   H14   S    
C12   C13   D    
C20   H20   S    
C1    O1    A    
C19   H17   S    
C11   C13   S    
C22   H24   S    
C3    C14   S    
C19   C20   S    
C5    C6    S    
C8    O5    A    
C17   H12   S    
C19   H16   S    
C16   H9    S    
C21   H22   S    
O9    C15   S    
C16   C17   S    
C15   H8    S    
O13   C23   S    
Cu2   O2    S    
C1    O2    A    
C2    C14   D    
C9    C12   S    
Cu1   O1    S    
C22   H26   S    
C3    H5    S    
C10   C11   D    
C9    O7    A    
Cu2   O6    S    
H2    N1    S    
C12   O11   S    
C23   H27   S    
C24   H30   S    
O14   C24   S    
C7    O3    A    
C21   H21   S    
Cu2   N2    S    
C15   H7    S    
C18   H15   S    
C7    C10   S    
C24   H31   S    
C14   O12   S    
C22   H25   S    
C17   H11   S    
C18   C19   S    
O10   C18   S    
C9    O8    A    
C17   H13   S    
C2    C8    S    
C7    O4    A    
C20   H18   S    
C10   H4    S    
O12   C22   S    
C20   H19   S    
