data_mof_unit_42769.cif
_audit_creation_date              2013-03-05T15:55:55-0500
_audit_creation_method            fapswitch 2.2
_symmetry_space_group_name_H-M    P1
_symmetry_Int_Tables_number       1
_space_group_crystal_system       triclinic
_cell_length_a                    21.647979
_cell_length_b                    7.176423
_cell_length_c                    14.918571
_cell_angle_alpha                 90.241437
_cell_angle_beta                  106.756675
_cell_angle_gamma                 90.19228
_cell_volume                      2219.21677631

loop_
_atom_site_label
_atom_site_type_symbol
_atom_site_description
_atom_site_fract_x
_atom_site_fract_y
_atom_site_fract_z
_atom_type_partial_charge
O1    O     O_R   0.335860 0.638190 0.002110 -0.553814
O2    O     O_R   0.664140 0.361810 0.997890 -0.553814
O3    O     O_R   0.164140 0.138190 0.997890 -0.551508
O4    O     O_R   0.835860 0.861810 0.002110 -0.551508
O5    O     O_R   0.217530 0.305920 0.861960 -0.567403
O6    O     O_R   0.782470 0.694080 0.138040 -0.567404
O7    O     O_R   0.282470 0.805920 0.138040 -0.571323
O8    O     O_R   0.717530 0.194080 0.861960 -0.571323
C1    C     C_R   0.205934 0.476196 0.825766 1.038660
C2    C     C_R   0.794065 0.523804 0.174234 1.038659
C3    C     C_R   0.293926 0.977294 0.174126 1.037855
C4    C     C_R   0.706073 0.022706 0.825874 1.037855
O9    O     O_R   0.338690 0.308320 0.993240 -0.587682
O10   O     O_R   0.661310 0.691680 0.006760 -0.587682
O11   O     O_R   0.161310 0.808320 0.006760 -0.593566
O12   O     O_R   0.838690 0.191680 0.993240 -0.593566
O13   O     O_R   0.286170 0.140430 0.130100 -0.588785
O14   O     O_R   0.713830 0.859570 0.869900 -0.588785
O15   O     O_R   0.213830 0.640430 0.869900 -0.591159
O16   O     O_R   0.786170 0.359570 0.130100 -0.591159
C5    C     C_R   0.365306 0.477910 0.999785 1.029068
C6    C     C_R   0.634694 0.522090 0.000215 1.029066
C7    C     C_R   0.134655 0.977261 0.000060 1.029616
C8    C     C_R   0.865345 0.022739 0.999939 1.029618
O17   O     O_3   0.232630 0.472410 0.044750 -0.272711
O18   O     O_3   0.767370 0.527590 0.955250 -0.272711
O19   O     O_3   0.267370 0.972410 0.955250 -0.268747
O20   O     O_3   0.732630 0.027590 0.044750 -0.268747
V1    V     V_3+5 0.253220 0.196620 0.991700 1.303848
V2    V     V_3+5 0.746780 0.803380 0.008300 1.303848
V3    V     V_3+5 0.246780 0.696620 0.008300 1.297756
V4    V     V_3+5 0.753220 0.303380 0.991700 1.297756
C9    C     C_R   0.039593 0.855293 0.045627 -0.160787
C10   C     C_R   0.960407 0.144707 0.954373 -0.160787
C11   C     C_R   0.461261 0.347687 0.960471 -0.153633
C12   C     C_R   0.538739 0.652313 0.039529 -0.153633
H1    H     H_    0.069943 0.743990 0.082819 0.211221
H2    H     H_    0.930057 0.256010 0.917181 0.211220
H3    H     H_    0.431670 0.229736 0.928105 0.221738
H4    H     H_    0.568330 0.770264 0.071895 0.221738
C13   C     C_R   0.975456 0.864907 0.048392 0.516972
C14   C     C_R   0.024544 0.135093 0.951608 0.516973
C15   C     C_R   0.525470 0.355284 0.958215 0.517253
C16   C     C_R   0.474530 0.644716 0.041785 0.517253
C17   C     C_R   0.934614 0.010615 0.001840 -0.323276
C18   C     C_R   0.065386 0.989385 0.998160 -0.323277
C19   C     C_R   0.565491 0.509043 0.998564 -0.338341
C20   C     C_R   0.434509 0.490957 0.001436 -0.338341
C21   C     C_R   0.678812 0.013597 0.724248 -0.263046
C22   C     C_R   0.321188 0.986403 0.275752 -0.263046
C23   C     C_R   0.821116 0.519127 0.276097 -0.263328
C24   C     C_R   0.178884 0.480872 0.723903 -0.263328
C25   C     C_R   0.690475 0.014872 0.568368 -0.124876
C26   C     C_R   0.309525 0.985124 0.431632 -0.124873
C27   C     C_R   0.811051 0.563763 0.431645 -0.124860
C28   C     C_R   0.188948 0.436235 0.568355 -0.124858
C29   C     C_R   0.718345 0.012536 0.664973 0.476702
C30   C     C_R   0.281654 0.987461 0.335027 0.476701
C31   C     C_R   0.783100 0.560027 0.335069 0.476973
C32   C     C_R   0.216900 0.439970 0.664931 0.476972
C33   C     C_R   0.611896 0.009347 0.686904 -0.229318
C34   C     C_R   0.388104 0.990653 0.313096 -0.229316
C35   C     C_R   0.887205 0.489389 0.313801 -0.210981
C36   C     C_R   0.112795 0.510613 0.686199 -0.210981
C37   C     C_R   0.582189 0.007218 0.589080 0.121684
C38   C     C_R   0.417811 0.992780 0.410920 0.121684
C39   C     C_R   0.917624 0.504801 0.411275 0.118484
C40   C     C_R   0.082376 0.495202 0.588725 0.118484
C41   C     C_R   0.622818 0.019905 0.529340 -0.092556
C42   C     C_R   0.377182 0.980091 0.470660 -0.092557
C43   C     C_R   0.877652 0.531643 0.471099 -0.094989
C44   C     C_R   0.122348 0.468359 0.528901 -0.094989
C45   C     C_R   0.513641 0.995511 0.549417 0.028237
C46   C     C_R   0.486359 0.004487 0.450582 0.028237
C47   C     C_R   0.986225 0.495720 0.450551 0.028401
C48   C     C_R   0.013775 0.504284 0.549450 0.028402
C49   C     C_R   0.528298 0.029194 0.394391 -0.259234
C50   C     C_R   0.471702 0.970801 0.605609 -0.259233
C51   C     C_R   0.971831 0.515591 0.606343 -0.259473
C52   C     C_R   0.028169 0.484414 0.393657 -0.259474
C53   C     C_R   0.595189 0.036395 0.431962 0.360009
C54   C     C_R   0.404811 0.963600 0.568037 0.360009
C55   C     C_R   0.905084 0.529589 0.568951 0.357354
C56   C     C_R   0.094916 0.470415 0.431049 0.357353
H5    H     H_    0.415326 0.987444 0.263165 0.177032
H6    H     H_    0.584673 0.012560 0.736835 0.177033
H7    H     H_    0.086662 0.543748 0.735563 0.167977
H8    H     H_    0.913339 0.456255 0.264437 0.167978
H9    H     H_    0.722460 0.011516 0.524524 0.199132
H10   H     H_    0.277540 0.988479 0.475476 0.199132
H11   H     H_    0.780260 0.597329 0.474999 0.197778
H12   H     H_    0.219739 0.402666 0.525001 0.197779
H13   H     H_    0.510618 0.050349 0.320088 0.191005
H14   H     H_    0.489382 0.949644 0.679911 0.191004
H15   H     H_    0.989201 0.507917 0.681381 0.201001
H16   H     H_    0.010799 0.492090 0.318619 0.201003
Cl1   Cl    Cl    0.950406 0.695382 0.115922 -0.656531
Cl2   Cl    Cl    0.049594 0.304618 0.884078 -0.656531
Cl3   Cl    Cl    0.551356 0.170886 0.899551 -0.648729
Cl4   Cl    Cl    0.448644 0.829113 0.100450 -0.648729
N1    N     N_R   0.633960 0.069853 0.369773 0.247856
O21   O     O_R   0.676676 0.203327 0.387949 -0.353270
O22   O     O_R   0.618105 0.993336 0.286971 -0.314323
N2    N     N_R   0.366040 0.930140 0.630226 0.247856
O23   O     O_R   0.323324 0.796665 0.612050 -0.353270
O24   O     O_R   0.381895 0.006656 0.713029 -0.314323
N3    N     N_R   0.865902 0.534442 0.632227 0.249821
O25   O     O_R   0.816642 0.422560 0.619318 -0.345956
O26   O     O_R   0.886194 0.623552 0.711534 -0.321022
N4    N     N_R   0.134099 0.465563 0.367773 0.249823
O27   O     O_R   0.183360 0.577439 0.380685 -0.345957
O28   O     O_R   0.113805 0.376461 0.288464 -0.321024
Cl5   Cl    Cl    0.196968 0.989163 0.289999 -0.558969
Cl6   Cl    Cl    0.803031 0.010835 0.710002 -0.558966
Cl7   Cl    Cl    0.300050 0.395278 0.710163 -0.559239
Cl8   Cl    Cl    0.699950 0.604716 0.289837 -0.559240

loop_
_geom_bond_atom_site_label_1
_geom_bond_atom_site_label_2
_geom_bond_distance
_ccdc_geom_bond_type
O17   V3    1.754595 S    
O1    C5    1.322091 A    
N1    O21   1.301310 A    
C27   C31   1.392684 A    
C35   H8    1.076381 S    
O19   V1    1.752277 S    
O13   V1    2.023422 S    
C45   C46   1.423365 A    
O3    C7    1.322698 A    
C10   C14   1.402803 A    
C48   C51   1.412712 A    
C52   C56   1.394922 A    
O4    V2    2.000169 S    
O15   V3    2.018997 S    
N2    O24   1.301468 A    
C4    C21   1.460862 S    
C21   C29   1.396728 A    
C53   N1    1.439585 S    
O7    C3    1.333891 A    
C8    C17   1.494449 S    
C36   C40   1.416512 A    
O9    V1    2.007965 S    
C15   Cl3   1.763283 S    
C26   H10   1.081206 S    
C14   Cl2   1.763525 S    
O16   V4    2.018996 S    
O4    C8    1.322697 A    
C11   C20   1.403134 A    
C38   C46   1.432356 A    
O1    V3    2.002717 S    
C37   C45   1.432355 A    
C12   C19   1.403133 A    
O2    V4    2.002715 S    
C14   C18   1.419748 A    
O3    V1    2.000166 S    
N4    O27   1.301328 A    
C27   H11   1.081215 S    
C24   C32   1.397972 A    
N4    O28   1.301462 A    
C1    O15   1.333816 A    
C2    O16   1.333816 A    
C31   Cl8   1.761712 S    
C28   C44   1.411499 A    
C46   C49   1.413317 A    
O2    C6    1.322091 A    
C30   Cl5   1.761372 S    
N3    O25   1.301329 A    
O14   V2    2.023424 S    
C52   H16   1.074969 S    
C11   C15   1.400950 A    
C47   C52   1.412712 A    
C36   H7    1.076379 S    
O5    V1    2.028069 S    
C23   C35   1.395667 A    
C40   C44   1.423853 A    
C5    C20   1.493802 S    
O11   C7    1.336151 A    
C6    C19   1.493800 S    
C25   C41   1.412189 A    
O12   C8    1.336150 A    
C7    C18   1.494449 S    
C9    C18   1.403359 A    
N3    O26   1.301463 A    
C1    C24   1.463160 S    
O10   V2    2.007960 S    
C2    C23   1.463162 S    
N2    O23   1.301310 A    
C43   C55   1.408651 A    
C34   H5    1.075058 S    
C35   C39   1.416512 A    
C21   C33   1.394259 A    
C34   C38   1.415006 A    
C22   C30   1.396726 A    
C12   H4    1.083770 S    
O7    V3    2.019737 S    
C24   C36   1.395668 A    
C25   C29   1.392933 A    
O18   V4    1.754596 S    
C45   C50   1.413317 A    
C9    H1    1.083793 S    
C28   C32   1.392684 A    
O8    V4    2.019738 S    
C51   H15   1.074968 S    
C11   H3    1.083770 S    
C47   C48   1.424064 A    
O5    C1    1.333136 A    
C50   C54   1.394616 A    
C26   C42   1.412189 A    
C49   C53   1.394616 A    
O8    C4    1.333890 A    
O9    C5    1.335885 A    
C10   C17   1.403359 A    
C40   C48   1.432574 A    
C44   C56   1.408651 A    
O6    V2    2.028069 S    
C25   H9    1.081207 S    
C22   C34   1.394258 A    
C13   Cl1   1.763527 S    
C12   C16   1.400950 A    
C23   C31   1.397975 A    
C26   C30   1.392934 A    
C3    O13   1.332069 A    
C54   N2    1.439584 S    
C10   H2    1.083793 S    
O6    C2    1.333136 A    
O11   V3    2.012989 S    
C29   Cl6   1.761370 S    
O12   V4    2.012993 S    
C9    C13   1.402802 A    
O10   C6    1.335887 A    
O20   V2    1.752277 S    
C3    C22   1.460862 S    
C51   C55   1.394922 A    
C16   Cl4   1.763283 S    
C38   C42   1.424187 A    
C50   H14   1.074924 S    
C37   C41   1.424188 A    
C49   H13   1.074923 S    
C55   N3    1.439935 S    
C39   C43   1.423854 A    
C42   C54   1.408216 A    
C56   N4    1.439937 S    
C41   C53   1.408216 A    
C33   H6    1.075059 S    
C33   C37   1.415004 A    
C28   H12   1.081214 S    
C39   C47   1.432574 A    
N1    O22   1.301468 A    
C4    O14   1.332068 A    
C13   C17   1.419747 A    
C32   Cl7   1.761715 S    
C15   C19   1.420494 A    
C27   C43   1.411499 A    
C16   C20   1.420494 A    
