data_mof_unit_42601.cif
_audit_creation_date              2012-12-11T16:57:12-0500
_audit_creation_method            fapswitch 2.2
_symmetry_space_group_name_H-M    P1
_symmetry_Int_Tables_number       1
_space_group_crystal_system       triclinic
_cell_length_a                    14.600658
_cell_length_b                    16.0953
_cell_length_c                    6.956851
_cell_angle_alpha                 89.808509
_cell_angle_beta                  98.404983
_cell_angle_gamma                 90.09915
_cell_volume                      1617.30423015

loop_
_atom_site_label
_atom_site_type_symbol
_atom_type_description
_atom_site_fract_x
_atom_site_fract_y
_atom_site_fract_z
_atom_type_partial_charge
O1    O     O_R   0.584990 0.413650 0.534420 -0.540463
O2    O     O_R   0.584990 0.586350 0.534420 -0.553397
O3    O     O_R   0.596190 0.585230 0.208380 -0.542211
O4    O     O_R   0.596190 0.414770 0.208380 -0.553022
O5    O     O_R   0.415010 0.586420 0.976930 -0.535154
O6    O     O_R   0.415010 0.413580 0.976930 -0.544497
C1    C     C_R   0.617596 0.615246 0.383041 0.668269
C2    C     C_R   0.617704 0.385076 0.383869 0.707948
O7    O     O_3   0.440560 0.500000 0.319140 -0.346790
V1    V     V_3+5 0.511030 0.500000 0.068070 1.450558
O8    O     O_R   0.403810 0.414840 0.643540 -0.507056
O9    O     O_R   0.403810 0.585160 0.643540 -0.521836
C3    C     C_R   0.380514 0.387409 0.806759 0.747249
C4    C     C_R   0.381277 0.613434 0.806680 0.739056
V2    V     V_3+5 0.488970 0.500000 0.560620 1.538742
O10   O     O_3   0.559440 0.500000 0.859420 -0.394288
H1    H     H_    0.205758 0.820469 0.813740 0.165392
H2    H     H_    0.176550 0.202899 0.806799 0.154221
H3    H     H_    0.354095 0.722260 0.083032 0.181301
H4    H     H_    0.269701 0.343999 0.067589 0.211390
C5    C     C_2   0.308211 0.677193 0.801833 -0.268443
C6    C     C_2   0.315685 0.317082 0.802162 -0.293018
C7    C     C_2   0.302017 0.726808 0.955105 -0.037234
C8    C     C_2   0.267194 0.300610 0.947842 -0.036160
C9    C     C_2   0.190901 0.814711 0.111191 0.286884
C10   C     C_2   0.193983 0.183117 0.110312 0.288341
C11   C     C_2   0.228040 0.790279 0.952201 -0.248057
C12   C     C_2   0.209570 0.224409 0.947545 -0.249808
H5    H     H_    0.255583 0.680204 0.676672 0.246857
H6    H     H_    0.315607 0.272856 0.687764 0.247005
C13   C     C_R   0.679119 0.748153 0.551183 0.014267
C14   C     C_R   0.692977 0.262480 0.575024 0.090857
C15   C     C_R   0.683182 0.686889 0.409398 -0.135493
C16   C     C_R   0.686107 0.316218 0.414912 -0.139301
C17   C     C_R   0.750531 0.699341 0.284849 -0.136791
C18   C     C_R   0.750224 0.301232 0.283951 -0.188278
H7    H     H_    0.754821 0.656826 0.166293 0.119980
H8    H     H_    0.750986 0.341141 0.158803 0.128322
C19   C     C_R   0.816876 0.764230 0.319174 -0.148552
C20   C     C_R   0.816412 0.235829 0.316767 -0.175774
H9    H     H_    0.869381 0.769815 0.224970 0.133805
H10   H     H_    0.865368 0.227801 0.215634 0.130624
C21   C     C_R   0.818925 0.817718 0.480838 -0.084759
C22   C     C_R   0.821012 0.183365 0.481971 -0.091521
C23   C     C_R   0.746727 0.808222 0.590036 0.023556
C24   C     C_R   0.757785 0.201014 0.606947 0.042173
C25   C     C_3   0.738752 0.811417 0.800620 -0.403021
C26   C     C_3   0.729804 0.173916 0.793013 -0.463314
C27   C     C_3   0.659022 0.748670 0.757772 0.277778
C28   C     C_3   0.656069 0.243222 0.760172 0.300808
H11   H     H_    0.717401 0.873862 0.845533 0.183985
H12   H     H_    0.701467 0.109660 0.783511 0.184369
H13   H     H_    0.800911 0.785083 0.891110 0.137639
H14   H     H_    0.784961 0.185592 0.917057 0.143699
H15   H     H_    0.672830 0.688253 0.834088 0.085811
H16   H     H_    0.666760 0.296310 0.863145 0.043129
O11   O     O_R   0.921430 0.915960 0.371040 -0.538794
O12   O     O_R   0.921430 0.084040 0.371040 -0.540694
O13   O     O_R   0.910450 0.087500 0.697310 -0.543354
O14   O     O_R   0.910450 0.912500 0.697310 -0.544671
O15   O     O_R   0.091710 0.087460 0.928430 -0.562539
O16   O     O_R   0.091710 0.912540 0.928430 -0.562155
C29   C     C_R   0.888933 0.114678 0.519648 0.706917
C30   C     C_R   0.889122 0.884923 0.520183 0.694529
O17   O     O_3   0.065970 0.000000 0.586140 -0.371269
V3    V     V_3+5 0.995640 0.000000 0.837400 1.411647
O18   O     O_R   0.103020 0.915700 0.261710 -0.510851
O19   O     O_R   0.103020 0.084300 0.261710 -0.512221
C31   C     C_R   0.124375 0.885131 0.099783 0.660770
C32   C     C_R   0.125720 0.113882 0.099612 0.651913
V4    V     V_3+5 0.017940 0.000000 0.344880 1.487235
O20   O     O_3   0.947330 0.000000 0.046180 -0.374694
S1    S     S_3+6 0.211671 0.760817 0.334720 -0.060817
O21   O     O_2   0.254581 0.676996 0.315670 -0.333304
O22   O     O_2   0.275005 0.812831 0.475764 -0.403693
O23   O     O_3   0.110341 0.746884 0.419399 -0.509018
H17   H     H_    0.106264 0.792422 0.513049 0.333594
S2    S     S_3+6 0.249630 0.211531 0.342653 -0.061661
O24   O     O_2   0.339805 0.255609 0.334217 -0.350779
O25   O     O_2   0.184930 0.268350 0.428951 -0.374352
O26   O     O_3   0.271869 0.126272 0.482752 -0.508321
H18   H     H_    0.221121 0.122524 0.562256 0.341467
O27   O     O_3   0.575016 0.786451 0.795674 -0.576662
C33   C     C_3   0.504769 0.791515 0.632440 0.136485
H19   H     H_    0.437283 0.789484 0.687179 0.166560
H20   H     H_    0.503968 0.736854 0.534931 0.116697
C34   C     C_3   0.510513 0.874912 0.525171 -0.298239
H21   H     H_    0.466440 0.921671 0.585075 0.204601
H22   H     H_    0.582351 0.899426 0.548378 0.197118
C35   C     C_3   0.479575 0.866888 0.306710 -0.755628
H23   H     H_    0.524102 0.821723 0.243139 0.232200
H24   H     H_    0.485348 0.928155 0.235603 0.226668
H25   H     H_    0.406563 0.846105 0.276708 0.264007
O28   O     O_3   0.565486 0.209977 0.724267 -0.553363
C36   C     C_3   0.524296 0.209914 0.896576 0.142273
H26   H     H_    0.449531 0.197110 0.853248 0.163423
H27   H     H_    0.529618 0.271771 0.968626 0.101554
C37   C     C_3   0.563197 0.141422 0.040143 -0.431141
H28   H     H_    0.559179 0.080537 0.964425 0.211131
H29   H     H_    0.636642 0.154670 0.098039 0.206749
C38   C     C_3   0.509401 0.136164 0.212093 -0.655016
H30   H     H_    0.513576 0.196255 0.290940 0.266394
H31   H     H_    0.539711 0.086956 0.314209 0.223112
H32   H     H_    0.435662 0.120657 0.161455 0.250415

loop_
_geom_bond_atom_site_label_1
_geom_bond_atom_site_label_2
_ccdc_geom_bond_type
O15   C32   A    
C34   H21   S    
C38   H30   S    
O1    C2    A    
S1    O22   D    
S1    O21   D    
C17   C19   A    
O2    C1    A    
C33   C34   S    
O4    C2    A    
O26   H18   S    
C36   C37   S    
C25   C27   S    
C26   H14   S    
C10   S2    S    
O11   C30   A    
C4    C5    S    
C17   H7    S    
C33   H20   S    
O3    C1    A    
O13   V3    S    
S2    O25   D    
O12   V4    S    
V2    O10   S    
O11   V4    S    
O8    V2    S    
O15   V3    S    
V3    O20   S    
H4    C8    S    
C13   C15   A    
O1    V2    S    
C7    C11   S    
O7    V1    S    
C9    S1    S    
C25   H13   S    
C26   C28   S    
O14   V3    S    
C38   H31   S    
C1    C15   S    
C13   C27   S    
C10   C12   D    
C22   C24   A    
C21   C30   S    
C23   C25   S    
C22   C29   S    
C24   C26   S    
O16   V3    S    
H1    C11   S    
C18   C20   A    
H2    C12   S    
O23   H17   S    
C19   H9    S    
S2    O24   D    
C28   O28   S    
C25   H11   S    
C27   H15   S    
C5    H5    S    
C28   H16   S    
O16   C31   A    
O18   C31   A    
C14   C16   A    
H3    C7    S    
C35   H24   S    
O27   C33   S    
O9    V2    S    
C20   C22   A    
C2    C16   S    
C33   H19   S    
O2    V2    S    
C21   C23   A    
C14   C28   S    
O5    C4    A    
O9    C4    A    
C37   H28   S    
C38   H32   S    
C37   H29   S    
C5    C7    D    
C10   C32   S    
S1    O23   S    
C6    C8    D    
C9    C31   S    
O4    V1    S    
C18   H8    S    
C35   H25   S    
O12   C29   A    
C6    H6    S    
C14   C24   A    
C8    C12   S    
O6    V1    S    
C19   C21   A    
C36   H27   S    
C9    C11   D    
C37   C38   S    
O13   C29   A    
O14   C30   A    
C27   O27   S    
C34   H22   S    
O7    V2    S    
O5    V1    S    
O3    V1    S    
O17   V4    S    
O6    C3    A    
O8    C3    A    
S2    O26   S    
C35   H23   S    
O19   V4    S    
C20   H10   S    
C15   C17   A    
C16   C18   A    
C3    C6    S    
O18   V4    S    
O28   C36   S    
C26   H12   S    
V4    O20   S    
O19   C32   A    
O17   V3    S    
C13   C23   A    
C34   C35   S    
C36   H26   S    
V1    O10   S    
