data_mof_unit_24268.cif
_audit_creation_date              2013-03-05T16:41:45-0500
_audit_creation_method            fapswitch 2.2
_symmetry_space_group_name_H-M    P1
_symmetry_Int_Tables_number       1
_space_group_crystal_system       triclinic
_cell_length_a                    10.634906
_cell_length_b                    10.641511
_cell_length_c                    9.868464
_cell_angle_alpha                 90.000832
_cell_angle_beta                  90.170871
_cell_angle_gamma                 89.440292
_cell_volume                      1116.77031494

loop_
_atom_site_label
_atom_site_type_symbol
_atom_site_description
_atom_site_fract_x
_atom_site_fract_y
_atom_site_fract_z
_atom_type_partial_charge
O1    O     O_R   0.500020 0.316790 0.614690 -0.630154
O2    O     O_R   0.500000 0.316760 0.385350 -0.622569
C1    C     C_R   0.495529 0.259765 0.500190 0.875348
O3    O     O_R   0.316770 0.500020 0.614690 -0.624299
O4    O     O_R   0.316760 0.499980 0.385350 -0.596823
C2    C     C_R   0.260527 0.497166 0.499791 0.872742
Zn1   Zn    Zn3+2 0.500010 0.500020 0.653130 0.943800
Zn2   Zn    Zn3+2 0.499990 0.499980 0.346870 0.990983
O5    O     O_R   0.500000 0.683240 0.614650 -0.614992
O6    O     O_R   0.499980 0.683210 0.385310 -0.566861
O7    O     O_R   0.683240 0.500020 0.614650 -0.629513
O8    O     O_R   0.683230 0.499980 0.385310 -0.623125
C3    C     C_R   0.489442 0.739813 0.499768 0.912853
C4    C     C_R   0.739570 0.496529 0.500157 0.866807
H1    H     H_    0.111737 0.662594 0.387110 0.199280
C5    C     C_R   0.134325 0.282855 0.616590 -0.204083
H2    H     H_    0.235820 0.277514 0.614844 0.147585
C6    C     C_R   0.070255 0.183024 0.675092 -0.120210
H3    H     H_    0.122304 0.104643 0.718137 0.149935
C7    C     C_R   0.939425 0.183515 0.676908 -0.133503
H4    H     H_    0.890001 0.105355 0.721423 0.136481
C8    C     C_R   0.872236 0.283772 0.619930 -0.188767
H5    H     H_    0.770817 0.279334 0.620433 0.142009
C9    C     C_R   0.935839 0.386389 0.561433 0.101370
C10   C     C_R   0.067636 0.386125 0.560239 0.093709
C11   C     C_R   0.128484 0.488462 0.498970 -0.105861
C12   C     C_R   0.063079 0.585425 0.434884 -0.192697
H6    H     H_    0.883669 0.662262 0.387335 0.156300
C13   C     C_R   0.934604 0.585335 0.435250 -0.221715
C14   C     C_R   0.871963 0.488486 0.500161 -0.096800
C15   C     C_R   0.472120 0.063714 0.623672 0.115695
C16   C     C_R   0.469991 0.128920 0.501645 -0.169355
C17   C     C_R   0.432364 0.067582 0.382861 -0.286208
H7    H     H_    0.414749 0.119752 0.290485 0.196406
C18   C     C_R   0.423375 0.937171 0.381650 0.306482
C19   C     C_R   0.458636 0.870888 0.500740 -0.246575
C20   C     C_R   0.467713 0.935826 0.623036 0.105541
C21   C     C_3   0.560227 0.924250 0.737045 -0.423042
C22   C     C_3   0.564647 0.066516 0.737887 -0.462319
H8    H     H_    0.517123 0.884384 0.829911 0.239353
H9    H     H_    0.650564 0.879508 0.705785 0.193541
H10   H     H_    0.524138 0.108753 0.831244 0.216158
H11   H     H_    0.657314 0.103926 0.707306 0.189252
C23   C     C_R   0.392111 0.476513 0.070834 0.278922
N1    N     N_R   0.499160 0.499140 0.142800 -0.108452
C24   C     C_R   0.603541 0.534768 0.072228 -0.101423
H12   H     H_    0.687806 0.561065 0.126386 0.155665
C25   C     C_R   0.603573 0.534691 0.928359 -0.131217
H13   H     H_    0.687861 0.560850 0.874696 0.159040
N2    N     N_R   0.499160 0.499180 0.857150 -0.113772
C26   C     C_R   0.391985 0.476917 0.928399 0.236043
C27   C     C_3   0.315090 0.360725 0.921996 -0.516182
C28   C     C_3   0.316106 0.359656 0.075939 -0.510494
H14   H     H_    0.220156 0.379332 0.878659 0.220793
H15   H     H_    0.366638 0.280070 0.876027 0.215478
H16   H     H_    0.221713 0.376509 0.120928 0.217361
H17   H     H_    0.369356 0.278811 0.119463 0.216442
N3    N     N_R   0.384032 0.875113 0.259503 0.224923
O9    O     O_R   0.299548 0.787668 0.264914 -0.412667
O10   O     O_R   0.415823 0.919778 0.141837 -0.422615

loop_
_geom_bond_atom_site_label_1
_geom_bond_atom_site_label_2
_geom_bond_distance
_ccdc_geom_bond_type
O4    Zn2   1.986401 S    
C21   H8    1.111890 S    
C13   C14   1.390063 A    
C12   C13   1.366347 A    
H1    C12   1.083591 S    
C18   C19   1.418292 A    
C27   H15   1.111428 S    
O8    C4    1.280777 A    
Zn2   O8    1.984207 S    
C16   C17   1.400912 A    
C27   H14   1.111288 S    
C25   N2    1.368648 A    
O2    C1    1.286617 A    
C10   C11   1.409405 A    
C21   H9    1.112507 S    
N1    C24   1.368901 A    
C7    H4    1.082121 S    
Zn1   O7    1.986400 S    
C11   C12   1.389914 A    
C2    C11   1.408216 S    
C4    C14   1.409751 S    
O3    Zn1   1.984208 S    
C25   H13   1.081278 S    
O4    C2    1.279986 A    
C23   C26   1.405617 A    
Zn2   O6    1.986396 S    
H6    C13   1.084875 S    
C17   C18   1.392039 A    
C20   C21   1.496683 S    
C15   C22   1.494504 S    
C17   H7    1.082273 S    
C22   H10   1.111286 S    
C6    C7    1.391497 A    
C18   N3    1.437546 S    
C1    C16   1.421308 S    
O7    C4    1.280805 A    
C8    C9    1.414225 A    
C9    C14   1.410903 A    
Zn2   N1    2.013871 S    
C7    C8    1.395605 A    
N3    O10   1.301565 A    
C26   C27   1.490311 S    
C24   C25   1.419769 A    
C21   C22   1.515140 S    
C9    C10   1.401709 A    
C3    C19   1.429723 S    
C5    C6    1.393796 A    
O3    C2    1.280891 A    
C8    H5    1.080094 S    
C28   H16   1.111819 S    
C5    C10   1.415048 A    
Zn1   O5    1.986376 S    
C6    H3    1.082660 S    
O5    C3    1.287737 A    
C24   H12   1.081247 S    
C19   C20   1.394264 A    
C22   H11   1.109147 S    
N2    C26   1.363706 A    
N3    O9    1.301026 A    
O1    Zn1   1.986396 S    
C23   C28   1.490684 S    
C15   C16   1.389849 A    
O2    Zn2   1.986376 S    
C23   N1    1.363437 A    
C15   C20   1.362200 A    
Zn1   N2    2.013432 S    
C27   C28   1.519223 S    
C5    H2    1.080527 S    
O1    C1    1.283559 A    
O6    C3    1.284763 A    
C28   H17   1.111025 S    
