data_mof_unit_21504.cif
_audit_creation_date              2012-12-11T15:32:34-0500
_audit_creation_method            fapswitch 2.2
_symmetry_space_group_name_H-M    P1
_symmetry_Int_Tables_number       1
_space_group_crystal_system       triclinic
_cell_length_a                    6.954786
_cell_length_b                    20.475149
_cell_length_c                    24.369957
_cell_angle_alpha                 89.633924
_cell_angle_beta                  90.62493
_cell_angle_gamma                 89.634626
_cell_volume                      3469.93932702

loop_
_atom_site_label
_atom_site_type_symbol
_atom_type_description
_atom_site_fract_x
_atom_site_fract_y
_atom_site_fract_z
_atom_type_partial_charge
O1    O     O_R   0.507320 0.423560 0.460500 -0.536075
O2    O     O_R   0.170760 0.556250 0.437010 -0.530704
O3    O     O_R   0.004030 0.576440 0.539500 -0.534522
C1    C     C_R   0.338715 0.576541 0.421175 0.721995
O4    O     O_R   0.177370 0.422820 0.454110 -0.539025
O5    O     O_R   0.010680 0.442050 0.556720 -0.536459
C2    C     C_R   0.346052 0.398967 0.443371 0.692362
O6    O     O_R   0.500680 0.557950 0.443280 -0.535076
O7    O     O_3   0.340380 0.506470 0.533650 -0.370436
V1    V     V_3+5 0.064130 0.498800 0.493760 1.441789
O8    O     O_R   0.681160 0.443750 0.562990 -0.539406
C3    C     C_R   0.850823 0.423746 0.578900 0.719457
O9    O     O_R   0.674560 0.577180 0.545890 -0.545133
C4    C     C_R   0.843272 0.601404 0.556088 0.750930
V2    V     V_3+5 0.564560 0.501200 0.506240 1.422744
O10   O     O_3   0.838180 0.493530 0.466350 -0.364902
C5    C     C_R   0.970165 0.838513 0.910991 -0.039129
C6    C     C_R   0.853228 0.662922 0.587211 -0.078354
C7    C     C_R   0.955600 0.720718 0.908720 -0.162555
C8    C     C_R   0.971144 0.778419 0.938253 -0.170474
C9    C     C_R   0.954104 0.840650 0.853407 -0.212738
C10   C     C_R   0.938461 0.782286 0.822084 0.085738
C11   C     C_R   0.938637 0.722059 0.851258 0.141712
C12   C     C_R   0.921956 0.781391 0.763208 0.054230
C13   C     C_R   0.903255 0.720334 0.734896 0.071660
C14   C     C_R   0.903379 0.662239 0.766388 -0.187804
C15   C     C_R   0.921299 0.663290 0.823152 -0.206319
C16   C     C_R   0.924629 0.839410 0.731675 -0.185696
C17   C     C_R   0.909860 0.838259 0.674842 -0.184887
C18   C     C_R   0.891151 0.779495 0.646751 0.103079
C19   C     C_R   0.886354 0.719462 0.676015 0.093488
C20   C     C_R   0.878361 0.780769 0.589231 -0.233141
C21   C     C_R   0.859000 0.723092 0.559293 0.280388
C22   C     C_R   0.866308 0.661231 0.644849 -0.286782
H1    H     H_    0.921163 0.617259 0.845406 0.120125
H2    H     H_    0.862066 0.613608 0.663795 0.106486
H3    H     H_    0.913571 0.884214 0.652527 0.121304
H4    H     H_    0.955964 0.674714 0.930979 0.109913
H5    H     H_    0.982764 0.776232 0.982604 0.103779
H6    H     H_    0.952549 0.888456 0.834701 0.093438
H7    H     H_    0.890731 0.614564 0.748432 0.122597
H8    H     H_    0.939487 0.887016 0.749635 0.123173
H9    H     H_    0.883171 0.826960 0.567276 0.114810
C23   C     C_3   0.789594 0.299616 0.764857 -0.180610
C24   C     C_3   0.981403 0.281369 0.794992 -0.194434
H10   H     H_    0.041016 0.306265 0.831694 0.115877
H11   H     H_    0.688342 0.339190 0.776443 0.110042
C25   C     C_1   0.961048 0.121828 0.875468 -0.191194
C26   C     C_1   0.862986 0.378450 0.624841 -0.195610
C27   C     C_3   0.742511 0.226399 0.761974 0.346738
C28   C     C_3   0.929593 0.208176 0.791826 0.150281
C29   C     C_3   0.839913 0.220039 0.705876 -0.196097
C30   C     C_3   0.892350 0.293101 0.709295 0.130007
C31   C     C_3   0.031290 0.202264 0.736105 -0.176988
C32   C     C_3   0.083621 0.275886 0.738791 -0.123669
C33   C     C_1   0.947998 0.160527 0.837640 -0.055449
C34   C     C_1   0.875174 0.340151 0.663014 -0.050682
H12   H     H_    0.130280 0.162123 0.724357 0.123624
H13   H     H_    0.778636 0.194881 0.669521 0.112941
C35   C     C_3   0.560725 0.731370 0.219410 -0.116055
C36   C     C_3   0.375391 0.691313 0.229907 -0.180467
H14   H     H_    0.683276 0.715649 0.193733 0.113856
C37   C     C_1   0.348449 0.622373 0.375399 -0.184843
C38   C     C_1   0.475827 0.878470 0.125282 -0.196841
C39   C     C_3   0.573802 0.747787 0.281529 -0.190831
C40   C     C_3   0.388907 0.708186 0.291507 0.104144
C41   C     C_3   0.450772 0.810530 0.271282 -0.193745
C42   C     C_3   0.436525 0.793226 0.209682 0.125472
C43   C     C_3   0.268810 0.769807 0.280788 0.353854
C44   C     C_3   0.250978 0.753654 0.219371 -0.142246
C45   C     C_1   0.363895 0.660980 0.337513 -0.047923
C46   C     C_1   0.460830 0.840242 0.163490 -0.053844
H15   H     H_    0.479837 0.859587 0.288508 0.111787
C47   C     C_R   0.472280 0.162827 0.087707 -0.081866
C48   C     C_R   0.352703 0.338465 0.410944 -0.040600
C49   C     C_R   0.503958 0.280414 0.091833 -0.232412
C50   C     C_R   0.508311 0.222711 0.061499 0.278440
C51   C     C_R   0.435836 0.161338 0.144399 -0.287879
C52   C     C_R   0.436336 0.219455 0.176290 0.093432
C53   C     C_R   0.470746 0.279235 0.148506 0.103193
C54   C     C_R   0.405554 0.220473 0.234568 0.071754
C55   C     C_R   0.411438 0.281266 0.263747 0.055193
C56   C     C_R   0.445298 0.339016 0.233575 -0.187477
C57   C     C_R   0.473762 0.337823 0.177321 -0.187286
C58   C     C_R   0.369424 0.162810 0.264664 -0.188866
C59   C     C_R   0.339963 0.164042 0.320891 -0.206645
C60   C     C_R   0.345513 0.222529 0.349809 0.141616
C61   C     C_R   0.382268 0.282254 0.322077 0.085557
C62   C     C_R   0.313023 0.221453 0.406566 -0.162883
C63   C     C_R   0.315244 0.278940 0.436714 -0.169768
C64   C     C_R   0.386815 0.340277 0.354154 -0.214223
H16   H     H_    0.499702 0.383579 0.156092 0.119558
H17   H     H_    0.287270 0.277028 0.480347 0.105349
H18   H     H_    0.311981 0.118389 0.342051 0.119877
H19   H     H_    0.530568 0.326398 0.071015 0.115862
H20   H     H_    0.410802 0.113935 0.162243 0.107553
H21   H     H_    0.450586 0.386493 0.252197 0.120803
H22   H     H_    0.362040 0.115412 0.245962 0.121889
H23   H     H_    0.284122 0.175877 0.427698 0.110625
O11   O     O_R   0.323550 0.942140 0.056770 -0.536342
O12   O     O_R   0.647080 0.077200 0.045890 -0.540794
O13   O     O_R   0.813610 0.057920 0.943260 -0.528926
C65   C     C_R   0.478587 0.101461 0.056189 0.752060
O14   O     O_R   0.653470 0.943760 0.063000 -0.539039
O15   O     O_R   0.820050 0.923540 0.960490 -0.535940
C66   C     C_R   0.485473 0.923778 0.079077 0.718215
O16   O     O_R   0.317110 0.076520 0.039540 -0.540318
O17   O     O_3   0.483830 0.993580 0.966380 -0.363247
V3    V     V_3+5 0.760140 0.001190 0.006240 1.428268
O18   O     O_R   0.149510 0.922740 0.954070 -0.538415
C67   C     C_R   0.980566 0.899001 0.943298 0.693553
O19   O     O_R   0.143120 0.056170 0.936970 -0.535948
C68   C     C_R   0.973453 0.076246 0.921135 0.726594
V4    V     V_3+5 0.259690 0.998700 0.993700 1.434351
O20   O     O_3   0.986130 0.006420 0.033620 -0.372185
H24   H     H_    0.225616 0.297158 0.728908 0.116170
N1    N     N_2   0.557218 0.198173 0.773672 -0.524988
H25   H     H_    0.460904 0.203249 0.741517 0.246748
C69   C     C_3   0.476550 0.215616 0.826039 -0.537384
H26   H     H_    0.347103 0.185735 0.833574 0.213017
H27   H     H_    0.434765 0.268066 0.826087 0.177175
H28   H     H_    0.580950 0.205819 0.859849 0.211827
H29   H     H_    0.345253 0.642185 0.212978 0.119318
H30   H     H_    0.117108 0.756305 0.194198 0.106628
N2    N     N_2   0.110546 0.789810 0.315010 -0.527946
H31   H     H_    0.147663 0.791724 0.356038 0.252036
C70   C     C_3   0.007057 0.847225 0.296004 -0.583677
H32   H     H_    0.885377 0.857312 0.323894 0.196468
H33   H     H_    0.947400 0.839239 0.254136 0.212339
H34   H     H_    0.103577 0.890258 0.295677 0.192291
H35   H     H_    0.706330 0.744479 0.307183 0.161583
H36   H     H_    0.413722 0.387653 0.336496 0.092794
N3    N     N_2   0.546921 0.225238 0.004323 -0.535001
H37   H     H_    0.473219 0.262329 0.984211 0.247628
C71   C     C_3   0.749641 0.225863 0.991620 -0.543188
H38   H     H_    0.817433 0.271078 0.007521 0.184275
H39   H     H_    0.767978 0.224480 0.946474 0.186749
H40   H     H_    0.823846 0.182616 0.009884 0.214264
N4    N     N_2   0.851080 0.725707 0.500917 -0.531160
H41   H     H_    0.937340 0.761393 0.484307 0.250705
C72   C     C_3   0.658234 0.728172 0.478105 -0.547361
H42   H     H_    0.585586 0.774439 0.489877 0.184526
H43   H     H_    0.572465 0.686151 0.492804 0.210059
H44   H     H_    0.664845 0.725923 0.432638 0.198747

loop_
_geom_bond_atom_site_label_1
_geom_bond_atom_site_label_2
_ccdc_geom_bond_type
C36   C44   S    
C13   C19   A    
C71   H40   S    
O13   C68   A    
C60   C61   A    
C51   C52   A    
C27   N1    S    
C4    C6    S    
O2    C1    A    
C7    C8    A    
C53   C57   A    
O14   C66   A    
C3    C26   S    
C71   H38   S    
C58   C59   A    
C23   C24   S    
C1    C37   S    
C14   C15   A    
C62   H23   S    
C16   C17   A    
C29   H13   S    
N1    C69   S    
C49   H19   S    
O5    C3    A    
O14   V3    S    
C40   C43   S    
C32   H24   S    
C24   C28   S    
O12   V3    S    
V2    O10   S    
C5    C8    A    
C26   C34   T    
O17   V3    S    
C35   H14   S    
C28   C33   S    
O17   V4    S    
O18   C67   A    
C58   H22   S    
C59   H18   S    
C48   C63   A    
O8    V2    S    
C23   C30   S    
C40   C45   S    
C51   H20   S    
C39   C41   S    
C47   C50   A    
C27   C29   S    
C41   H15   S    
C11   C15   A    
O7    V1    S    
O18   V4    S    
C23   H11   S    
C1    O6    A    
C69   H27   S    
N2    H31   S    
O15   C67   A    
C43   N2    S    
O12   C65   A    
C71   H39   S    
O9    C4    A    
N3    C71   S    
C72   H42   S    
C50   N3    S    
C5    C67   S    
O19   V4    S    
O19   C68   A    
C39   H35   S    
C29   C31   S    
V4    O20   S    
C30   C32   S    
N4    H41   S    
C41   C42   S    
C49   C53   A    
O11   V4    S    
C49   C50   A    
C72   H44   S    
C52   C54   A    
C8    H5    S    
C30   C34   S    
C59   C60   A    
C2    C48   S    
C64   H36   S    
C15   H1    S    
C13   C14   A    
C24   H10   S    
C54   C55   A    
C35   C36   S    
C41   C43   S    
C7    C11   A    
C70   H33   S    
O16   V4    S    
C17   C18   A    
C7    H4    S    
C56   C57   A    
C61   C64   A    
C42   C46   S    
C27   C28   S    
C19   C22   A    
C12   C13   A    
C69   H26   S    
C6    C22   A    
C35   C42   S    
O3    C4    A    
O1    V2    S    
C37   C45   T    
C35   C39   S    
C55   C56   A    
O6    V2    S    
C60   C62   A    
O9    V2    S    
C56   H21   S    
N3    H37   S    
C10   C12   A    
C70   H32   S    
O2    V1    S    
C29   C30   S    
C63   H17   S    
O4    C2    A    
C31   H12   S    
C69   H28   S    
C23   C27   S    
C25   C33   T    
O15   V3    S    
C31   C32   S    
C36   C40   S    
O1    C2    A    
C12   C16   A    
O5    V1    S    
O8    C3    A    
C38   C66   S    
C48   C64   A    
O11   C66   A    
C36   H29   S    
C28   C31   S    
C20   C21   A    
C72   H43   S    
O7    V2    S    
C70   H34   S    
O4    V1    S    
O3    V1    S    
V1    O10   S    
N1    H25   S    
C18   C20   A    
N4    C72   S    
C18   C19   A    
C9    H6    S    
C21   N4    S    
C55   C61   A    
C16   H8    S    
C20   H9    S    
C22   H2    S    
C38   C46   T    
C43   C44   S    
C6    C21   A    
C5    C9    A    
V3    O20   S    
C52   C53   A    
C44   H30   S    
C24   C32   S    
C42   C44   S    
C39   C40   S    
C47   C51   A    
C17   H3    S    
N2    C70   S    
C10   C11   A    
C47   C65   S    
O13   V3    S    
C65   O16   A    
C57   H16   S    
C62   C63   A    
C9    C10   A    
C54   C58   A    
C14   H7    S    
C25   C68   S    
