data_mof_unit_61399.cif
_audit_creation_date              2012-12-10T18:18:13-0500
_audit_creation_method            fapswitch 2.2
_symmetry_space_group_name_H-M    P1
_symmetry_Int_Tables_number       1
_space_group_crystal_system       triclinic
_cell_length_a                    32.245888
_cell_length_b                    32.245946
_cell_length_c                    38.868536
_cell_angle_alpha                 90.001106
_cell_angle_beta                  89.997168
_cell_angle_gamma                 90.000161
_cell_volume                      40415.4711494

loop_
_atom_site_label
_atom_site_type_symbol
_atom_type_description
_atom_site_fract_x
_atom_site_fract_y
_atom_site_fract_z
_atom_type_partial_charge
C1    C     C_R   0.920442 0.500000 0.000000 0.801802
C2    C     C_R   0.516226 0.228272 0.971876 -0.156079
C3    C     C_R   0.519761 0.968158 0.841273 -0.110523
C4    C     C_R   0.968161 0.519764 0.158727 -0.110518
C5    C     C_R   0.480238 0.968159 0.158726 -0.110522
C6    C     C_R   0.031839 0.480235 0.158726 -0.110524
C7    C     C_R   0.519760 0.031842 0.158726 -0.110521
C8    C     C_R   0.468167 0.980225 0.341274 -0.110526
C9    C     C_R   0.980239 0.531841 0.341274 -0.110519
C10   C     C_R   0.531832 0.019777 0.341273 -0.110531
C11   C     C_R   0.019762 0.468158 0.341273 -0.110524
C12   C     C_R   0.468161 0.019764 0.658727 -0.110521
C13   C     C_R   0.228273 0.483714 0.971903 -0.156078
C14   C     C_R   0.980232 0.468163 0.658726 -0.110526
C15   C     C_R   0.531839 0.980235 0.658726 -0.110524
C16   C     C_R   0.019765 0.531839 0.658726 -0.110521
C17   C     C_R   0.999999 0.500001 0.823044 -0.045900
C18   C     C_R   0.500001 0.999999 0.823045 -0.045902
C19   C     C_R   1.000000 0.500000 0.176955 -0.045899
C20   C     C_R   0.499999 0.000001 0.176955 -0.045905
C21   C     C_R   0.499999 0.000001 0.323044 -0.045898
C22   C     C_R   0.000001 0.499999 0.323045 -0.045901
C23   C     C_R   0.500000 1.000000 0.676955 -0.045899
C24   C     C_R   0.483876 0.771728 0.971839 -0.156039
C25   C     C_R   0.999999 0.500001 0.676955 -0.045901
C26   C     C_R   0.999999 0.500000 0.895684 -0.183301
C27   C     C_R   0.500001 0.000001 0.895684 -0.183293
C28   C     C_R   0.000001 0.500000 0.104316 -0.183297
C29   C     C_R   0.499999 0.000001 0.104316 -0.183294
C30   C     C_R   0.499999 1.000000 0.395684 -0.183306
C31   C     C_R   0.000001 0.500000 0.395684 -0.183294
C32   C     C_R   0.500001 1.000000 0.604316 -0.183295
C33   C     C_R   0.999999 0.500000 0.604316 -0.183298
C34   C     C_R   0.999999 0.500001 0.715032 0.428180
C35   C     C_R   0.771727 0.483497 0.028009 -0.156041
C36   C     C_R   0.500000 0.999999 0.715032 0.428177
C37   C     C_R   0.000000 0.500000 0.284968 0.428177
C38   C     C_R   0.499999 0.000001 0.284967 0.428180
C39   C     C_R   0.499999 0.000001 0.215032 0.428181
C40   C     C_R   0.000000 0.499999 0.215033 0.428177
C41   C     C_R   0.500000 1.000000 0.784968 0.428177
C42   C     C_R   0.999999 0.500001 0.784968 0.428178
C43   C     C_R   0.728293 0.483494 0.028008 -0.160559
C44   C     C_R   0.483771 0.271706 0.028123 -0.160607
C45   C     C_R   0.271705 0.516289 0.028097 -0.160600
C46   C     C_R   0.516124 0.771728 0.028161 -0.156035
C47   C     C_R   0.516127 0.728294 0.028160 -0.160567
C48   C     C_R   0.728295 0.516506 0.971992 -0.160566
C49   C     C_R   0.483873 0.728294 0.971840 -0.160564
C50   C     C_R   0.271707 0.483711 0.971904 -0.160594
C51   C     C_R   0.516229 0.271706 0.971877 -0.160611
C52   C     C_R   0.228293 0.983605 0.528053 -0.160560
C53   C     C_R   0.983646 0.771706 0.528073 -0.160601
C54   C     C_R   0.771705 0.016251 0.528111 -0.160571
C55   C     C_R   0.016111 0.228294 0.528164 -0.160588
C56   C     C_R   0.228295 0.016395 0.471947 -0.160567
C57   C     C_R   0.228271 0.516286 0.028098 -0.156068
C58   C     C_R   0.983889 0.228294 0.471835 -0.160585
C59   C     C_R   0.771707 0.983749 0.471890 -0.160566
C60   C     C_R   0.016354 0.771706 0.471928 -0.160604
C61   C     C_R   0.706427 0.500000 0.000000 0.143501
C62   C     C_R   0.500000 0.293572 0.000000 0.143516
C63   C     C_R   0.293572 0.500000 1.000000 0.143507
C64   C     C_R   0.500000 0.706427 0.999999 0.143456
C65   C     C_R   0.206427 1.000000 0.500000 0.143488
C66   C     C_R   1.000000 0.793572 0.500000 0.143523
C67   C     C_R   0.793573 1.000000 0.500000 0.143474
C68   C     C_R   0.483774 0.228272 0.028124 -0.156081
C69   C     C_R   1.000000 0.206427 0.499999 0.143468
C70   C     C_2   0.931586 0.460989 0.895485 0.385994
C71   C     C_2   0.461004 0.068421 0.895484 0.385960
C72   C     C_2   0.068412 0.539011 0.895483 0.385969
C73   C     C_2   0.538996 0.931579 0.895484 0.385928
C74   C     C_2   0.931584 0.539005 0.104517 0.385987
C75   C     C_2   0.461003 0.931579 0.104516 0.385939
C76   C     C_2   0.068417 0.460994 0.104515 0.385970
C77   C     C_2   0.538996 0.068422 0.104515 0.385948
C78   C     C_2   0.431595 0.960973 0.395484 0.385988
C79   C     C_R   0.271729 0.016393 0.471946 -0.156039
C80   C     C_2   0.961002 0.568420 0.395484 0.385980
C81   C     C_2   0.568403 0.039028 0.395482 0.385972
C82   C     C_2   0.038998 0.431580 0.395484 0.385928
C83   C     C_2   0.431584 0.039004 0.604517 0.385972
C84   C     C_2   0.960991 0.431586 0.604517 0.385950
C85   C     C_2   0.568417 0.960995 0.604515 0.385966
C86   C     C_2   0.039007 0.568415 0.604515 0.385972
C87   C     C_R   0.016351 0.728272 0.471927 -0.156071
C88   C     C_R   0.728273 0.983752 0.471889 -0.156055
C89   C     C_R   0.500000 0.079558 0.000000 0.801786
C90   C     C_R   0.983891 0.271728 0.471834 -0.156059
C91   C     C_R   0.271727 0.983607 0.528054 -0.156038
C92   C     C_R   0.016109 0.271728 0.528165 -0.156061
C93   C     C_R   0.728271 0.016248 0.528112 -0.156039
C94   C     C_R   0.983649 0.728272 0.528073 -0.156077
C95   C     C_R   0.793592 0.500000 0.999999 0.145326
C96   C     C_R   0.500000 0.206409 1.000000 0.145325
C97   C     C_R   0.206408 0.500000 0.000001 0.145320
C98   C     C_R   0.500000 0.793592 0.000000 0.145260
C99   C     C_R   0.293592 0.000000 0.499999 0.145308
C100  C     C_R   0.079558 0.500000 1.000000 0.801794
C101  C     C_R   0.000000 0.706409 0.500000 0.145339
C102  C     C_R   0.706408 0.000000 0.500001 0.145286
C103  C     C_R   0.000000 0.293592 0.500000 0.145270
C104  C     C_1   0.661651 0.500000 1.000000 -0.051769
C105  C     C_1   0.500000 0.338349 0.000000 -0.051767
C106  C     C_1   0.338349 0.500000 0.000000 -0.051764
C107  C     C_1   0.500000 0.661651 1.000000 -0.051779
C108  C     C_1   0.161651 1.000000 0.500000 -0.051773
C109  C     C_1   1.000000 0.838349 0.500000 -0.051765
C110  C     C_1   0.838349 1.000000 0.500000 -0.051774
C111  C     C_R   0.500000 0.920443 1.000000 0.801794
C112  C     C_1   1.000000 0.161651 0.499999 -0.051774
C113  C     C_1   0.838362 0.500000 0.999999 -0.039351
C114  C     C_1   0.500000 0.161637 1.000000 -0.039339
C115  C     C_1   0.161637 0.500000 0.000001 -0.039347
C116  C     C_1   0.500000 0.838362 0.000000 -0.039350
C117  C     C_1   0.338362 0.000000 0.499999 -0.039357
C118  C     C_1   0.000000 0.661637 0.500000 -0.039343
C119  C     C_1   0.661637 0.000000 0.500001 -0.039359
C120  C     C_1   0.000000 0.338363 0.500000 -0.039349
C121  C     C_1   0.875829 0.500000 1.000000 -0.156210
C122  C     C_R   0.420442 1.000000 0.500000 0.801803
C123  C     C_1   0.500000 0.124173 1.000000 -0.156205
C124  C     C_1   0.124172 0.500000 0.000000 -0.156210
C125  C     C_1   0.500000 0.875829 0.000000 -0.156196
C126  C     C_1   0.375829 1.000000 0.500000 -0.156210
C127  C     C_1   0.000000 0.624173 0.500000 -0.156210
C128  C     C_1   0.624171 0.000000 0.500000 -0.156208
C129  C     C_1   1.000000 0.375828 0.500000 -0.156200
C130  C     C_1   0.624179 0.500000 0.999999 -0.152929
C131  C     C_1   0.500000 0.375820 1.000000 -0.152943
C132  C     C_1   0.375820 0.500000 0.000001 -0.152935
C133  C     C_R   0.000000 0.579558 0.500000 0.801789
C134  C     C_1   0.500000 0.624178 0.000000 -0.152937
C135  C     C_1   0.124179 1.000000 0.499999 -0.152932
C136  C     C_1   1.000000 0.875820 0.500000 -0.152939
C137  C     C_1   0.875821 0.000000 0.500001 -0.152933
C138  C     C_1   1.000000 0.124179 0.500000 -0.152936
C139  C     C_R   0.500000 0.420450 1.000000 0.819924
C140  C     C_R   0.420450 0.500000 0.000001 0.819930
C141  C     C_R   0.500000 0.579550 0.000000 0.819937
C142  C     C_R   0.579550 0.500000 0.999999 0.819931
C143  C     C_R   0.000000 0.920450 0.500000 0.819922
C144  C     C_R   0.579557 0.000000 0.500000 0.801801
C145  C     C_R   0.920450 0.000000 0.500001 0.819938
C146  C     C_R   1.000000 0.079550 0.500000 0.819934
C147  C     C_R   0.079550 0.000000 0.499999 0.819935
C148  C     C_R   1.000000 0.500000 0.933608 0.731163
C149  C     C_R   0.500000 0.000001 0.933608 0.731161
C150  C     C_R   0.000001 0.500000 0.066392 0.731163
C151  C     C_R   0.499999 0.000000 0.066392 0.731162
C152  C     C_R   0.499999 1.000000 0.433608 0.731162
C153  C     C_R   0.000001 0.500001 0.433608 0.731161
C154  C     C_R   0.500001 0.000000 0.566392 0.731161
C155  C     C_R   1.000000 0.420442 0.500000 0.801789
C156  C     C_R   0.999999 0.500000 0.566392 0.731164
C157  C     C_R   0.967418 0.480305 0.877388 -0.015822
C158  C     C_R   0.480313 0.032585 0.877388 -0.015804
C159  C     C_R   0.032580 0.519695 0.877387 -0.015801
C160  C     C_R   0.519688 0.967415 0.877387 -0.015792
C161  C     C_R   0.967418 0.519692 0.122613 -0.015819
C162  C     C_R   0.480311 0.967415 0.122613 -0.015795
C163  C     C_R   0.032583 0.480307 0.122612 -0.015805
C164  C     C_R   0.519687 0.032586 0.122612 -0.015798
C165  C     C_R   0.467423 0.980297 0.377387 -0.015814
C166  C     C_R   0.771729 0.516503 0.971990 -0.156034
C167  C     C_R   0.980312 0.532585 0.377388 -0.015813
C168  C     C_R   0.532575 0.019703 0.377386 -0.015799
C169  C     C_R   0.019689 0.467415 0.377387 -0.015790
C170  C     C_R   0.467417 0.019691 0.622614 -0.015811
C171  C     C_R   0.980305 0.467419 0.622613 -0.015795
C172  C     C_R   0.532583 0.980308 0.622612 -0.015803
C173  C     C_R   0.019693 0.532582 0.622612 -0.015808
C174  C     C_R   0.968162 0.480233 0.841274 -0.110519
C175  C     C_R   0.480240 0.031842 0.841274 -0.110520
C176  C     C_R   0.031836 0.519769 0.841273 -0.110527
Cu1   Cu    Cu3+1 1.000000 0.540950 0.000000 0.990475
Cu2   Cu    Cu3+1 0.500000 0.500000 0.034280 0.988498
Cu3   Cu    Cu3+1 0.000000 0.000000 0.465720 0.988495
Cu4   Cu    Cu3+1 0.000000 0.000000 0.534280 0.988496
Cu5   Cu    Cu3+1 0.540950 0.000000 0.000000 0.990479
Cu6   Cu    Cu3+1 1.000000 0.459050 0.000000 0.990467
Cu7   Cu    Cu3+1 0.459050 0.000000 0.000000 0.990485
Cu8   Cu    Cu3+1 0.500000 0.040950 0.500000 0.990481
Cu9   Cu    Cu3+1 0.040950 0.500000 0.500000 0.990479
Cu10  Cu    Cu3+1 0.500000 0.959050 0.500000 0.990474
Cu11  Cu    Cu3+1 0.959050 0.500000 0.500000 0.990487
Cu12  Cu    Cu3+1 0.500000 0.500000 0.965720 0.988498
H1    H     H_    0.943238 0.465384 0.827227 0.198346
H2    H     H_    0.965395 0.556767 0.327226 0.198346
H3    H     H_    0.556752 0.034632 0.327224 0.198340
H4    H     H_    0.034606 0.443232 0.327225 0.198340
H5    H     H_    0.443235 0.034611 0.672775 0.198342
H6    H     H_    0.965384 0.443239 0.672775 0.198342
H7    H     H_    0.556764 0.965389 0.672773 0.198344
H8    H     H_    0.034613 0.556763 0.672774 0.198345
H9    H     H_    0.788236 0.470648 0.049818 0.148231
H10   H     H_    0.471147 0.211768 0.050024 0.148292
H11   H     H_    0.211766 0.528960 0.049978 0.148280
H12   H     H_    0.465397 0.056768 0.827226 0.198345
H13   H     H_    0.528678 0.788238 0.050089 0.148295
H14   H     H_    0.788238 0.529352 0.950180 0.148231
H15   H     H_    0.471322 0.788238 0.949911 0.148295
H16   H     H_    0.211768 0.471039 0.950024 0.148278
H17   H     H_    0.528853 0.211768 0.949976 0.148292
H18   H     H_    0.288236 0.970845 0.549898 0.148249
H19   H     H_    0.970924 0.711767 0.549934 0.148267
H20   H     H_    0.711762 0.028898 0.550002 0.148276
H21   H     H_    0.028647 0.288235 0.550098 0.148304
H22   H     H_    0.288239 0.029155 0.450100 0.148244
H23   H     H_    0.056760 0.534618 0.827225 0.198342
H24   H     H_    0.971353 0.288235 0.449902 0.148308
H25   H     H_    0.711764 0.971102 0.449999 0.148269
H26   H     H_    0.029076 0.711768 0.450066 0.148270
H27   H     H_    0.711786 0.470640 0.049817 0.146939
H28   H     H_    0.471139 0.288207 0.050022 0.146976
H29   H     H_    0.288207 0.528968 0.049974 0.146971
H30   H     H_    0.528685 0.711787 0.050086 0.146973
H31   H     H_    0.711788 0.529359 0.950183 0.146938
H32   H     H_    0.471314 0.711787 0.949913 0.146971
H33   H     H_    0.288209 0.471032 0.950025 0.146971
H34   H     H_    0.534605 0.943231 0.827225 0.198340
H35   H     H_    0.528861 0.288207 0.949979 0.146978
H36   H     H_    0.211786 0.970837 0.549897 0.146949
H37   H     H_    0.970916 0.788208 0.549932 0.146963
H38   H     H_    0.788211 0.028906 0.549999 0.146963
H39   H     H_    0.028655 0.211790 0.550095 0.146984
H40   H     H_    0.211788 0.029163 0.450103 0.146946
H41   H     H_    0.971345 0.211790 0.449904 0.146984
H42   H     H_    0.788213 0.971094 0.450001 0.146963
H43   H     H_    0.029084 0.788208 0.450069 0.146965
H44   H     H_    0.927612 0.464517 0.923012 0.076760
H45   H     H_    0.943236 0.534612 0.172776 0.198343
H46   H     H_    0.464529 0.072392 0.923012 0.076749
H47   H     H_    0.072389 0.535480 0.923009 0.076756
H48   H     H_    0.535472 0.927609 0.923012 0.076754
H49   H     H_    0.927611 0.535477 0.076990 0.076760
H50   H     H_    0.464528 0.927608 0.076988 0.076750
H51   H     H_    0.072390 0.464521 0.076988 0.076754
H52   H     H_    0.535473 0.072391 0.076987 0.076759
H53   H     H_    0.427616 0.964506 0.423011 0.076763
H54   H     H_    0.964528 0.572392 0.423012 0.076750
H55   H     H_    0.572384 0.035492 0.423008 0.076762
H56   H     H_    0.465394 0.943232 0.172774 0.198344
H57   H     H_    0.035473 0.427609 0.423012 0.076754
H58   H     H_    0.427611 0.035477 0.576989 0.076760
H59   H     H_    0.964522 0.427610 0.576989 0.076747
H60   H     H_    0.572390 0.964522 0.576988 0.076752
H61   H     H_    0.035481 0.572388 0.576988 0.076762
H62   H     H_    0.056764 0.465388 0.172773 0.198344
H63   H     H_    0.534604 0.056769 0.172773 0.198346
H64   H     H_    0.443247 0.965370 0.327226 0.198344
N1    N     N_R   0.025626 0.525577 0.767123 -0.221402
N2    N     N_R   0.025574 0.474370 0.267122 -0.221403
N3    N     N_R   0.474377 0.974420 0.267124 -0.221406
N4    N     N_R   0.974427 0.525629 0.267125 -0.221402
N5    N     N_R   0.525626 0.974423 0.732875 -0.221408
N6    N     N_R   0.025573 0.525629 0.732876 -0.221404
N7    N     N_R   0.474374 0.025576 0.732878 -0.221398
N8    N     N_R   0.974424 0.474373 0.732877 -0.221404
N9    N     N_R   0.525574 0.974371 0.767122 -0.221403
N10   N     N_R   0.974372 0.474425 0.767124 -0.221405
N11   N     N_R   0.474427 0.025629 0.767125 -0.221404
N12   N     N_R   0.025626 0.474423 0.232875 -0.221408
N13   N     N_R   0.525568 0.025634 0.232876 -0.221407
N14   N     N_R   0.974374 0.525576 0.232878 -0.221396
N15   N     N_R   0.474430 0.974367 0.232877 -0.221405
N16   N     N_R   0.525621 0.025582 0.267122 -0.221403
O1    O     O_R   0.940210 0.534570 0.999910 -0.574087
O2    O     O_R   0.034570 0.559790 0.499910 -0.574084
O3    O     O_R   0.559790 0.965430 0.499910 -0.574082
O4    O     O_R   0.965430 0.440210 0.499910 -0.574075
O5    O     O_R   0.440210 0.965430 0.500090 -0.574089
O6    O     O_R   0.034570 0.440210 0.500090 -0.574076
O7    O     O_R   0.559790 0.034570 0.500090 -0.574081
O8    O     O_R   0.965430 0.559790 0.500090 -0.574081
O9    O     O_R   0.000050 0.534570 0.950000 -0.576898
O10   O     O_R   0.534570 0.999950 0.950000 -0.576898
O11   O     O_R   0.999950 0.465430 0.950000 -0.576900
O12   O     O_R   0.534570 0.059790 0.999910 -0.574081
O13   O     O_R   0.465430 0.000050 0.950000 -0.576895
O14   O     O_R   0.000050 0.465430 0.050000 -0.576901
O15   O     O_R   0.534570 0.000050 0.050000 -0.576900
O16   O     O_R   0.999950 0.534570 0.050000 -0.576899
O17   O     O_R   0.465430 0.999950 0.050000 -0.576896
O18   O     O_R   0.500050 0.034570 0.450000 -0.576900
O19   O     O_R   0.034570 0.499950 0.450000 -0.576898
O20   O     O_R   0.499950 0.965430 0.450000 -0.576901
O21   O     O_R   0.965430 0.500050 0.450000 -0.576895
O22   O     O_R   0.500050 0.965430 0.550000 -0.576900
O23   O     O_R   0.059790 0.465430 0.999910 -0.574080
O24   O     O_R   0.034570 0.500050 0.550000 -0.576902
O25   O     O_R   0.499950 0.034570 0.550000 -0.576899
O26   O     O_R   0.965430 0.499950 0.550000 -0.576895
O27   O     O_R   0.500080 0.440100 0.971010 -0.576512
O28   O     O_R   0.440100 0.499920 0.971010 -0.576510
O29   O     O_R   0.499920 0.559900 0.971010 -0.576523
O30   O     O_R   0.559900 0.500080 0.971010 -0.576515
O31   O     O_R   0.500080 0.559900 0.028990 -0.576519
O32   O     O_R   0.440100 0.500080 0.028990 -0.576516
O33   O     O_R   0.499920 0.440100 0.028990 -0.576515
O34   O     O_R   0.465430 0.940210 0.999910 -0.574079
O35   O     O_R   0.559900 0.499920 0.028990 -0.576508
O36   O     O_R   0.000080 0.940100 0.471010 -0.576511
O37   O     O_R   0.940100 0.999920 0.471010 -0.576512
O38   O     O_R   0.999920 0.059900 0.471010 -0.576521
O39   O     O_R   0.059900 0.000080 0.471010 -0.576520
O40   O     O_R   0.000080 0.059900 0.528990 -0.576519
O41   O     O_R   0.940100 0.000080 0.528990 -0.576521
O42   O     O_R   0.999920 0.940100 0.528990 -0.576513
O43   O     O_R   0.059900 0.999920 0.528990 -0.576510
O44   O     O_2   0.905617 0.441006 0.879723 -0.526980
O45   O     O_R   0.940210 0.465430 0.000090 -0.574090
O46   O     O_2   0.441030 0.094397 0.879722 -0.527011
O47   O     O_2   0.094379 0.559001 0.879721 -0.526997
O48   O     O_2   0.558972 0.905602 0.879721 -0.527019
O49   O     O_2   0.905613 0.558987 0.120280 -0.526972
O50   O     O_2   0.441028 0.905603 0.120279 -0.527020
O51   O     O_2   0.094387 0.441013 0.120277 -0.527007
O52   O     O_2   0.558968 0.094399 0.120278 -0.527014
O53   O     O_2   0.405635 0.940976 0.379723 -0.526989
O54   O     O_2   0.941026 0.594395 0.379722 -0.526996
O55   O     O_2   0.594361 0.059029 0.379721 -0.526998
O56   O     O_R   0.534570 0.940210 0.000090 -0.574080
O57   O     O_2   0.058975 0.405604 0.379721 -0.527019
O58   O     O_2   0.405611 0.058985 0.620280 -0.526984
O59   O     O_2   0.941004 0.405618 0.620278 -0.527018
O60   O     O_2   0.594389 0.941015 0.620277 -0.527012
O61   O     O_2   0.058989 0.594386 0.620277 -0.526996
O62   O     O_R   0.059790 0.534570 0.000090 -0.574078
O63   O     O_R   0.465430 0.059790 0.000090 -0.574078
O64   O     O_R   0.440210 0.034570 0.499910 -0.574084

loop_
_geom_bond_atom_site_label_1
_geom_bond_atom_site_label_2
_ccdc_geom_bond_type
C16   C173  A    
C143  O42   A    
C142  O35   A    
C84   C171  S    
C33   C156  S    
C105  C131  T    
C27   C158  A    
C106  C132  T    
C73   C160  S    
C45   C57   A    
C56   C79   A    
C75   C162  S    
C24   C98   A    
C79   C99   A    
Cu5   O15   S    
N7    N11   A    
C152  O18   A    
Cu1   Cu6   S    
C148  O9    A    
C82   O57   D    
C11   H4    S    
C166  H14   S    
C36   N7    A    
C53   H37   S    
N1    N6    A    
C51   H35   S    
C111  C125  S    
C85   H60   S    
C13   H16   S    
C97   C115  S    
C74   O49   D    
C117  C126  T    
C65   C108  S    
C25   C34   S    
Cu2   Cu12  S    
C119  C128  T    
C32   C172  A    
C133  O8    A    
C83   O58   D    
C96   C114  S    
Cu5   Cu7   S    
C10   C21   A    
C6    H62   S    
C112  C138  T    
C61   C104  S    
C140  O32   A    
C47   C64   A    
C100  O62   A    
C89   O12   A    
C100  C124  S    
C55   C92   A    
C12   C23   A    
C9    C167  A    
Cu7   O63   S    
C152  O20   A    
Cu8   O7    S    
C26   C148  S    
C128  C144  S    
Cu11  O26   S    
Cu9   O2    S    
C32   C154  S    
C31   C167  A    
Cu11  O4    S    
C11   C169  A    
C3    H34   S    
C84   H59   S    
N5    N9    A    
C132  C140  S    
C95   C166  A    
C91   H18   S    
C43   C61   A    
C16   C25   A    
C78   C165  S    
C44   H28   S    
Cu8   O25   S    
Cu6   O14   S    
C88   C102  A    
C39   N13   A    
C72   O47   D    
C81   O55   D    
C10   H3    S    
C148  O11   A    
C70   C157  S    
C2    C96   A    
C134  C141  S    
C154  O22   A    
C15   C172  A    
C39   N15   A    
C72   H47   S    
C13   C97   A    
C174  H1    S    
C6    C163  A    
C10   C168  A    
C23   C36   S    
C149  O13   A    
C4    C161  A    
C52   C91   A    
C102  C119  S    
C48   H31   S    
C79   H22   S    
C90   H24   S    
C60   H43   S    
C111  O56   A    
C155  O4    A    
C5    C20   A    
C6    C19   A    
C156  O24   A    
C76   H51   S    
C101  C118  S    
C136  C143  S    
Cu9   Cu11  S    
C1    O1    A    
C55   H39   S    
C73   H48   S    
C59   C67   A    
C87   C101  A    
Cu10  O3    S    
C46   H13   S    
C21   C38   S    
C80   H54   S    
Cu6   O45   S    
C153  O19   A    
C77   H52   S    
C71   H46   S    
Cu2   O31   S    
Cu6   O23   S    
Cu3   O38   S    
C35   C43   A    
C157  C174  A    
Cu12  O30   S    
C86   H61   S    
C141  O29   A    
C82   C169  S    
N2    N12   A    
C14   C25   A    
C49   C64   A    
C57   H11   S    
C50   C63   A    
C51   C62   A    
C155  O6    A    
C151  O17   A    
C28   C161  A    
C78   H53   S    
C88   H25   S    
C120  C129  T    
C108  C135  T    
C122  O64   A    
C149  O10   A    
C77   O52   D    
C7    H63   S    
C99   C117  S    
C67   C110  S    
C30   C152  S    
Cu4   O43   S    
C37   N4    A    
C34   N8    A    
Cu12  O28   S    
Cu4   O41   S    
C55   C69   A    
C143  O36   A    
C114  C123  T    
C37   N2    A    
C135  C147  S    
C159  C176  A    
C118  C127  T    
Cu10  O22   S    
C35   H9    S    
C77   C164  S    
C145  O37   A    
Cu7   O13   S    
C14   H6    S    
C53   C94   A    
C29   C162  A    
C30   C165  A    
C14   C171  A    
C75   H50   S    
Cu1   O1    S    
C116  C125  T    
Cu9   O6    S    
Cu11  O8    S    
C133  O2    A    
N3    N15   A    
C138  C146  S    
C87   H26   S    
C46   C98   A    
Cu3   O36   S    
C130  C142  S    
C1    C121  S    
C139  O33   A    
C131  C139  S    
C19   C40   S    
C52   C65   A    
C60   C66   A    
C13   C50   A    
C158  C175  A    
C141  O31   A    
C113  C121  T    
C147  O43   A    
C76   C163  S    
C91   C99   A    
C93   H20   S    
C28   C163  A    
C40   N14   A    
Cu4   O40   S    
C24   H15   S    
C12   H5    S    
C103  C120  S    
C154  O25   A    
C76   O51   D    
C68   C96   A    
C72   C159  S    
C137  C145  S    
Cu5   O10   S    
C69   C112  S    
C80   O54   D    
C34   N6    A    
C17   C42   S    
C54   C93   A    
N4    N14   A    
C8    H64   S    
C153  O21   A    
C85   O60   D    
C15   H7    S    
C38   N3    A    
C146  O40   A    
C104  C130  T    
C29   C164  A    
Cu3   O39   S    
C70   O44   D    
C47   H30   S    
C73   O48   D    
C122  O5    A    
C29   C151  S    
C129  C155  S    
C20   C39   S    
C56   H40   S    
C31   C169  A    
C42   N1    A    
C22   C37   S    
Cu2   O35   S    
C66   C109  S    
Cu7   O34   S    
C16   H8    S    
Cu1   O16   S    
C26   C159  A    
C150  O16   A    
C63   C106  S    
C58   C90   A    
Cu4   O42   S    
C144  O7    A    
C9    H2    S    
C33   C171  A    
C75   O50   D    
C17   C174  A    
C71   C158  S    
C46   C47   A    
Cu8   O18   S    
C115  C124  T    
C110  C137  T    
C94   H19   S    
C127  C133  S    
C93   C102  A    
Cu5   O12   S    
C58   C69   A    
Cu6   O11   S    
C35   C95   A    
C107  C134  T    
C111  O34   A    
C7    C164  A    
C176  H23   S    
C156  O26   A    
C86   C173  S    
C5    C162  A    
C81   H55   S    
C41   N9    A    
C30   C168  A    
C139  O27   A    
C45   C63   A    
C89   O63   A    
C81   C168  S    
Cu8   Cu10  S    
C5    H56   S    
C70   H44   S    
C90   C103  A    
C2    C51   A    
C71   O46   D    
Cu3   Cu4   S    
C145  O41   A    
Cu7   O17   S    
C48   C166  A    
C146  O38   A    
C7    C20   A    
Cu2   O32   S    
Cu3   O37   S    
C50   H33   S    
C28   C150  S    
C1    O45   A    
C45   H29   S    
C4    H45   S    
C42   N10   A    
C43   H27   S    
Cu10  O5    S    
C62   C105  S    
C3    C18   A    
Cu2   O33   S    
C100  O23   A    
C9    C22   A    
C56   C65   A    
C83   C170  S    
C147  O39   A    
C26   C157  A    
C68   H10   S    
C150  O14   A    
C38   N16   A    
Cu1   O62   S    
C54   H38   S    
C92   C103  A    
C59   C88   A    
C4    C19   A    
C94   C101  A    
Cu8   O64   S    
C33   C173  A    
C80   C167  S    
C17   C176  A    
Cu1   O9    S    
C18   C175  A    
C15   C23   A    
C57   C97   A    
C27   C149  S    
C109  C136  T    
C86   O61   D    
C92   H21   S    
Cu9   O24   S    
C31   C153  S    
C60   C87   A    
C85   C172  S    
C49   H32   S    
C41   N11   A    
C144  O3    A    
N8    N10   A    
C8    C165  A    
C18   C41   S    
Cu5   O56   S    
C12   C170  A    
C54   C67   A    
C89   C123  S    
C44   C62   A    
C27   C160  A    
C78   O53   D    
C122  C126  S    
Cu11  O21   S    
C151  O15   A    
C98   C116  S    
C142  O30   A    
C8    C21   A    
C2    H17   S    
C36   N5    A    
C53   C66   A    
Cu12  O29   S    
C84   O59   D    
C3    C160  A    
C44   C68   A    
C64   C107  S    
C24   C49   A    
C32   C170  A    
C82   H57   S    
C140  O28   A    
C74   C161  S    
C52   H36   S    
C11   C22   A    
C74   H49   S    
Cu9   O19   S    
C58   H41   S    
Cu10  O20   S    
C40   N12   A    
C48   C61   A    
C95   C113  S    
C83   H58   S    
N13   N16   A    
C175  H12   S    
Cu12  O27   S    
C59   H42   S    
