data_mof_unit_33988.cif
_audit_creation_date              2012-12-10T17:47:47-0500
_audit_creation_method            fapswitch 2.2
_symmetry_space_group_name_H-M    P1
_symmetry_Int_Tables_number       1
_space_group_crystal_system       triclinic
_cell_length_a                    10.665829
_cell_length_b                    10.783521
_cell_length_c                    9.893023
_cell_angle_alpha                 88.149063
_cell_angle_beta                  90.599773
_cell_angle_gamma                 94.480206
_cell_volume                      1133.74319024

loop_
_atom_site_label
_atom_site_type_symbol
_atom_type_description
_atom_site_fract_x
_atom_site_fract_y
_atom_site_fract_z
_atom_type_partial_charge
C1    C     C_R   0.489191 0.259100 0.502466 0.908392
C2    C     C_R   0.502922 0.054682 0.626416 0.066458
C3    C     C_R   0.477637 0.124242 0.507022 -0.157303
C4    C     C_R   0.257575 0.495950 0.499688 0.819243
C5    C     C_R   0.464929 0.065297 0.383178 -0.321514
C6    C     C_R   0.478645 0.939174 0.376486 0.478648
C7    C     C_R   0.523013 0.875832 0.492205 -0.178394
C8    C     C_R   0.325344 0.339838 0.144573 -0.181271
C9    C     C_R   0.236539 0.263492 0.076115 -0.217975
C10   C     C_R   0.234429 0.265892 0.936100 -0.203186
C11   C     C_R   0.321530 0.344192 0.863986 -0.214090
C12   C     C_3   0.878003 0.486252 0.502066 0.004337
C13   C     C_R   0.412395 0.422680 0.929705 0.185610
C14   C     C_R   0.413326 0.421624 0.074371 0.174315
C15   C     C_R   0.581939 0.576130 0.070153 -0.094401
C16   C     C_R   0.511428 0.740828 0.497692 0.933212
C17   C     C_R   0.581708 0.575978 0.927270 -0.084901
C18   C     C_R   0.741603 0.492577 0.500819 0.939142
C19   C     C_3   0.072181 0.479068 0.647603 -0.461171
C20   C     C_3   0.928913 0.460504 0.649119 0.263255
C21   C     C_3   0.079712 0.613796 0.434789 -0.419648
C22   C     C_3   0.063349 0.380658 0.416900 -0.407854
C23   C     C_3   0.936778 0.613890 0.444689 -0.431567
C24   C     C_3   0.120990 0.491751 0.499640 0.139017
C25   C     C_3   0.334481 0.879509 0.212761 0.093423
C26   C     C_3   0.309581 0.784156 0.103693 -0.777418
C27   C     C_3   0.919009 0.383893 0.408794 -0.328335
C28   C     C_R   0.485620 0.094084 0.758955 -0.085539
C29   C     C_R   0.535150 0.031403 0.870281 -0.154666
C30   C     C_R   0.613641 0.937141 0.848781 -0.244572
C31   C     C_R   0.630266 0.897844 0.717228 0.443705
C32   C     C_R   0.552412 0.940589 0.611757 -0.055376
H1    H     H_    0.102909 0.564773 0.702934 0.175753
H2    H     H_    0.114339 0.401112 0.702542 0.205816
H3    H     H_    0.323057 0.331532 0.252127 0.191382
H4    H     H_    0.169850 0.201312 0.132141 0.160548
H5    H     H_    0.166732 0.204859 0.882874 0.202972
H6    H     H_    0.319971 0.335597 0.756978 0.187861
H7    H     H_    0.647481 0.639014 0.873684 0.198062
H8    H     H_    0.895926 0.529296 0.718815 0.161181
H9    H     H_    0.125540 0.695630 0.487031 0.179560
H10   H     H_    0.915630 0.689474 0.510925 0.273036
H11   H     H_    0.101350 0.385602 0.312452 0.176101
H12   H     H_    0.890818 0.404660 0.302273 0.189479
H13   H     H_    0.088717 0.291208 0.464690 0.202931
H14   H     H_    0.872458 0.291092 0.437223 0.230782
H15   H     H_    0.867056 0.007493 0.787510 0.404122
H16   H     H_    0.314037 0.972309 0.169429 0.141836
H17   H     H_    0.269086 0.853206 0.298127 0.128053
H18   H     H_    0.324406 0.689605 0.145570 0.262662
H19   H     H_    0.210919 0.785343 0.067013 0.212432
H20   H     H_    0.374038 0.806096 0.017234 0.255003
H21   H     H_    0.970377 0.349692 0.914416 0.340975
H22   H     H_    0.108095 0.622408 0.326647 0.195849
H23   H     H_    0.897349 0.635784 0.342774 0.200244
H24   H     H_    0.444719 0.116802 0.290719 0.176418
H25   H     H_    0.430484 0.169140 0.777983 0.157372
H26   H     H_    0.521294 0.062793 0.971538 0.182411
H27   H     H_    0.668684 0.902147 0.932219 0.184492
H28   H     H_    0.648679 0.638599 0.122683 0.164029
N1    N     N_R   0.498810 0.498800 0.142780 -0.131506
N2    N     N_R   0.498760 0.498720 0.857170 -0.119762
O1    O     O_R   0.500000 0.316780 0.614690 -0.613364
O2    O     O_2   0.811375 0.888461 0.533148 -0.313075
O3    O     O_3   0.889922 0.920832 0.780172 -0.512837
O4    O     O_3   0.461838 0.880562 0.254096 -0.590157
O5    O     O_2   0.747797 0.265790 0.680929 -0.263576
O6    O     O_2   0.965458 0.212608 0.681143 -0.340772
O7    O     O_3   0.883686 0.316224 0.892551 -0.532811
O8    O     O_R   0.499990 0.316750 0.385360 -0.640918
O9    O     O_R   0.314800 0.499990 0.614670 -0.652111
O10   O     O_R   0.314790 0.499970 0.385330 -0.655409
O11   O     O_R   0.500010 0.683250 0.614640 -0.623159
O12   O     O_R   0.500000 0.683220 0.385310 -0.561969
O13   O     O_R   0.685210 0.500030 0.614670 -0.546590
O14   O     O_R   0.685200 0.500010 0.385330 -0.635303
O15   O     O_2   0.781079 0.715380 0.698786 -0.382227
S1    S     S_3+6 0.780014 0.852707 0.677712 -0.004940
S2    S     S_3+6 0.879303 0.308051 0.723101 -0.006454
Zn1   Zn    Zn3+2 0.500010 0.500020 0.653130 0.999727
Zn2   Zn    Zn3+2 0.499990 0.499980 0.346870 0.956276

loop_
_geom_bond_atom_site_label_1
_geom_bond_atom_site_label_2
_ccdc_geom_bond_type
C18   O13   A    
C15   H28   S    
C5    H24   S    
C19   C20   S    
H21   O7    S    
O15   S1    D    
C12   C23   S    
C23   H10   S    
C10   H5    S    
C16   O12   A    
N2    Zn1   S    
C28   C29   A    
C26   H18   S    
C21   H22   S    
C20   H8    S    
C2    C32   A    
C17   H7    S    
O8    Zn2   S    
C27   H12   S    
C13   N2    A    
C31   C32   A    
C8    C9    A    
C9    H4    S    
C18   O14   A    
C7    C32   A    
C9    C10   A    
O10   Zn2   S    
O6    S2    D    
C13   C14   A    
C1    O1    A    
O9    Zn1   S    
O1    Zn1   S    
C12   C27   S    
C16   O11   A    
O5    S2    D    
C19   H1    S    
C25   C26   S    
C28   H25   S    
C14   N1    A    
C1    C3    S    
C8    H3    S    
C11   H6    S    
C29   C30   A    
C26   H20   S    
C17   N2    A    
C22   H11   S    
C30   C31   A    
C30   H27   S    
C12   C20   S    
C15   N1    A    
C25   H16   S    
C21   H9    S    
C27   H14   S    
C7    C16   S    
C22   C27   S    
C21   C23   S    
C22   C24   S    
O7    S2    S    
O12   Zn2   S    
C4    O10   A    
C31   S1    S    
O13   Zn1   S    
C15   C17   A    
C8    C14   A    
O3    S1    S    
C20   S2    S    
O2    S1    D    
C25   O4    S    
C3    C5    A    
C19   H2    S    
O14   Zn2   S    
C23   H23   S    
C6    C7    A    
C1    O8    A    
C2    C3    A    
N1    Zn2   S    
C26   H19   S    
C11   C13   A    
C5    C6    A    
C4    C24   S    
O11   Zn1   S    
C19   C24   S    
C25   H17   S    
C10   C11   A    
C6    O4    S    
C22   H13   S    
C29   H26   S    
C21   C24   S    
C12   C18   S    
C2    C28   A    
H15   O3    S    
C4    O9    A    
