data_mof_unit_35868.cif
_audit_creation_date              2012-12-10T20:36:37-0500
_audit_creation_method            fapswitch 2.2
_symmetry_space_group_name_H-M    P1
_symmetry_Int_Tables_number       1
_space_group_crystal_system       triclinic
_cell_length_a                    10.51352
_cell_length_b                    10.661502
_cell_length_c                    9.860964
_cell_angle_alpha                 90.129738
_cell_angle_beta                  90.016539
_cell_angle_gamma                 90.167808
_cell_volume                      1105.30698927

loop_
_atom_site_label
_atom_site_type_symbol
_atom_type_description
_atom_site_fract_x
_atom_site_fract_y
_atom_site_fract_z
_atom_type_partial_charge
C1    C     C_R   0.507278 0.259844 0.499563 0.907167
C2    C     C_3   0.959909 0.578805 0.402392 -0.237732
C3    C     C_3   0.039512 0.459160 0.376588 -0.239860
C4    C     C_3   0.122240 0.493900 0.499695 -0.104423
C5    C     C_R   0.523591 0.064108 0.621653 0.066903
C6    C     C_R   0.533372 0.128368 0.499281 -0.204964
C7    C     C_R   0.572429 0.064480 0.379909 0.475258
C8    C     C_R   0.568572 0.932457 0.383250 -0.389793
C9    C     C_R   0.530653 0.870977 0.501971 -0.145996
C10   C     C_R   0.523526 0.936606 0.623274 0.112696
C11   C     C_3   0.426910 0.930057 0.734162 -0.453259
C12   C     C_R   0.257355 0.495574 0.499958 0.948216
C13   C     C_3   0.425979 0.072154 0.731737 -0.473749
C14   C     C_R   0.441388 0.405714 0.070978 0.279249
C15   C     C_R   0.567666 0.586660 0.072239 -0.133085
C16   C     C_R   0.567623 0.586708 0.928183 -0.137416
C17   C     C_R   0.441582 0.405746 0.928441 0.165098
C18   C     C_3   0.304419 0.372365 0.922215 -0.449790
C19   C     C_3   0.303810 0.372546 0.076066 -0.563034
C20   C     C_R   0.505347 0.740046 0.500283 0.927193
C21   C     C_R   0.742502 0.502503 0.500030 0.888016
C22   C     C_3   0.036722 0.418580 0.594245 0.481176
C23   C     C_3   0.953126 0.381795 0.472462 -0.242315
C24   C     C_3   0.877027 0.501796 0.500063 -0.093723
C25   C     C_3   0.958962 0.537198 0.624217 -0.348362
C26   C     C_3   0.043524 0.611152 0.525602 0.477224
H1    H     H_    0.910748 0.288415 0.450425 0.140218
H2    H     H_    0.467253 0.890935 0.829291 0.195681
H3    H     H_    0.334219 0.111905 0.695953 0.213899
H4    H     H_    0.464894 0.114963 0.825921 0.205650
H5    H     H_    0.620270 0.658065 0.126790 0.132516
H6    H     H_    0.620145 0.658169 0.874007 0.139244
H7    H     H_    0.245280 0.448067 0.877598 0.253655
H8    H     H_    0.289956 0.277899 0.877489 0.223138
H9    H     H_    0.245086 0.449058 0.119731 0.217459
H10   H     H_    0.287368 0.278154 0.120495 0.211315
H11   H     H_    0.922641 0.569997 0.723857 0.149205
H12   H     H_    0.922848 0.643901 0.324161 0.134286
H13   H     H_    0.075056 0.426275 0.276886 0.164974
H14   H     H_    0.586654 0.877087 0.293452 0.152835
H15   H     H_    0.335860 0.886814 0.700622 0.230133
N1    N     N_R   0.499140 0.499140 0.142800 -0.102313
N2    N     N_R   0.499140 0.499180 0.857150 -0.102933
O1    O     O_R   0.500020 0.316790 0.614690 -0.625664
O2    O     O_R   0.500000 0.316760 0.385350 -0.561290
O3    O     O_R   0.313960 0.499990 0.614650 -0.591523
O4    O     O_R   0.313940 0.499950 0.385310 -0.635265
O5    O     O_R   0.500000 0.683240 0.614650 -0.622359
O6    O     O_R   0.499980 0.683210 0.385310 -0.628706
O7    O     O_R   0.686060 0.500050 0.614690 -0.641725
O8    O     O_R   0.686040 0.500010 0.385350 -0.612188
Zn1   Zn    Zn3+2 0.500010 0.500020 0.653130 0.950547
Zn2   Zn    Zn3+2 0.499990 0.499980 0.346870 0.970924
O9    O     O_3   0.084145 0.335319 0.693021 -0.624795
C27   C     C_3   0.980899 0.275377 0.758119 0.121433
H16   H     H_    0.927122 0.215924 0.685057 0.132301
H17   H     H_    0.914822 0.344782 0.804453 0.151000
C28   C     C_3   0.030410 0.191216 0.870659 -0.877753
H18   H     H_    0.064552 0.249105 0.957020 0.258086
H19   H     H_    0.953164 0.128964 0.907342 0.214366
H20   H     H_    0.109468 0.132065 0.832681 0.260809
O10   O     O_3   0.102087 0.727568 0.553607 -0.614861
C29   C     C_3   0.009505 0.822924 0.551515 0.101220
H21   H     H_    0.930237 0.802112 0.623106 0.133554
H22   H     H_    0.970762 0.834963 0.447358 0.134710
C30   C     C_3   0.070801 0.946086 0.594028 -0.830703
H23   H     H_    0.152277 0.968433 0.526459 0.261045
H24   H     H_    0.999955 0.022680 0.587154 0.208998
H25   H     H_    0.105115 0.939093 0.700167 0.248791
O11   O     O_3   0.602953 0.134919 0.264457 -0.586870
C31   C     C_3   0.651410 0.064365 0.154717 0.095683
H26   H     H_    0.575667 0.003116 0.111369 0.139285
H27   H     H_    0.735198 0.007931 0.186607 0.130164
C32   C     C_3   0.694559 0.153178 0.043328 -0.833049
H28   H     H_    0.772184 0.214958 0.081066 0.259130
H29   H     H_    0.729343 0.098239 0.955136 0.197360
H30   H     H_    0.613804 0.211817 0.009453 0.247688

loop_
_geom_bond_atom_site_label_1
_geom_bond_atom_site_label_2
_ccdc_geom_bond_type
C30   H24   S    
C27   H16   S    
C29   H22   S    
C3    C23   S    
C7    O11   S    
C7    C8    A    
C22   O9    S    
C20   O6    A    
C32   H29   S    
C13   H3    S    
C19   H10   S    
N1    Zn2   S    
C5    C6    A    
N2    Zn1   S    
C30   H25   S    
C28   H19   S    
C15   C16   A    
O3    Zn1   S    
C18   C19   S    
C9    C20   S    
C25   H11   S    
C8    C9    A    
C32   H30   S    
O7    Zn1   S    
C23   C24   S    
O11   C31   S    
C23   H1    S    
C4    C12   S    
C9    C10   A    
C5    C13   S    
O4    Zn2   S    
O1    Zn1   S    
C28   H20   S    
C30   H23   S    
C29   C30   S    
C3    H13   S    
C14   C17   A    
C12   O4    A    
C21   O7    A    
C25   C26   S    
C32   H28   S    
C1    C6    S    
C13   H4    S    
C24   C25   S    
C12   O3    A    
C31   H27   S    
C28   H18   S    
C22   C25   S    
O8    Zn2   S    
C17   N2    A    
O10   C29   S    
C4    C22   S    
C2    H12   S    
C1    O1    A    
C17   C18   S    
C2    C26   S    
C18   H8    S    
C16   N2    A    
C20   O5    A    
C27   H17   S    
C2    C24   S    
C27   C28   S    
C3    C4    S    
C21   O8    A    
O9    C27   S    
C14   C19   S    
C15   N1    A    
C31   C32   S    
C4    C26   S    
C15   H5    S    
C6    C7    A    
C16   H6    S    
C14   N1    A    
C2    C3    S    
C26   O10   S    
C5    C10   A    
C19   H9    S    
C11   C13   S    
C1    O2    A    
C11   H2    S    
O6    Zn2   S    
C11   H15   S    
C18   H7    S    
C10   C11   S    
O2    Zn2   S    
C29   H21   S    
O5    Zn1   S    
C31   H26   S    
C21   C24   S    
C22   C23   S    
C8    H14   S    
