data_mof_unit_20510.cif
_audit_creation_date              2012-12-11T14:45:25-0500
_audit_creation_method            fapswitch 2.2
_symmetry_space_group_name_H-M    P1
_symmetry_Int_Tables_number       1
_space_group_crystal_system       triclinic
_cell_length_a                    24.895398
_cell_length_b                    7.175059
_cell_length_c                    14.436482
_cell_angle_alpha                 90.002939
_cell_angle_beta                  103.078918
_cell_angle_gamma                 91.683223
_cell_volume                      2510.69296438

loop_
_atom_site_label
_atom_site_type_symbol
_atom_type_description
_atom_site_fract_x
_atom_site_fract_y
_atom_site_fract_z
_atom_type_partial_charge
O1    O     O_R   0.319150 0.364170 0.330530 -0.538142
O2    O     O_R   0.680850 0.635830 0.669470 -0.538142
O3    O     O_R   0.180850 0.864170 0.169470 -0.532904
O4    O     O_R   0.819150 0.135830 0.830530 -0.532904
O5    O     O_R   0.210330 0.696850 0.354180 -0.537857
O6    O     O_R   0.789670 0.303150 0.645820 -0.537858
O7    O     O_R   0.289670 0.196850 0.145820 -0.539392
O8    O     O_R   0.710330 0.803150 0.854180 -0.539391
C1    C     C_R   0.197533 0.524012 0.378297 0.673016
C2    C     C_R   0.802467 0.475987 0.621703 0.673016
C3    C     C_R   0.302700 0.026747 0.121876 0.669952
C4    C     C_R   0.697300 0.973253 0.878124 0.669952
O9    O     O_R   0.320550 0.694110 0.341970 -0.536250
O10   O     O_R   0.679450 0.305890 0.658030 -0.536250
O11   O     O_R   0.179450 0.194110 0.158030 -0.542375
O12   O     O_R   0.820550 0.805890 0.841970 -0.542375
O13   O     O_R   0.291860 0.861000 0.157170 -0.536729
O14   O     O_R   0.708140 0.139000 0.842830 -0.536729
O15   O     O_R   0.208140 0.361000 0.342830 -0.536777
O16   O     O_R   0.791860 0.639000 0.657170 -0.536778
C5    C     C_R   0.341490 0.527904 0.364017 0.704152
C6    C     C_R   0.658510 0.472096 0.635983 0.704152
C7    C     C_R   0.158756 0.022517 0.135727 0.704550
C8    C     C_R   0.841244 0.977483 0.864273 0.704550
O17   O     O_3   0.240460 0.529330 0.189380 -0.374722
O18   O     O_3   0.759540 0.470670 0.810620 -0.374722
O19   O     O_3   0.259540 0.029330 0.310620 -0.372938
O20   O     O_3   0.740460 0.970670 0.689380 -0.372938
V1    V     V_3+5 0.251770 0.805510 0.261240 1.426021
V2    V     V_3+5 0.748230 0.194490 0.738760 1.426021
V3    V     V_3+5 0.248230 0.305510 0.238760 1.419340
V4    V     V_3+5 0.751770 0.694490 0.761240 1.419340
C9    C     C_R   0.104019 0.001678 0.068605 -0.106356
C10   C     C_R   0.895981 0.998322 0.931395 -0.106356
C11   C     C_R   0.396511 0.528595 0.431124 -0.102966
C12   C     C_R   0.603489 0.471405 0.568876 -0.102966
C13   C     C_R   0.961790 0.179569 0.052998 0.179197
C14   C     C_R   0.038210 0.820431 0.947002 0.179197
C15   C     C_R   0.535935 0.338907 0.432127 0.179832
C16   C     C_R   0.464065 0.661093 0.567873 0.179832
C17   C     C_R   0.906463 0.135451 0.004442 0.148152
C18   C     C_R   0.093537 0.864549 0.995557 0.148152
C19   C     C_R   0.591524 0.361368 0.484811 0.150476
C20   C     C_R   0.408476 0.638632 0.515189 0.150476
C21   C     C_R   0.939403 0.894475 0.914380 -0.266190
C22   C     C_R   0.060597 0.105525 0.085620 -0.266190
C23   C     C_R   0.561435 0.570319 0.594494 -0.266441
C24   C     C_R   0.438565 0.429681 0.405506 -0.266441
C25   C     C_R   0.994330 0.927291 0.965494 0.059305
C26   C     C_R   0.005670 0.072709 0.034506 0.059305
C27   C     C_R   0.506462 0.559170 0.540633 0.059041
C28   C     C_R   0.493538 0.440830 0.459366 0.059041
H1    H     H_    0.070336 0.207885 0.142409 0.147230
H2    H     H_    0.929664 0.792115 0.857591 0.147230
H3    H     H_    0.427728 0.348185 0.340567 0.146233
H4    H     H_    0.572272 0.651815 0.659433 0.146233
C29   C     C_R   0.664882 0.975082 0.950702 -0.025459
C30   C     C_R   0.335118 0.024918 0.049298 -0.025459
C31   C     C_R   0.834950 0.489067 0.549584 -0.021947
C32   C     C_R   0.165050 0.510933 0.450416 -0.021947
C33   C     C_R   0.656611 0.908362 0.110697 -0.161784
C34   C     C_R   0.343389 0.091638 0.889303 -0.161784
C35   C     C_R   0.841289 0.546426 0.387878 -0.159916
C36   C     C_R   0.158711 0.453574 0.612122 -0.159917
C37   C     C_R   0.688857 0.924608 0.043854 -0.171235
C38   C     C_R   0.311143 0.075392 0.956145 -0.171235
C39   C     C_R   0.809506 0.525211 0.455223 -0.173549
C40   C     C_R   0.190494 0.474789 0.544777 -0.173549
C41   C     C_R   0.608480 0.009231 0.924103 -0.214361
C42   C     C_R   0.391520 0.990769 0.075897 -0.214361
C43   C     C_R   0.892157 0.473927 0.577007 -0.212079
C44   C     C_R   0.107843 0.526073 0.422992 -0.212079
C45   C     C_R   0.574321 0.989125 0.990000 0.081532
C46   C     C_R   0.425679 0.010875 0.010000 0.081532
C47   C     C_R   0.925631 0.496523 0.510330 0.082326
C48   C     C_R   0.074369 0.503477 0.489670 0.082326
C49   C     C_R   0.599695 0.937892 0.084460 0.142091
C50   C     C_R   0.400305 0.062108 0.915540 0.142091
C51   C     C_R   0.898915 0.533667 0.414595 0.140642
C52   C     C_R   0.101085 0.466333 0.585405 0.140642
C53   C     C_R   0.515963 0.013977 0.964942 0.060409
C54   C     C_R   0.484037 0.986023 0.035058 0.060409
C55   C     C_R   0.984457 0.485846 0.535608 0.060191
C56   C     C_R   0.015543 0.514154 0.464392 0.060191
C57   C     C_R   0.511547 0.934956 0.127892 -0.193132
C58   C     C_R   0.488453 0.065044 0.872108 -0.193132
C59   C     C_R   0.986783 0.551896 0.370351 -0.193857
C60   C     C_R   0.013217 0.448104 0.629649 -0.193857
C61   C     C_R   0.568114 0.912632 0.151855 -0.203472
C62   C     C_R   0.431886 0.087368 0.848145 -0.203472
C63   C     C_R   0.929761 0.560194 0.346222 -0.199257
C64   C     C_R   0.070239 0.439805 0.653778 -0.199257
H5    H     H_    0.587284 0.872807 0.223960 0.123136
H6    H     H_    0.412715 0.127193 0.776040 0.123136
H7    H     H_    0.909596 0.589412 0.273121 0.123128
H8    H     H_    0.090404 0.410588 0.726879 0.123128
H9    H     H_    0.407413 0.955936 0.149350 0.098509
H10   H     H_    0.592587 0.044063 0.850650 0.098509
H11   H     H_    0.091086 0.551903 0.348748 0.095432
H12   H     H_    0.908914 0.448097 0.651251 0.095432
H13   H     H_    0.267581 0.104134 0.935574 0.105780
H14   H     H_    0.732419 0.895865 0.064426 0.105780
H15   H     H_    0.234837 0.461863 0.566020 0.103821
H16   H     H_    0.765163 0.538137 0.433980 0.103821
H17   H     H_    0.675999 0.868570 0.182665 0.113795
H18   H     H_    0.324001 0.131430 0.817335 0.113795
H19   H     H_    0.820847 0.574994 0.314877 0.113198
H20   H     H_    0.179153 0.425006 0.685123 0.113198
H21   H     H_    0.490643 0.909727 0.184435 0.130096
H22   H     H_    0.509357 0.090273 0.815565 0.130096
H23   H     H_    0.006982 0.576894 0.312903 0.129780
H24   H     H_    0.993018 0.423105 0.687097 0.129780
C65   C     C_3   0.141207 0.771096 0.966645 -0.751552
H25   H     H_    0.181623 0.842191 0.995992 0.189255
H26   H     H_    0.143302 0.623894 0.990613 0.214032
H27   H     H_    0.135791 0.776417 0.888196 0.201153
C66   C     C_3   0.858793 0.228904 0.033354 -0.751552
H28   H     H_    0.818377 0.157809 0.004008 0.189255
H29   H     H_    0.864209 0.223584 0.111804 0.201153
H30   H     H_    0.856698 0.376106 0.009386 0.214032
C67   C     C_3   0.362024 0.724711 0.551207 -0.762617
H31   H     H_    0.320610 0.669091 0.514949 0.189006
H32   H     H_    0.366118 0.691298 0.627558 0.203575
H33   H     H_    0.363122 0.878227 0.541692 0.212451
C68   C     C_3   0.637976 0.275289 0.448792 -0.762617
H34   H     H_    0.679390 0.330909 0.485051 0.189006
H35   H     H_    0.636878 0.121773 0.458308 0.212451
H36   H     H_    0.633881 0.308702 0.372442 0.203575
C69   C     C_3   0.974623 0.341321 0.123413 -0.812226
H37   H     H_    0.938806 0.427041 0.126056 0.217235
H38   H     H_    0.991145 0.287517 0.196077 0.209863
H39   H     H_    0.005525 0.438501 0.103144 0.209860
C70   C     C_3   0.025377 0.658679 0.876586 -0.812226
H40   H     H_    0.061194 0.572961 0.873943 0.217235
H41   H     H_    0.994475 0.561500 0.896856 0.209861
H42   H     H_    0.008855 0.712484 0.803923 0.209863
C71   C     C_3   0.521229 0.205539 0.347667 -0.804852
H43   H     H_    0.555697 0.120061 0.337533 0.219223
H44   H     H_    0.488432 0.104504 0.357873 0.204018
H45   H     H_    0.506453 0.285039 0.281239 0.211298
C72   C     C_3   0.478771 0.794461 0.652333 -0.804851
H46   H     H_    0.444303 0.879939 0.662467 0.219222
H47   H     H_    0.493547 0.714961 0.718761 0.211298
H48   H     H_    0.511568 0.895496 0.642127 0.204018

loop_
_geom_bond_atom_site_label_1
_geom_bond_atom_site_label_2
_ccdc_geom_bond_type
O17   V3    S    
C24   H3    S    
C15   C71   S    
O1    C5    A    
C59   C63   A    
O19   V1    S    
O13   V1    S    
O3    C7    A    
C56   C59   A    
O1    V3    S    
C44   C48   A    
O15   V3    S    
C48   C56   A    
C53   C54   A    
C14   C25   A    
C35   C51   A    
C50   C62   A    
O7    C3    A    
C71   H44   S    
C49   C61   A    
C9    C18   A    
C36   C40   A    
O9    V1    S    
C58   H22   S    
O10   V2    S    
C14   C18   A    
C57   H21   S    
C66   H29   S    
O4    C8    A    
C59   H23   S    
C32   C44   A    
C43   H12   S    
C20   C67   S    
C64   H8    S    
C12   C23   A    
O2    V4    S    
C14   C70   S    
O3    V1    S    
C67   H33   S    
C31   C39   A    
C72   H46   S    
C1    O15   A    
C60   C64   A    
C33   C49   A    
C7    C9    S    
C42   C46   A    
C68   H36   S    
C40   H15   S    
C41   C45   A    
O14   V2    S    
C3    C30   S    
C33   H17   S    
C16   C20   A    
C51   C63   A    
C53   C58   A    
C42   H9    S    
C65   H27   S    
C41   H10   S    
O11   C7    A    
C55   C60   A    
O12   C8    A    
C16   C72   S    
O10   C6    A    
C9    C22   A    
C36   C52   A    
C38   H13   S    
C19   C68   S    
C10   C17   A    
C37   H14   S    
C46   C54   A    
C11   C24   A    
C45   C53   A    
C30   C38   A    
C39   H16   S    
C62   H6    S    
O5    V1    S    
C71   H45   S    
C35   C39   A    
O7    V3    S    
C34   C38   A    
C27   C28   A    
O8    V4    S    
C58   C62   A    
C72   H48   S    
C2    O16   A    
C57   C61   A    
O18   V4    S    
C30   C42   A    
C15   C19   A    
C61   H5    S    
C8    C10   S    
C52   C64   A    
O5    C1    A    
C70   H42   S    
C18   C65   S    
C55   C56   A    
C21   C25   A    
O8    C4    A    
O9    C5    A    
C10   C21   A    
C69   H38   S    
C11   C20   A    
C67   H31   S    
C5    C11   S    
C4    C29   S    
O6    V2    S    
C21   H2    S    
C68   H34   S    
C66   H30   S    
C35   H19   S    
C54   C57   A    
C68   H35   S    
C65   H25   S    
O16   V4    S    
C3    O13   A    
C34   C50   A    
C48   C52   A    
C29   C37   A    
O6    C2    A    
C23   C27   A    
O11   V3    S    
C34   H18   S    
O12   V4    S    
C16   C27   A    
C6    C12   S    
C71   H43   S    
C22   C26   A    
C1    C32   S    
C17   C66   S    
C69   H39   S    
C72   H47   S    
C2    C31   S    
C69   H37   S    
O2    C6    A    
C43   C47   A    
C13   C26   A    
C47   C55   A    
C70   H40   S    
C22   H1    S    
O20   V2    S    
C13   C69   S    
C15   C28   A    
C13   C17   A    
C67   H32   S    
C63   H7    S    
C60   H24   S    
C33   C37   A    
C24   C28   A    
C32   C40   A    
C25   C26   A    
C46   C50   A    
C4    O14   A    
C70   H41   S    
C45   C49   A    
C12   C19   A    
C29   C41   A    
C66   H28   S    
C47   C51   A    
O4    V2    S    
C36   H20   S    
C31   C43   A    
C23   H4    S    
C65   H26   S    
C44   H11   S    
