data_mof_unit_23455.cif
_audit_creation_date              2012-12-10T17:48:38-0500
_audit_creation_method            fapswitch 2.2
_symmetry_space_group_name_H-M    P1
_symmetry_Int_Tables_number       1
_space_group_crystal_system       triclinic
_cell_length_a                    15.738507
_cell_length_b                    10.588703
_cell_length_c                    9.921822
_cell_angle_alpha                 90.183485
_cell_angle_beta                  90.564226
_cell_angle_gamma                 92.112005
_cell_volume                      1652.26151926

loop_
_atom_site_label
_atom_site_type_symbol
_atom_type_description
_atom_site_fract_x
_atom_site_fract_y
_atom_site_fract_z
_atom_type_partial_charge
C1    C     C_R   0.503412 0.258583 0.500694 0.865722
C2    C     C_R   0.515294 0.042253 0.871551 -0.229574
C3    C     C_R   0.463795 0.932784 0.873235 -0.085132
C4    C     C_R   0.338390 0.499307 0.499474 0.847145
C5    C     C_R   0.434746 0.877694 0.752505 0.493021
C6    C     C_R   0.460884 0.932238 0.627324 -0.073658
C7    C     C_R   0.497474 0.054606 0.627013 0.059735
C8    C     C_R   0.497764 0.122021 0.503270 -0.185653
C9    C     C_R   0.473851 0.060898 0.382590 -0.218700
C10   C     C_R   0.453615 0.933578 0.381095 0.462993
C11   C     C_R   0.457969 0.866540 0.503031 -0.302806
C12   C     C_3   0.951886 0.453838 0.641299 0.283119
C13   C     C_R   0.390023 0.331470 0.137672 -0.114988
C14   C     C_R   0.336673 0.246831 0.066630 -0.185827
C15   C     C_R   0.336717 0.246484 0.927130 -0.175535
C16   C     C_R   0.483784 0.736201 0.500263 0.900412
C17   C     C_R   0.390063 0.330825 0.857897 -0.081321
C18   C     C_R   0.446092 0.416464 0.926556 0.081648
C19   C     C_R   0.446100 0.416638 0.070952 0.041899
C20   C     C_R   0.551085 0.581592 0.075397 0.493658
C21   C     C_R   0.551504 0.581928 0.931297 0.343631
C22   C     C_R   0.661616 0.500348 0.500532 0.919764
C23   C     C_3   0.917381 0.496158 0.501615 0.194674
C24   C     C_3   0.050199 0.453916 0.638028 -0.442196
C25   C     C_3   0.045256 0.403124 0.388961 0.292780
C26   C     C_3   0.946939 0.404758 0.390615 -0.311353
C27   C     C_1   0.750543 0.499168 0.501741 -0.159436
C28   C     C_3   0.082585 0.496495 0.497743 0.202570
C29   C     C_3   0.953858 0.630766 0.470866 -0.479561
C30   C     C_3   0.051847 0.631197 0.469454 -0.369740
C31   C     C_1   0.825858 0.497808 0.502054 -0.085287
C32   C     C_1   0.174138 0.497495 0.497752 -0.090145
C33   C     C_1   0.249482 0.498418 0.498256 -0.169726
C34   C     C_R   0.531868 0.103440 0.749898 -0.151201
H1    H     H_    0.932982 0.522584 0.720256 0.103792
H2    H     H_    0.385218 0.326225 0.750956 0.196278
H3    H     H_    0.064500 0.305206 0.413430 0.082712
H4    H     H_    0.920377 0.307504 0.408918 0.168205
H5    H     H_    0.921974 0.434600 0.290672 0.201322
H6    H     H_    0.075206 0.665198 0.369963 0.222869
H7    H     H_    0.863415 0.342073 0.715719 0.338994
H8    H     H_    0.076806 0.518941 0.717540 0.166429
H9    H     H_    0.540259 0.082094 0.965116 0.174938
H10   H     H_    0.348980 0.763567 0.672575 0.321085
H11   H     H_    0.392808 0.803288 0.278137 0.339144
H12   H     H_    0.929844 0.663186 0.371350 0.210876
H13   H     H_    0.636386 0.720272 0.091972 0.366019
H14   H     H_    0.604397 0.653400 0.772821 0.400845
H15   H     H_    0.130237 0.397601 0.247978 0.335296
H16   H     H_    0.077890 0.698404 0.547312 0.170231
H17   H     H_    0.932724 0.698795 0.548357 0.182804
H18   H     H_    0.469756 0.111811 0.288314 0.183845
H19   H     H_    0.573442 0.186873 0.753739 0.177435
H20   H     H_    0.446724 0.889983 0.968635 0.199530
H21   H     H_    0.073046 0.358019 0.661420 0.207615
H22   H     H_    0.385133 0.327966 0.244527 0.196613
H23   H     H_    0.294592 0.181785 0.120314 0.152155
H24   H     H_    0.294766 0.181012 0.872001 0.149053
N1    N     N_R   0.499210 0.498800 0.142780 -0.164521
N2    N     N_R   0.499180 0.498720 0.857170 -0.175790
O1    O     O_R   0.500000 0.316780 0.614690 -0.650652
O2    O     O_3   0.378262 0.775173 0.760875 -0.749738
O3    O     O_3   0.430495 0.878162 0.259506 -0.760337
O4    O     O_3   0.602501 0.663513 0.151377 -0.703903
O5    O     O_3   0.605656 0.668483 0.869919 -0.792987
O6    O     O_3   0.074343 0.436529 0.259711 -0.758032
O7    O     O_R   0.499990 0.316750 0.385360 -0.643995
O8    O     O_R   0.377150 0.500020 0.614720 -0.612125
O9    O     O_R   0.377140 0.499990 0.385380 -0.644118
O10   O     O_R   0.500010 0.683250 0.614640 -0.599607
O11   O     O_R   0.500000 0.683220 0.385310 -0.540032
O12   O     O_R   0.622860 0.500010 0.614620 -0.645813
O13   O     O_R   0.622850 0.499980 0.385280 -0.557003
O14   O     O_3   0.919880 0.332028 0.674094 -0.762038
Zn1   Zn    Zn3+2 0.500010 0.500020 0.653130 0.952782
Zn2   Zn    Zn3+2 0.499990 0.499980 0.346870 0.988893

loop_
_geom_bond_atom_site_label_1
_geom_bond_atom_site_label_2
_ccdc_geom_bond_type
C12   O14   S    
C1    C8    S    
C24   H8    S    
C10   O3    S    
C7    C8    A    
O1    Zn1   S    
C24   H21   S    
C9    H18   S    
C12   C23   S    
C23   C29   S    
C5    C6    A    
C3    H20   S    
C26   H5    S    
O9    Zn2   S    
C18   C19   A    
C23   C26   S    
C25   H3    S    
H7    O14   S    
C20   N1    A    
C8    C9    A    
C17   H2    S    
H14   O5    S    
C9    C10   A    
C13   H22   S    
C2    C34   A    
C30   H16   S    
C13   C14   A    
C16   O11   A    
O12   Zn1   S    
C22   O12   A    
C4    O9    A    
H15   O6    S    
C13   C19   A    
C27   C31   T    
C28   C32   S    
C16   O10   A    
C21   N2    A    
H13   O4    S    
C4    O8    A    
C26   H4    S    
C19   N1    A    
C25   C26   S    
H11   O3    S    
O8    Zn1   S    
C23   C31   S    
C20   O4    S    
O13   Zn2   S    
C29   C30   S    
C15   H24   S    
C11   C16   S    
C2    H9    S    
C17   C18   A    
C30   H6    S    
C12   H1    S    
C18   N2    A    
C22   C27   S    
C7    C34   A    
C6    C11   A    
C29   H17   S    
C15   C17   A    
C14   H23   S    
C4    C33   S    
C21   O5    S    
C25   O6    S    
C24   C28   S    
C3    C5    A    
C1    O1    A    
C6    C7    A    
C12   C24   S    
N2    Zn1   S    
C29   H12   S    
H10   O2    S    
C32   C33   T    
C28   C30   S    
C2    C3    A    
O11   Zn2   S    
C1    O7    A    
C5    O2    S    
C10   C11   A    
C25   C28   S    
C20   C21   A    
C34   H19   S    
O10   Zn1   S    
C14   C15   A    
O7    Zn2   S    
C22   O13   A    
N1    Zn2   S    
