data_mof_unit_42886.cif
_audit_creation_date              2012-12-10T17:44:37-0500
_audit_creation_method            fapswitch 2.2
_symmetry_space_group_name_H-M    P1
_symmetry_Int_Tables_number       1
_space_group_crystal_system       triclinic
_cell_length_a                    9.88732
_cell_length_b                    10.674286
_cell_length_c                    15.611926
_cell_angle_alpha                 91.167111
_cell_angle_beta                  68.226444
_cell_angle_gamma                 89.014423
_cell_volume                      1529.27208863

loop_
_atom_site_label
_atom_site_type_symbol
_atom_type_description
_atom_site_fract_x
_atom_site_fract_y
_atom_site_fract_z
_atom_type_partial_charge
C1    C     C_R   0.504253 0.739690 0.490166 0.875167
C2    C     C_R   0.711771 0.571807 0.041213 0.179854
C3    C     C_R   0.574071 0.521689 0.092187 0.095172
C4    C     C_R   0.409780 0.495282 0.675313 0.860261
C5    C     C_R   0.812012 0.594056 0.083774 -0.218814
C6    C     C_R   0.778318 0.563547 0.175584 -0.226333
C7    C     C_R   0.546866 0.484919 0.181856 -0.252392
C8    C     C_R   0.251003 0.896742 0.484231 -0.143251
C9    C     C_R   0.116660 0.960212 0.520912 -0.201369
C10   C     C_R   0.100357 0.065773 0.577781 -0.152811
C11   C     C_R   0.221631 0.115314 0.591436 0.205932
C12   C     C_R   0.411418 0.495769 0.913590 -0.016462
C13   C     C_R   0.362911 0.062744 0.539212 0.042355
C14   C     C_R   0.373450 0.942408 0.500221 0.036532
C15   C     C_R   0.507385 0.873986 0.477507 -0.146233
C16   C     C_R   0.496359 0.260634 0.508254 0.878480
C17   C     C_R   0.638967 0.937964 0.460380 0.165291
C18   C     C_R   0.629356 0.064672 0.480592 -0.259036
C19   C     C_R   0.494164 0.127260 0.517733 -0.176092
C20   C     C_R   0.788001 0.666687 0.620568 -0.127654
C21   C     C_R   0.823184 0.746800 0.680168 -0.242230
C22   C     C_R   0.962163 0.743209 0.681722 -0.187823
C23   C     C_R   0.262031 0.483102 0.967483 0.120471
C24   C     C_R   0.067550 0.661083 0.622405 -0.160578
C25   C     C_R   0.036330 0.580111 0.560152 0.140630
C26   C     C_R   0.891858 0.581329 0.559654 0.182474
C27   C     C_R   0.963223 0.422351 0.443030 -0.143679
C28   C     C_R   0.590665 0.499670 0.324608 0.867633
C29   C     C_R   0.106574 0.422609 0.442889 -0.121232
C30   C     C_R   0.356105 0.483807 0.775357 -0.174997
C31   C     C_R   0.643958 0.511152 0.225033 -0.055099
C32   C     C_R   0.160803 0.473299 0.924276 -0.228069
C33   C     C_R   0.206818 0.482349 0.828768 -0.285635
C34   C     C_R   0.510827 0.524492 0.956294 0.067387
C35   C     C_R   0.457801 0.473050 0.818527 0.406360
C36   C     C_3   0.791264 0.879422 0.412918 -0.386642
C37   C     C_3   0.813462 0.826450 0.316988 -0.830521
C38   C     C_3   0.195074 0.213691 0.667870 -0.372078
C39   C     C_3   0.103892 0.162713 0.762067 -0.920705
C40   C     C_3   0.611766 0.304899 0.750364 0.138948
C41   C     C_3   0.646333 0.235522 0.824993 -0.362743
C42   C     C_3   0.665583 0.094705 0.803493 -0.994721
C43   C     C_R   0.467795 0.509490 0.052122 0.055199
C44   C     C_R   0.318918 0.488713 0.104954 -0.229133
C45   C     C_R   0.217023 0.479764 0.063151 -0.216698
C46   C     C_R   0.648138 0.575704 0.906810 -0.162735
C47   C     C_R   0.746313 0.600536 0.949111 -0.285308
H1    H     H_    0.103242 0.468694 0.105694 0.147943
H2    H     H_    0.449113 0.435956 0.220005 0.148995
H3    H     H_    0.989011 0.805255 0.728501 0.156809
H4    H     H_    0.172464 0.664311 0.626588 0.211951
H5    H     H_    0.188996 0.359395 0.396265 0.150105
H6    H     H_    0.854703 0.584382 0.208430 0.156942
H7    H     H_    0.849912 0.641036 0.909382 0.154916
H8    H     H_    0.046524 0.461348 0.964081 0.161004
H9    H     H_    0.126621 0.483714 0.796720 0.187467
H10   H     H_    0.276527 0.486870 0.179328 0.145991
H11   H     H_    0.678264 0.603542 0.836237 0.208595
H12   H     H_    0.914735 0.637602 0.046779 0.143755
H13   H     H_    0.732894 0.753826 0.320922 0.257630
H14   H     H_    0.801426 0.902552 0.272648 0.254056
H15   H     H_    0.924594 0.783567 0.284808 0.238717
H16   H     H_    0.876254 0.950359 0.403627 0.181748
H17   H     H_    0.816187 0.807414 0.455249 0.226218
H18   H     H_    0.993199 0.139349 0.765403 0.265405
H19   H     H_    0.157915 0.077475 0.775722 0.264482
H20   H     H_    0.092440 0.234472 0.816930 0.264991
H21   H     H_    0.298742 0.243770 0.672716 0.189431
H22   H     H_    0.138060 0.297054 0.654168 0.229891
H23   H     H_    0.258757 0.815172 0.440328 0.171851
H24   H     H_    0.702947 0.286937 0.683117 0.169818
H25   H     H_    0.512701 0.266070 0.742502 0.108473
H26   H     H_    0.747963 0.272171 0.829741 0.234358
H27   H     H_    0.556179 0.251947 0.892851 0.225694
H28   H     H_    0.563156 0.055666 0.801725 0.269802
H29   H     H_    0.693143 0.047237 0.857779 0.272178
H30   H     H_    0.755033 0.075196 0.735839 0.257142
H31   H     H_    0.023559 0.923971 0.508793 0.147100
H32   H     H_    0.993010 0.108468 0.611774 0.134752
H33   H     H_    0.729229 0.116162 0.462758 0.165498
H34   H     H_    0.937585 0.358984 0.396567 0.143403
H35   H     H_    0.678565 0.675462 0.624616 0.205311
H36   H     H_    0.741479 0.811426 0.726007 0.158257
N1    N     N_R   0.856800 0.501200 0.500850 -0.119224
N2    N     N_R   0.142390 0.501280 0.500880 -0.126222
O1    O     O_R   0.385310 0.683220 0.500000 -0.642652
O2    O     O_R   0.614640 0.683250 0.500010 -0.638155
O3    O     O_R   0.319840 0.499980 0.632240 -0.651660
O4    O     O_R   0.549160 0.500000 0.632250 -0.585982
O5    O     O_R   0.385360 0.316750 0.499990 -0.616642
O6    O     O_R   0.614690 0.316780 0.500000 -0.625690
O7    O     O_R   0.450840 0.500000 0.367750 -0.614923
O8    O     O_R   0.680160 0.500020 0.367760 -0.615078
O9    O     O_3   0.601676 0.435988 0.768959 -0.650784
Zn1   Zn    Zn3+2 0.346880 0.499980 0.499990 0.910911
Zn2   Zn    Zn3+2 0.653120 0.500020 0.500010 0.928346

loop_
_geom_bond_atom_site_label_1
_geom_bond_atom_site_label_2
_ccdc_geom_bond_type
C1    O2    A    
C16   O5    A    
C23   C45   A    
C40   H24   S    
C20   H35   S    
C27   C29   A    
C11   C13   A    
C41   C42   S    
C37   H15   S    
O5    Zn1   S    
C12   C23   A    
C3    C43   A    
C42   H28   S    
C30   C35   A    
C36   C37   S    
C3    C7    A    
C38   C39   S    
C35   O9    S    
C8    H23   S    
C18   C19   A    
N1    Zn2   S    
O6    Zn2   S    
C21   H36   S    
C8    C9    A    
C8    C14   A    
C1    C15   S    
C17   C36   S    
C36   H16   S    
C9    C10   A    
C32   H8    S    
C29   N2    A    
C22   H3    S    
C33   H9    S    
C6    C31   A    
C41   H27   S    
C38   H22   S    
C21   C22   A    
C46   H11   S    
C39   H18   S    
C7    C31   A    
C5    H12   S    
C27   H34   S    
C24   C25   A    
C7    H2    S    
O1    Zn1   S    
C13   C19   A    
C25   C26   A    
O7    Zn1   S    
C28   O8    A    
C11   C38   S    
C43   C44   A    
C44   H10   S    
O2    Zn2   S    
C25   N2    A    
C17   C18   A    
C28   O7    A    
C12   C35   A    
C16   O6    A    
C47   H7    S    
C34   C46   A    
C40   C41   S    
C38   H21   S    
O8    Zn2   S    
C39   H19   S    
C22   C24   A    
C2    C5    A    
C6    H6    S    
C12   C34   A    
C44   C45   A    
C4    O4    A    
C45   H1    S    
C1    O1    A    
C15   C17   A    
C46   C47   A    
C27   N1    A    
C26   N1    A    
C40   H25   S    
C30   C33   A    
C39   H20   S    
C28   C31   S    
C34   C43   A    
C40   O9    S    
C37   H14   S    
C10   H32   S    
C4    O3    A    
C2    C47   A    
C42   H29   S    
C23   C32   A    
O4    Zn2   S    
C2    C3    A    
C36   H17   S    
C32   C33   A    
N2    Zn1   S    
C5    C6    A    
C20   C26   A    
C24   H4    S    
C16   C19   S    
C9    H31   S    
O3    Zn1   S    
C37   H13   S    
C10   C11   A    
C41   H26   S    
C20   C21   A    
C42   H30   S    
C18   H33   S    
C14   C15   A    
C13   C14   A    
C4    C30   S    
C29   H5    S    
