data_mof_unit_34645.cif
_audit_creation_date              2012-12-11T16:06:49-0500
_audit_creation_method            fapswitch 2.2
_symmetry_space_group_name_H-M    P1
_symmetry_Int_Tables_number       1
_space_group_crystal_system       triclinic
_cell_length_a                    8.292487
_cell_length_b                    12.699799
_cell_length_c                    17.390068
_cell_angle_alpha                 94.948559
_cell_angle_beta                  96.233091
_cell_angle_gamma                 97.338149
_cell_volume                      1796.32557198

loop_
_atom_site_label
_atom_site_type_symbol
_atom_type_description
_atom_site_fract_x
_atom_site_fract_y
_atom_site_fract_z
_atom_type_partial_charge
Ba1   Ba    Ba6+2 0.158660 0.552610 0.463110 1.668455
Ba2   Ba    Ba6+2 0.651510 0.447380 0.536830 1.696716
Br1   Br    Br    0.782539 0.895021 0.772260 -0.656961
C1    C     C_3   0.371012 0.844580 0.172309 -0.210786
C2    C     C_R   0.732209 0.815592 0.470405 -0.289663
C3    C     C_R   0.699762 0.995394 0.441489 -0.091516
C4    C     C_3   0.925998 0.839344 0.283299 0.340236
C5    C     C_R   0.636311 0.887245 0.438870 -0.008869
C6    C     C_R   0.888265 0.849643 0.509620 0.065278
C7    C     C_R   0.952495 0.961239 0.516436 -0.050047
C8    C     C_R   0.857075 0.035111 0.480606 -0.053684
C9    C     C_R   0.922999 0.146135 0.485607 0.051404
C10   C     C_R   0.175455 0.108658 0.556421 -0.013279
C11   C     C_R   0.109007 0.001586 0.557154 -0.079865
C12   C     C_3   0.422991 0.812062 0.252872 0.283352
C13   C     C_R   0.599250 0.542505 0.280661 -0.290828
C14   C     C_R   0.443057 0.486911 0.256275 0.066128
C15   C     C_R   0.381564 0.475986 0.176944 -0.104373
C16   C     C_3   0.886080 0.933245 0.239691 -0.389020
C17   C     C_R   0.477565 0.519324 0.122339 -0.009722
C18   C     C_R   0.637468 0.570464 0.147318 -0.133554
C19   C     C_R   0.698979 0.580169 0.226322 -0.000843
C20   C     C_R   0.412599 0.528074 0.836493 -0.109516
C21   C     C_R   0.356530 0.519858 0.756822 -0.002141
C22   C     C_R   0.093016 0.429509 0.781652 -0.030993
C23   C     C_3   0.577580 0.773545 0.646708 0.325889
C24   C     C_R   0.148135 0.438987 0.861489 -0.125200
C25   C     C_R   0.308800 0.487377 0.889135 0.000417
C26   C     C_1   0.366135 0.497807 0.971580 0.019220
C27   C     C_1   0.415699 0.507257 0.040356 0.023783
C28   C     C_3   0.746591 0.316531 0.304829 0.290566
C29   C     C_R   0.197708 0.470112 0.730200 -0.296410
C30   C     C_3   0.700850 0.285910 0.217931 -0.374213
C31   C     C_3   0.096945 0.712054 0.701255 0.343056
C32   C     C_3   0.177350 0.768658 0.779316 -0.308796
C33   C     C_3   0.249274 0.226534 0.366976 0.281994
C34   C     C_3   0.641674 0.889306 0.674958 0.082957
C35   C     C_3   0.252321 0.107603 0.349861 -0.315735
C36   C     C_2   0.415055 0.962473 0.169314 0.554397
C37   C     C_2   0.939549 0.139579 0.893118 0.580410
C38   C     C_2   0.137414 0.464469 0.647840 0.538819
C39   C     C_3   0.940026 0.171887 0.751745 0.234207
C40   C     C_3   0.041031 0.152584 0.827152 -0.249563
C41   C     C_3   0.426382 0.212280 0.746872 0.351640
C42   C     C_3   0.464608 0.180287 0.828559 -0.333035
C43   C     C_R   0.082685 0.177559 0.520012 -0.257861
H1    H     H_    0.380469 0.725305 0.252623 0.057407
H2    H     H_    0.122426 0.240647 0.373698 -0.004770
H3    H     H_    0.332658 0.254439 0.421298 0.060343
H4    H     H_    0.236761 0.821232 0.157032 0.150132
H5    H     H_    0.177540 0.078359 0.293731 0.149033
H6    H     H_    0.202413 0.063443 0.396194 0.064098
H7    H     H_    0.379938 0.092149 0.345818 0.132956
H8    H     H_    0.558367 0.826728 0.264304 -0.082081
H9    H     H_    0.433785 0.801250 0.128751 0.003685
H10   H     H_    0.681938 0.733805 0.629775 0.033118
H11   H     H_    0.484050 0.770178 0.595376 -0.013528
H12   H     H_    0.587714 0.226947 0.207386 0.148687
H13   H     H_    0.537503 0.933523 0.684964 0.113497
H14   H     H_    0.711140 0.927323 0.631265 0.010903
H15   H     H_    0.778175 0.907437 0.195538 0.107045
H16   H     H_    0.872106 0.095159 0.723841 0.106453
H17   H     H_    0.021952 0.199647 0.708760 -0.024241
H18   H     H_    0.098251 0.079163 0.816542 0.065464
H19   H     H_    0.139707 0.220661 0.844036 0.078489
H20   H     H_    0.301135 0.234614 0.739971 -0.062084
H21   H     H_    0.514950 0.282892 0.740080 0.112268
H22   H     H_    0.448467 0.246100 0.872192 0.079343
H23   H     H_    0.679257 0.357113 0.187947 0.067807
H24   H     H_    0.592431 0.163190 0.838187 0.160599
H25   H     H_    0.030610 0.866588 0.329128 0.089422
H26   H     H_    0.382627 0.107190 0.836901 0.118483
H27   H     H_    0.624041 0.047459 0.413698 0.097893
H28   H     H_    0.183087 0.950756 0.587569 0.109085
H29   H     H_    0.140444 0.255518 0.512554 0.114843
H30   H     H_    0.681011 0.732419 0.467761 0.064531
H31   H     H_    0.534501 0.568462 0.857536 0.095854
H32   H     H_    0.714877 0.600546 0.105486 0.087746
H33   H     H_    0.066797 0.408565 0.901606 0.118993
H34   H     H_    0.801876 0.250341 0.193097 0.142497
H35   H     H_    0.261184 0.431954 0.157715 0.105526
H36   H     H_    0.647861 0.549666 0.341490 0.065731
H37   H     H_    0.817341 0.811195 0.311991 -0.059678
H38   H     H_    0.858745 0.998607 0.280880 0.077040
H39   H     H_    0.990758 0.962780 0.209027 0.172525
H40   H     H_    0.641708 0.346240 0.329528 0.011172
H41   H     H_    0.853997 0.379968 0.313836 0.064974
H42   H     H_    0.541462 0.999424 0.182717 -0.021951
H43   H     H_    0.837469 0.076101 0.888439 0.060691
H44   H     H_    0.054977 0.516982 0.625954 0.009710
H45   H     H_    0.193930 0.683912 0.669445 -0.023534
H46   H     H_    0.005681 0.644991 0.712387 -0.008882
H47   H     H_    0.264954 0.839026 0.770262 0.140500
H48   H     H_    0.244482 0.713538 0.812329 0.055319
H49   H     H_    0.083222 0.795501 0.814265 0.161379
O1    O     O_2   0.163080 0.763400 0.536930 -0.471913
O2    O     O_2   0.755922 0.431788 0.772396 -0.489745
O3    O     O_3   0.823787 0.239471 0.767902 -0.598548
O4    O     O_3   0.893330 0.628980 0.538660 -0.503244
O5    O     O_3   0.422000 0.445190 0.409310 -0.488487
O6    O     O_2   0.648720 0.552000 0.685060 -0.445496
O7    O     O_3   0.507557 0.726971 0.707655 -0.623075
O8    O     O_2   0.511388 0.113789 0.550874 -0.481833
O9    O     O_3   0.440108 0.126718 0.692297 -0.605745
O10   O     O_3   0.379830 0.697590 0.399610 -0.477660
O11   O     O_2   0.307223 0.885101 0.454139 -0.484057
O12   O     O_3   0.299841 0.276992 0.303816 -0.620610
O13   O     O_3   0.016028 0.783499 0.660447 -0.611986
O14   O     O_3   0.352836 0.871500 0.309063 -0.602059
O15   O     O_2   0.161570 0.447940 0.314920 -0.462312
O16   O     O_3   0.953630 0.643360 0.361440 -0.484032
O17   O     O_2   0.031794 0.564865 0.224884 -0.477095
O18   O     O_2   0.309128 0.017615 0.151903 -0.568184
O19   O     O_2   0.971219 0.200531 0.952629 -0.578030
O20   O     O_2   0.172305 0.395063 0.603216 -0.577592
O21   O     O_3   0.969704 0.760785 0.230376 -0.587850
O22   O     O_2   0.647210 0.236530 0.463040 -0.469714
O23   O     O_3   0.916960 0.371010 0.461280 -0.476594
O24   O     O_3   0.430470 0.302400 0.600330 -0.438227
O25   O     O_3   0.784162 0.225726 0.338998 -0.645889
O26   O     O_3   0.388290 0.554800 0.590630 -0.458593
O27   O     O_3   0.856660 0.356630 0.638500 -0.463174
P1    P     P_3+3 0.990420 0.746550 0.559720 0.975033
P2    P     P_3+3 0.330880 0.415450 0.326700 1.001836
P3    P     P_3+3 0.913264 0.634744 0.260183 0.966148
P4    P     P_3+3 0.819870 0.253440 0.440220 0.987750
P5    P     P_3+3 0.883778 0.366341 0.741223 0.972546
P6    P     P_3+3 0.421358 0.836487 0.400783 0.952317
P7    P     P_3+3 0.475895 0.588683 0.687478 0.979148
P8    P     P_3+3 0.387922 0.162667 0.598770 0.980030

loop_
_geom_bond_atom_site_label_1
_geom_bond_atom_site_label_2
_ccdc_geom_bond_type
C4    H37   S    
C30   H12   S    
C12   O14   S    
C41   H20   S    
O7    P7    S    
C12   H1    S    
O2    P5    D    
Ba1   O4    S    
C21   C29   A    
C41   O9    S    
C17   C27   S    
C11   H28   S    
C25   C26   S    
C16   H15   S    
C31   C32   S    
C24   H33   S    
C39   O3    S    
C4    H25   S    
C10   C43   A    
O25   P4    S    
C32   H48   S    
C35   H6    S    
O11   P6    D    
O24   P8    S    
Ba1   Ba2   S    
O27   P5    S    
C31   H45   S    
C14   P2    S    
O15   P2    D    
C21   P7    S    
C5    P6    S    
C37   C40   S    
C37   O19   D    
C13   C14   A    
C36   O18   D    
C18   H32   S    
O16   P3    S    
C10   P8    S    
C28   C30   S    
C37   H43   S    
C6    C7    A    
C39   H16   S    
O1    P1    D    
C30   H23   S    
C22   C29   A    
C32   H47   S    
C38   H44   S    
Ba2   O5    S    
C28   H40   S    
O9    P8    S    
C10   C11   A    
C33   O12   S    
C36   H42   S    
C38   O20   D    
Ba1   O5    S    
C43   H29   S    
C23   H11   S    
Ba2   O22   S    
C40   H18   S    
C31   H46   S    
Ba2   O27   S    
Ba2   O23   S    
C28   O25   S    
C28   H41   S    
C12   H8    S    
C9    C43   A    
C7    C11   A    
C3    C8    A    
C19   P3    S    
C3    C5    A    
C35   H5    S    
Ba2   O6    S    
C1    H4    S    
O5    P2    S    
C4    O21   S    
Ba1   P1    S    
C2    C6    A    
C26   C27   T    
Ba1   O15   S    
O14   P6    S    
C1    C36   S    
C40   H19   S    
C42   H22   S    
C13   H36   S    
C14   C15   A    
C30   H34   S    
C20   C25   A    
C20   H31   S    
O17   P3    D    
C34   H13   S    
Ba2   P4    S    
O3    P5    S    
Ba2   O4    S    
C4    C16   S    
C15   H35   S    
C1    H9    S    
C39   C40   S    
C29   C38   S    
C16   H38   S    
C41   C42   S    
C3    H27   S    
O4    P1    S    
O22   P4    D    
Ba2   O26   S    
C13   C19   A    
O10   P6    S    
C42   H24   S    
O26   P7    S    
C16   H39   S    
C23   H10   S    
C2    C5    A    
Ba2   O24   S    
C23   C34   S    
C32   H49   S    
C22   C24   A    
O23   P4    S    
O21   P3    S    
C31   O13   S    
C1    C12   S    
C33   C35   S    
C22   P5    S    
Ba1   P2    S    
C23   O7    S    
C35   H7    S    
C2    H30   S    
Ba1   O1    S    
C6    P1    S    
C33   H2    S    
C15   C17   A    
Ba1   O23   S    
O8    P8    D    
Ba1   O26   S    
O12   P2    S    
C34   H14   S    
C7    C8    A    
C20   C21   A    
C9    P4    S    
C17   C18   A    
Br1   C34   S    
C24   C25   A    
C41   H21   S    
O13   P1    S    
C18   C19   A    
C39   H17   S    
Ba1   O16   S    
C33   H3    S    
C8    C9    A    
Ba1   O10   S    
C42   H26   S    
O6    P7    D    
