data_mof_unit_21160.cif
_audit_creation_date              2012-12-11T15:43:00-0500
_audit_creation_method            fapswitch 2.2
_symmetry_space_group_name_H-M    P1
_symmetry_Int_Tables_number       1
_space_group_crystal_system       triclinic
_cell_length_a                    19.014411
_cell_length_b                    10.969679
_cell_length_c                    18.808039
_cell_angle_alpha                 89.910138
_cell_angle_beta                  89.737741
_cell_angle_gamma                 89.697843
_cell_volume                      3922.91778388

loop_
_atom_site_label
_atom_site_type_symbol
_atom_type_description
_atom_site_fract_x
_atom_site_fract_y
_atom_site_fract_z
_atom_type_partial_charge
C1    C     C_R   0.711549 0.329574 0.138686 0.554385
C2    C     C_R   0.269791 0.375509 0.854225 0.553642
C3    C     C_R   0.211549 0.829574 0.138686 0.554385
C4    C     C_R   0.769791 0.875509 0.854225 0.553642
C5    C     C_R   0.483594 0.397538 0.933615 -0.090438
C6    C     C_R   0.465909 0.374038 0.080070 -0.091467
C7    C     C_R   0.983594 0.897538 0.933615 -0.090438
C8    C     C_R   0.965909 0.874038 0.080070 -0.091467
C9    C     C_R   0.967106 0.999384 0.974856 -0.123323
C10   C     C_R   0.956404 0.987026 0.047607 -0.109081
C11   C     C_R   0.467106 0.499384 0.974856 -0.123323
C12   C     C_R   0.456404 0.487026 0.047607 -0.109081
C13   C     C_R   0.752060 0.905832 0.926529 0.020352
C14   C     C_R   0.222299 0.844977 0.062365 0.013296
C15   C     C_R   0.252060 0.405832 0.926529 0.020352
C16   C     C_R   0.722299 0.344977 0.062365 0.013296
C17   C     C_R   0.729809 0.812118 0.972137 0.019468
C18   C     C_R   0.288873 0.833920 0.031499 -0.056358
C19   C     C_R   0.229809 0.312118 0.972137 0.019468
C20   C     C_R   0.788873 0.333920 0.031499 -0.056359
C21   C     C_R   0.730320 0.825629 0.044886 0.035050
C22   C     C_R   0.299508 0.862252 0.960625 0.012267
C23   C     C_R   0.230320 0.325629 0.044886 0.035050
C24   C     C_R   0.799508 0.362252 0.960625 0.012267
C25   C     C_R   0.784261 0.021942 0.029486 -0.147790
C26   C     C_R   0.175209 0.893921 0.945486 -0.174424
C27   C     C_R   0.284261 0.521942 0.029486 -0.147790
C28   C     C_R   0.675209 0.393921 0.945486 -0.174424
C29   C     C_R   0.782826 0.008893 0.956361 -0.149479
C30   C     C_R   0.164734 0.867829 0.017707 -0.157887
C31   C     C_R   0.282826 0.508893 0.956361 -0.149479
C32   C     C_R   0.664734 0.367829 0.017707 -0.157887
C33   C     C_3   0.664467 0.736987 0.974539 -0.211310
C34   C     C_3   0.356608 0.889606 0.053895 -0.200354
C35   C     C_3   0.164467 0.236987 0.974539 -0.211310
C36   C     C_3   0.856608 0.389606 0.053895 -0.200354
C37   C     C_3   0.667711 0.746306 0.055299 0.230493
C38   C     C_3   0.367470 0.923793 0.976571 0.252314
C39   C     C_3   0.167711 0.246306 0.055299 0.230493
C40   C     C_3   0.867470 0.423793 0.976571 0.252314
C41   C     C_R   0.753047 0.934501 0.074604 0.040489
C42   C     C_R   0.243842 0.900747 0.917662 0.031146
C43   C     C_R   0.253047 0.434501 0.074604 0.040489
C44   C     C_R   0.743842 0.400747 0.917662 0.031146
C45   C     C_R   0.532112 0.154974 0.146319 0.513343
C46   C     C_R   0.469025 0.156674 0.852829 0.575844
C47   C     C_R   0.032112 0.654974 0.146319 0.513343
C48   C     C_R   0.969025 0.656674 0.852829 0.575844
C49   C     C_R   0.487795 0.159453 0.572602 0.031238
C50   C     C_R   0.505230 0.170195 0.424895 -0.001832
C51   C     C_R   0.987795 0.659453 0.572602 0.031238
C52   C     C_R   0.005230 0.670195 0.424895 -0.001833
C53   C     C_R   0.456464 0.073830 0.527901 0.041779
C54   C     C_R   0.463729 0.079465 0.455201 0.006718
C55   C     C_R   0.956464 0.573830 0.527901 0.041779
C56   C     C_R   0.963729 0.579465 0.455201 0.006718
C57   C     C_R   0.534007 0.260717 0.469249 -0.123606
C58   C     C_R   0.525242 0.255640 0.542835 -0.086682
C59   C     C_R   0.034007 0.760717 0.469249 -0.123607
C60   C     C_R   0.025242 0.755641 0.542835 -0.086681
C61   C     C_3   0.464535 0.938308 0.528958 -0.258449
C62   C     C_3   0.468493 0.943494 0.448801 -0.264625
C63   C     C_3   0.964535 0.438308 0.528958 -0.258449
C64   C     C_3   0.968494 0.443494 0.448801 -0.264625
C65   C     C_R   0.759596 0.910001 0.573986 -0.010414
C66   C     C_R   0.249355 0.915573 0.423057 0.022436
C67   C     C_R   0.259596 0.410001 0.573986 -0.010414
C68   C     C_R   0.749355 0.415573 0.423057 0.022436
C69   C     C_R   0.819410 0.912357 0.530481 0.090484
C70   C     C_R   0.221631 0.020518 0.454529 0.015828
C71   C     C_R   0.319410 0.412357 0.530481 0.090484
C72   C     C_R   0.721631 0.520518 0.454529 0.015828
C73   C     C_R   0.815024 0.914998 0.457539 -0.056727
C74   C     C_R   0.221296 0.030979 0.527058 -0.023348
C75   C     C_R   0.315024 0.414998 0.457539 -0.056727
C76   C     C_R   0.721296 0.530979 0.527058 -0.023348
C77   C     C_R   0.688202 0.912548 0.468694 -0.175317
C78   C     C_R   0.286007 0.844208 0.540431 -0.178171
C79   C     C_R   0.188202 0.412549 0.468694 -0.175317
C80   C     C_R   0.786007 0.344208 0.540431 -0.178171
C81   C     C_R   0.693487 0.905672 0.542557 -0.193864
C82   C     C_R   0.285609 0.831105 0.466584 -0.172380
C83   C     C_R   0.193487 0.405672 0.542557 -0.193864
C84   C     C_R   0.785609 0.331105 0.466584 -0.172380
C85   C     C_3   0.879063 0.000347 0.531067 0.263379
C86   C     C_3   0.153833 0.090975 0.448400 0.243467
C87   C     C_3   0.379063 0.500347 0.531067 0.263379
C88   C     C_3   0.653833 0.590975 0.448400 0.243467
C89   C     C_R   0.742042 0.969727 0.147704 0.548413
C90   C     C_R   0.258000 0.967334 0.851900 0.584792
C91   C     C_R   0.242042 0.469727 0.147704 0.548413
C92   C     C_R   0.758000 0.467334 0.851900 0.584792
C93   C     C_3   0.878939 0.993928 0.450846 -0.199210
C94   C     C_3   0.151495 0.093320 0.529048 -0.195362
C95   C     C_3   0.378939 0.493928 0.450846 -0.199210
C96   C     C_3   0.651495 0.593320 0.529048 -0.195362
C97   C     C_R   0.749039 0.923549 0.425630 -0.001169
C98   C     C_R   0.250481 0.942033 0.571384 0.025697
C99   C     C_R   0.249039 0.423549 0.425630 -0.001169
C100  C     C_R   0.750481 0.442033 0.571384 0.025697
C101  C     C_R   0.729615 0.377942 0.352426 0.561848
C102  C     C_R   0.270733 0.378998 0.647654 0.536717
C103  C     C_R   0.229615 0.877942 0.352426 0.561848
C104  C     C_R   0.770733 0.878999 0.647654 0.536717
C105  C     C_R   0.533076 0.157506 0.353810 0.538459
C106  C     C_R   0.467678 0.156186 0.646504 0.538833
C107  C     C_R   0.033076 0.657506 0.353810 0.538459
C108  C     C_R   0.967678 0.656186 0.646504 0.538833
C109  C     C_R   0.741076 0.971952 0.354592 0.548731
C110  C     C_R   0.258339 0.972284 0.645416 0.539644
C111  C     C_R   0.241076 0.471952 0.354592 0.548731
C112  C     C_R   0.758339 0.472284 0.645416 0.539644
C113  C     C_R   0.500071 0.171361 0.923712 0.033802
C114  C     C_R   0.507536 0.160918 0.072594 0.003439
C115  C     C_R   0.000071 0.671361 0.923712 0.033802
C116  C     C_R   0.007536 0.660918 0.072594 0.003439
C117  C     C_R   0.489861 0.280117 0.964636 0.044620
C118  C     C_R   0.486992 0.271295 0.039866 0.027478
C119  C     C_R   0.989861 0.780117 0.964636 0.044620
C120  C     C_R   0.986992 0.771295 0.039866 0.027478
C121  C     C_R   0.523257 0.058938 0.030353 -0.119001
C122  C     C_R   0.520975 0.064521 0.957525 -0.122953
C123  C     C_R   0.023257 0.558938 0.030353 -0.119001
C124  C     C_R   0.020975 0.564521 0.957525 -0.122953
Cr1   Cr    Cr6+3 0.772010 0.169670 0.250090 1.007784
Cr2   Cr    Cr6+3 0.227990 0.169670 0.749910 1.017969
Cr3   Cr    Cr6+3 0.272010 0.669670 0.250090 1.007784
Cr4   Cr    Cr6+3 0.727990 0.669670 0.749910 1.017969
Cr5   Cr    Cr6+3 0.615000 0.323260 0.249260 1.060383
Cr6   Cr    Cr6+3 0.385000 0.323260 0.750740 1.058635
Cr7   Cr    Cr6+3 0.115000 0.823260 0.249260 1.060383
Cr8   Cr    Cr6+3 0.885000 0.823260 0.750740 1.058635
Cr9   Cr    Cr6+3 0.616710 0.010760 0.250840 1.068846
Cr10  Cr    Cr6+3 0.383290 0.010760 0.749160 1.028558
Cr11  Cr    Cr6+3 0.116710 0.510760 0.250840 1.068846
Cr12  Cr    Cr6+3 0.883290 0.510760 0.749160 1.028558
H1    H     H_    0.538610 0.973139 0.053498 0.222110
H2    H     H_    0.531047 0.981662 0.927760 0.119488
H3    H     H_    0.038610 0.473139 0.053499 0.222110
H4    H     H_    0.031047 0.481662 0.927760 0.119488
H5    H     H_    0.568928 0.328351 0.447872 0.223601
H6    H     H_    0.549357 0.323797 0.576304 0.164216
H7    H     H_    0.068928 0.828351 0.447872 0.223602
H8    H     H_    0.049357 0.823797 0.576304 0.164216
H9    H     H_    0.917593 0.391587 0.549784 0.163171
H10   H     H_    0.019227 0.408494 0.427948 0.161822
H11   H     H_    0.417593 0.891587 0.549784 0.163171
H12   H     H_    0.519226 0.908494 0.427948 0.161822
H13   H     H_    0.514698 0.908423 0.553862 0.131355
H14   H     H_    0.421512 0.904839 0.422395 0.148352
H15   H     H_    0.014698 0.408423 0.553862 0.131355
H16   H     H_    0.921512 0.404839 0.422395 0.148352
H17   H     H_    0.636341 0.918305 0.445885 0.140344
H18   H     H_    0.312374 0.777449 0.573349 0.105839
H19   H     H_    0.136341 0.418305 0.445885 0.140344
H20   H     H_    0.812374 0.277449 0.573349 0.105839
H21   H     H_    0.646397 0.898985 0.574905 0.118030
H22   H     H_    0.308634 0.749843 0.444297 0.131584
H23   H     H_    0.146397 0.398985 0.574905 0.118030
H24   H     H_    0.808635 0.249844 0.444297 0.131584
H25   H     H_    0.864432 0.090914 0.552835 0.099310
H26   H     H_    0.161138 0.181658 0.423377 0.127399
H27   H     H_    0.364432 0.590914 0.552835 0.099310
H28   H     H_    0.661138 0.681658 0.423377 0.127399
H29   H     H_    0.870290 0.083776 0.425770 0.117453
H30   H     H_    0.154046 0.185112 0.552355 0.120027
H31   H     H_    0.370290 0.583776 0.425770 0.117453
H32   H     H_    0.654046 0.685112 0.552355 0.120027
H33   H     H_    0.924479 0.942565 0.428505 0.194048
H34   H     H_    0.109843 0.034349 0.552258 0.184089
H35   H     H_    0.424479 0.442565 0.428505 0.194048
H36   H     H_    0.609842 0.534349 0.552258 0.184089
H37   H     H_    0.494970 0.414058 0.878175 0.127675
H38   H     H_    0.456600 0.368016 0.136724 0.136252
H39   H     H_    0.994970 0.914058 0.878175 0.127675
H40   H     H_    0.956600 0.868016 0.136724 0.136252
H41   H     H_    0.962227 0.088226 0.950152 0.103179
H42   H     H_    0.941841 0.065691 0.079198 0.129660
H43   H     H_    0.462227 0.588226 0.950152 0.103179
H44   H     H_    0.441841 0.565691 0.079198 0.129660
H45   H     H_    0.807539 0.103598 0.050526 0.141331
H46   H     H_    0.130586 0.920773 0.913494 0.123494
H47   H     H_    0.307539 0.603598 0.050526 0.141331
H48   H     H_    0.630586 0.420773 0.913494 0.123494
H49   H     H_    0.806930 0.078225 0.923279 0.123565
H50   H     H_    0.112497 0.874320 0.039828 0.148093
H51   H     H_    0.306930 0.578225 0.923279 0.123565
H52   H     H_    0.612497 0.374320 0.039828 0.148093
H53   H     H_    0.173726 0.143141 0.954986 0.139952
H54   H     H_    0.894839 0.319958 0.072920 0.099260
H55   H     H_    0.673726 0.643141 0.954986 0.139952
H56   H     H_    0.394839 0.819958 0.072920 0.099260
H57   H     H_    0.618503 0.784815 0.950749 0.139146
H58   H     H_    0.349191 0.969307 0.089711 0.180790
H59   H     H_    0.118503 0.284815 0.950749 0.139146
H60   H     H_    0.849191 0.469307 0.089711 0.180790
H61   H     H_    0.680480 0.658750 0.082290 0.146996
H62   H     H_    0.413526 0.879136 0.950828 0.109489
H63   H     H_    0.180480 0.158750 0.082290 0.146996
H64   H     H_    0.913526 0.379136 0.950828 0.109489
O1    O     O_R   0.787520 0.042810 0.170440 -0.548639
O2    O     O_R   0.212480 0.042810 0.829560 -0.533150
O3    O     O_R   0.287520 0.542810 0.170440 -0.548639
O4    O     O_R   0.712480 0.542810 0.829560 -0.533150
O5    O     O_R   0.556610 0.252880 0.323980 -0.489498
O6    O     O_R   0.443390 0.252880 0.676020 -0.457536
O7    O     O_R   0.056610 0.752880 0.323980 -0.489498
O8    O     O_R   0.943390 0.752880 0.676020 -0.457536
O9    O     O_R   0.545950 0.051210 0.330860 -0.525224
O10   O     O_R   0.454050 0.051210 0.669140 -0.536623
O11   O     O_R   0.045950 0.551210 0.330860 -0.525224
O12   O     O_R   0.954050 0.551210 0.669140 -0.536623
O13   O     O_R   0.681390 0.959480 0.325510 -0.507445
O14   O     O_R   0.318610 0.959480 0.674490 -0.509621
O15   O     O_R   0.181390 0.459480 0.325510 -0.507445
O16   O     O_R   0.818610 0.459480 0.674490 -0.509621
O17   O     O_3   0.667900 0.167900 0.250060 -0.285335
O18   O     O_3   0.332100 0.167900 0.749940 -0.243874
O19   O     O_3   0.167900 0.667900 0.250060 -0.285335
O20   O     O_3   0.832100 0.667900 0.749940 -0.243874
O21   O     O_R   0.765640 0.292100 0.175020 -0.504751
O22   O     O_R   0.234360 0.292100 0.824980 -0.502799
O23   O     O_R   0.265640 0.792100 0.175020 -0.504751
O24   O     O_R   0.734360 0.792100 0.824980 -0.502799
O25   O     O_R   0.670190 0.408840 0.168540 -0.511865
O26   O     O_R   0.329810 0.408840 0.831460 -0.519434
O27   O     O_R   0.170190 0.908840 0.168540 -0.511865
O28   O     O_R   0.829810 0.908840 0.831460 -0.519434
O29   O     O_R   0.556620 0.251410 0.175160 -0.532837
O30   O     O_R   0.443380 0.251410 0.824840 -0.514649
O31   O     O_R   0.056620 0.751410 0.175160 -0.532837
O32   O     O_R   0.943380 0.751410 0.824840 -0.514649
O33   O     O_R   0.545960 0.049620 0.170320 -0.483609
O34   O     O_R   0.454040 0.049620 0.829680 -0.504133
O35   O     O_R   0.045960 0.549620 0.170320 -0.483609
O36   O     O_R   0.954040 0.549620 0.829680 -0.504133
O37   O     O_R   0.681390 0.958010 0.176690 -0.433504
O38   O     O_R   0.318610 0.958010 0.823310 -0.478196
O39   O     O_R   0.181390 0.458010 0.176690 -0.433504
O40   O     O_R   0.818610 0.458010 0.823310 -0.478196
O41   O     O_R   0.787510 0.044390 0.330970 -0.525320
O42   O     O_R   0.212490 0.044390 0.669030 -0.525148
O43   O     O_R   0.287510 0.544390 0.330970 -0.525320
O44   O     O_R   0.712490 0.544390 0.669030 -0.525148
O45   O     O_R   0.765630 0.293570 0.323840 -0.518696
O46   O     O_R   0.234370 0.293570 0.676160 -0.510345
O47   O     O_R   0.265630 0.793570 0.323840 -0.518696
O48   O     O_R   0.734370 0.793570 0.676160 -0.510345
O49   O     O_R   0.670190 0.410420 0.329080 -0.434245
O50   O     O_R   0.329810 0.410420 0.670920 -0.480353
O51   O     O_R   0.170190 0.910420 0.329080 -0.434245
O52   O     O_R   0.829810 0.910420 0.670920 -0.480353
F1    F     F_    0.938929 0.952290 0.561049 -0.632409
F2    F     F_    0.097978 0.027515 0.420586 -0.637073
F3    F     F_    0.438929 0.452290 0.561049 -0.632409
F4    F     F_    0.597978 0.527515 0.420586 -0.637073
F5    F     F_    0.610666 0.806872 0.084184 -0.651474
F6    F     F_    0.362853 0.048634 0.966224 -0.630384
F7    F     F_    0.110666 0.306872 0.084184 -0.651474
F8    F     F_    0.862853 0.548634 0.966224 -0.630384

loop_
_geom_bond_atom_site_label_1
_geom_bond_atom_site_label_2
_ccdc_geom_bond_type
C108  O12   A    
C89   O1    A    
C55   C56   A    
C88   C96   S    
C67   C83   A    
Cr10  O10   S    
C116  C123  A    
Cr5   O29   S    
Cr2   O46   S    
C85   H25   S    
C14   C18   A    
C87   H27   S    
C102  O46   A    
C73   C93   S    
C108  O8    A    
Cr7   O7    S    
C94   H30   S    
C84   H24   S    
Cr3   O19   S    
C123  C124  A    
C74   C98   A    
C22   C42   A    
C53   C54   A    
Cr2   O2    S    
C15   C19   A    
Cr6   O6    S    
Cr1   O1    S    
Cr11  O19   S    
C50   C54   A    
C45   O29   A    
C64   H16   S    
C59   H7    S    
C104  O52   A    
Cr2   O42   S    
C30   H50   S    
C13   C29   A    
C16   C20   A    
C110  O14   A    
C37   F5    S    
C111  O15   A    
Cr8   O52   S    
C5    C11   A    
C109  O13   A    
Cr8   O28   S    
C6    C12   A    
C82   H22   S    
C65   C69   A    
C107  O11   A    
Cr6   O30   S    
C11   H43   S    
C1    O25   A    
C22   C38   S    
Cr12  O16   S    
C123  H3    S    
Cr9   O9    S    
C2    O22   A    
C105  O9    A    
C53   C61   S    
Cr7   O19   S    
Cr4   O4    S    
C121  H1    S    
C4    C13   S    
Cr6   O18   S    
C78   C82   A    
Cr9   O17   S    
C1    O21   A    
Cr5   O17   S    
C86   C94   S    
C77   H17   S    
Cr12  O12   S    
C114  C121  A    
C85   C93   S    
C45   C114  S    
Cr11  O15   S    
C113  C122  A    
C20   C24   A    
C52   C107  S    
C29   H49   S    
C51   C108  S    
C104  O48   A    
C7    H39   S    
Cr11  O11   S    
C78   C98   A    
C50   C105  S    
C111  O43   A    
C105  O5    A    
C96   H32   S    
C69   C73   A    
C86   H26   S    
C37   H61   S    
C9    C10   A    
Cr4   O20   S    
C107  O7    A    
C44   C92   S    
Cr3   O23   S    
C34   H58   S    
C112  O16   A    
C76   C96   S    
C65   C104  S    
C99   C111  S    
C59   C60   A    
C35   H53   S    
C62   H12   S    
C80   C100  A    
C25   C29   A    
C4    O24   A    
C46   O30   A    
Cr4   O24   S    
C38   H62   S    
C17   C33   S    
C98   C110  S    
C14   C30   A    
Cr8   O32   S    
C75   C99   A    
C72   C88   S    
C25   H45   S    
C80   H20   S    
C47   O35   A    
C67   C102  S    
Cr6   O50   S    
C40   F8    S    
C47   C116  S    
Cr5   O49   S    
Cr4   O44   S    
C81   H21   S    
C90   O38   A    
C75   C95   S    
C80   C84   A    
C68   C84   A    
C89   O37   A    
C76   C100  A    
C28   C32   A    
Cr3   O43   S    
C68   C101  S    
C122  H2    S    
C88   F4    S    
C3    O27   A    
C25   C41   A    
C1    C16   S    
C95   H31   S    
C32   H52   S    
C19   C23   A    
C78   H18   S    
C20   C36   S    
C6    H38   S    
C51   C55   A    
Cr8   O20   S    
Cr10  O18   S    
C27   C31   A    
C15   C31   A    
C28   C44   A    
C43   C91   S    
C49   C58   A    
C116  C120  A    
C55   C63   S    
C42   C90   S    
C10   H42   S    
C47   O31   A    
C35   C39   S    
C36   H60   S    
C70   C74   A    
C38   F6    S    
C52   C59   A    
C7    C119  A    
C66   C82   A    
Cr5   O5    S    
C101  O45   A    
C110  O42   A    
C65   C81   A    
C93   H29   S    
C109  O41   A    
C68   C72   A    
C93   H33   S    
C56   C64   S    
Cr10  O34   S    
C79   C99   A    
C83   H23   S    
C72   C76   A    
Cr7   O27   S    
Cr9   O33   S    
Cr1   O41   S    
C2    C15   S    
C18   C34   S    
C63   H15   S    
C121  C122  A    
C114  C118  A    
Cr4   O48   S    
C39   F7    S    
C48   C115  S    
C71   C87   S    
C26   H46   S    
C48   O32   A    
C12   H44   S    
C71   C75   A    
C73   C97   A    
C34   C38   S    
Cr12  O20   S    
Cr12  O40   S    
C102  O50   A    
C24   C44   A    
Cr2   O18   S    
C21   C41   A    
C51   C60   A    
Cr3   O47   S    
Cr5   O25   S    
C70   C86   S    
C46   O34   A    
C36   C40   S    
C9    H41   S    
C2    O26   A    
Cr8   O8    S    
C33   C37   S    
C113  C117  A    
Cr7   O31   S    
C7    C9    A    
C8    C120  A    
C39   H63   S    
C87   C95   S    
C92   O40   A    
C3    O23   A    
C115  C124  A    
C62   H14   S    
C46   C113  S    
C64   H10   S    
C41   C89   S    
C18   C22   A    
C50   C57   A    
C5    H37   S    
C66   C103  S    
C69   C85   S    
C101  O49   A    
C124  H4    S    
C91   O39   A    
Cr11  O35   S    
C45   O33   A    
C63   C64   S    
Cr7   O51   S    
C106  O10   A    
C92   O4    A    
C106  O6    A    
C119  C120  A    
C8    H40   S    
C100  C112  S    
C49   C106  S    
C36   H54   S    
C40   H64   S    
C35   H59   S    
C16   C32   A    
C79   H19   S    
C54   C62   S    
C115  C119  A    
Cr10  O14   S    
C57   H5    S    
C33   H55   S    
C103  O51   A    
C34   H56   S    
C97   C109  S    
C61   H11   S    
Cr9   O13   S    
Cr11  O39   S    
C88   H28   S    
C117  C118  A    
C60   H8    S    
Cr1   O21   S    
C79   C83   A    
C57   C58   A    
C66   C70   A    
C95   H35   S    
C61   H13   S    
C23   C39   S    
C3    C14   S    
Cr12  O36   S    
C87   F3    S    
C48   O36   A    
C103  O47   A    
C67   C71   A    
C4    O28   A    
C26   C42   A    
C28   H48   S    
C61   C62   S    
C77   C81   A    
C27   H47   S    
C24   C40   S    
C49   C53   A    
C58   H6    S    
Cr1   O17   S    
Cr10  O38   S    
C33   H57   S    
C13   C17   A    
Cr9   O37   S    
C27   C43   A    
C112  O44   A    
C21   C37   S    
Cr6   O26   S    
C8    C10   A    
Cr1   O45   S    
C96   H36   S    
C5    C117  A    
C74   C94   S    
C86   F2    S    
C91   O3    A    
C19   C35   S    
C77   C97   A    
Cr2   O22   S    
C31   H51   S    
C23   C43   A    
Cr3   O3    S    
C63   H9    S    
C94   H34   S    
C52   C56   A    
C11   C12   A    
C6    C118  A    
C85   F1    S    
C90   O2    A    
C26   C30   A    
C17   C21   A    
