data_mof_unit_10687.cif
_audit_creation_date              2012-12-10T20:53:15-0500
_audit_creation_method            fapswitch 2.2
_symmetry_space_group_name_H-M    P1
_symmetry_Int_Tables_number       1
_space_group_crystal_system       triclinic
_cell_length_a                    15.739202
_cell_length_b                    15.083031
_cell_length_c                    10.609544
_cell_angle_alpha                 88.352877
_cell_angle_beta                  90.066399
_cell_angle_gamma                 90.061731
_cell_volume                      2517.60759791

loop_
_atom_site_label
_atom_site_type_symbol
_atom_type_description
_atom_site_fract_x
_atom_site_fract_y
_atom_site_fract_z
_atom_type_partial_charge
C1    C     C_R   0.338576 0.499965 0.499469 0.879873
C2    C     C_R   0.661372 0.500119 0.500060 0.928452
C3    C     C_R   0.441496 0.954780 0.423523 -0.115403
C4    C     C_R   0.556277 0.951511 0.578649 -0.113521
C5    C     C_R   0.499056 0.905132 0.500694 -0.155115
C6    C     C_R   0.555007 0.045865 0.580411 0.428458
C7    C     C_R   0.442947 0.049224 0.422381 0.435735
C8    C     C_R   0.499237 0.095105 0.501157 -0.197145
C9    C     C_1   0.499506 0.806985 0.500203 0.115420
C10   C     C_1   0.499718 0.192984 0.500541 0.209271
C11   C     C_R   0.507065 0.501463 0.261920 0.998045
C12   C     C_R   0.499741 0.498458 0.738496 1.025214
C13   C     C_2   0.568646 0.453852 0.930540 0.437442
C14   C     C_2   0.562392 0.440796 0.068704 0.454226
C15   C     C_2   0.502471 0.492783 0.871554 -0.499895
C16   C     C_2   0.527346 0.507459 0.131025 -0.525034
C17   C     C_R   0.956413 0.584038 0.488367 0.438865
C18   C     C_R   0.044719 0.585002 0.484089 0.435422
C19   C     C_R   0.912463 0.509800 0.445324 -0.123368
C20   C     C_R   0.087758 0.510685 0.439210 -0.127696
C21   C     C_R   0.954684 0.439718 0.386928 -0.107918
C22   C     C_R   0.044000 0.439565 0.385072 -0.102808
C23   C     C_1   0.823884 0.504854 0.466710 0.040224
C24   C     C_1   0.176202 0.504166 0.462126 0.043223
C25   C     C_1   0.250373 0.500789 0.481718 -0.169883
C26   C     C_1   0.749595 0.501491 0.484431 -0.164660
H1    H     H_    0.446760 0.516397 0.920682 0.095406
H2    H     H_    0.514588 0.571209 0.084176 0.116736
N1    N     N_1   0.500000 0.270550 0.500000 -0.088143
N2    N     N_1   0.500000 0.729450 0.500000 -0.092372
O1    O     O_R   0.378020 0.573650 0.500040 -0.610549
O2    O     O_R   0.621980 0.573650 0.499960 -0.616827
O3    O     O_R   0.378020 0.426320 0.500100 -0.613957
O4    O     O_R   0.621980 0.426320 0.499900 -0.589517
O5    O     O_R   0.500000 0.573650 0.319080 -0.634765
O6    O     O_R   0.500000 0.573650 0.680920 -0.620191
O7    O     O_R   0.500000 0.426320 0.319140 -0.558274
O8    O     O_R   0.500000 0.426320 0.680860 -0.590665
Zn1   Zn    Zn3+2 0.500000 0.598370 0.500000 0.969912
Zn2   Zn    Zn3+2 0.500000 0.401630 0.500000 1.022234
O9    O     O_3   0.637079 0.423164 0.861240 -0.600295
C27   C     C_3   0.713790 0.455043 0.911889 -0.323882
H3    H     H_    0.728888 0.421327 0.003628 0.197683
H4    H     H_    0.712298 0.528334 0.922097 0.155373
H5    H     H_    0.766086 0.440022 0.845848 0.190932
O10   O     O_3   0.594559 0.366745 0.134621 -0.578373
C28   C     C_3   0.583072 0.288442 0.067013 -0.284443
H6    H     H_    0.630478 0.283568 0.990288 0.200151
H7    H     H_    0.517152 0.282581 0.029830 0.141728
H8    H     H_    0.594485 0.230992 0.132252 0.159114
O11   O     O_3   0.087874 0.653585 0.540278 -0.567538
C29   C     C_3   0.124520 0.709149 0.445706 -0.283554
H9    H     H_    0.078963 0.727030 0.368820 0.120713
H10   H     H_    0.182035 0.678391 0.405240 0.175530
H11   H     H_    0.144793 0.771694 0.489334 0.194125
O12   O     O_3   0.914142 0.650951 0.549271 -0.566368
C30   C     C_3   0.881684 0.711850 0.458051 -0.289484
H12   H     H_    0.836365 0.679971 0.392758 0.151662
H13   H     H_    0.933610 0.744853 0.403601 0.145620
H14   H     H_    0.846369 0.764187 0.507198 0.191837
C31   C     C_R   0.905395 0.367798 0.327534 0.169524
C32   C     C_R   0.904940 0.360961 0.195821 -0.149841
C33   C     C_R   0.856119 0.295602 0.139106 -0.145310
C34   C     C_R   0.807616 0.236674 0.213407 -0.084229
C35   C     C_R   0.808269 0.242631 0.344638 -0.116716
C36   C     C_R   0.857115 0.307797 0.401735 -0.153662
H15   H     H_    0.941620 0.406827 0.137252 0.126043
H16   H     H_    0.855491 0.290964 0.037492 0.129141
H17   H     H_    0.769533 0.186422 0.169298 0.114419
H18   H     H_    0.770729 0.196922 0.402096 0.143503
H19   H     H_    0.857001 0.311930 0.503481 0.135070
C37   C     C_R   0.091564 0.362934 0.335209 0.177259
C38   C     C_R   0.082766 0.278050 0.391853 -0.139018
C39   C     C_R   0.128468 0.206419 0.345900 -0.129867
C40   C     C_R   0.183451 0.219034 0.243623 -0.073672
C41   C     C_R   0.192906 0.303348 0.187178 -0.145610
C42   C     C_R   0.147158 0.375142 0.232658 -0.161626
H20   H     H_    0.041017 0.267570 0.471978 0.126932
H21   H     H_    0.121460 0.141158 0.389812 0.129645
H22   H     H_    0.218712 0.163467 0.208226 0.146000
H23   H     H_    0.235690 0.313068 0.108175 0.127800
H24   H     H_    0.154939 0.440160 0.188127 0.124775
O13   O     O_3   0.386125 0.096975 0.347492 -0.603069
C43   C     C_3   0.423949 0.113860 0.228810 -0.327785
H25   H     H_    0.436475 0.051264 0.179082 0.161393
H26   H     H_    0.483625 0.152625 0.237705 0.157781
H27   H     H_    0.379498 0.154143 0.169699 0.183501
O14   O     O_3   0.611586 0.090260 0.656214 -0.600683
C44   C     C_3   0.572906 0.102959 0.774194 -0.305408
H28   H     H_    0.557075 0.038588 0.822502 0.156250
H29   H     H_    0.515009 0.144928 0.764704 0.154112
H30   H     H_    0.618405 0.138123 0.835174 0.186863
C45   C     C_R   0.379190 0.908921 0.342671 0.180114
C46   C     C_R   0.291636 0.922978 0.358395 -0.085501
C47   C     C_R   0.232989 0.880558 0.281465 -0.193761
C48   C     C_R   0.261166 0.823482 0.188897 -0.121427
C49   C     C_R   0.348121 0.809376 0.172260 -0.129299
C50   C     C_R   0.407027 0.852212 0.248301 -0.174163
H31   H     H_    0.268866 0.966525 0.430386 0.137745
H32   H     H_    0.165634 0.891663 0.293967 0.124959
H33   H     H_    0.215623 0.790345 0.129916 0.127267
H34   H     H_    0.369918 0.765479 0.100145 0.128785
H35   H     H_    0.474256 0.841503 0.233354 0.124312
C51   C     C_R   0.618055 0.901906 0.659519 0.181815
C52   C     C_R   0.705761 0.913525 0.640978 -0.105482
C53   C     C_R   0.763915 0.865876 0.716075 -0.159334
C54   C     C_R   0.734995 0.806339 0.809925 -0.090034
C55   C     C_R   0.647843 0.794762 0.829451 -0.139352
C56   C     C_R   0.589487 0.842550 0.754951 -0.169425
H36   H     H_    0.728983 0.958857 0.567814 0.134425
H37   H     H_    0.831434 0.874842 0.701169 0.139980
H38   H     H_    0.780109 0.769265 0.867600 0.131510
H39   H     H_    0.625494 0.748773 0.902326 0.128706
H40   H     H_    0.522115 0.833304 0.771453 0.127661

loop_
_geom_bond_atom_site_label_1
_geom_bond_atom_site_label_2
_ccdc_geom_bond_type
C16   H2    S    
C7    O13   S    
C52   H36   S    
O9    C27   S    
C45   C46   A    
C38   C39   A    
C19   C23   S    
C47   C48   A    
C43   H27   S    
C13   O9    S    
C49   C50   A    
C1    O3    A    
C7    C8    A    
C14   O10   S    
O12   C30   S    
C37   C42   A    
C32   H15   S    
O13   C43   S    
O4    Zn2   S    
C42   H24   S    
C19   C21   A    
C43   H26   S    
O7    Zn2   S    
C3    C7    A    
C51   C56   A    
O2    Zn1   S    
C53   C54   A    
C50   H35   S    
C1    O1    A    
C6    O14   S    
C55   C56   A    
C2    O2    A    
C54   H38   S    
C23   C26   T    
C11   O7    A    
O10   C28   S    
C31   C36   A    
C28   H6    S    
C38   H20   S    
C44   H29   S    
C40   H22   S    
C21   C31   S    
C49   H34   S    
C29   H11   S    
C2    O4    A    
C13   C14   S    
C1    C25   S    
C31   C32   A    
C27   H4    S    
C22   C37   S    
C51   C52   A    
C29   H10   S    
C18   O11   S    
C28   H8    S    
C53   H37   S    
O3    Zn2   S    
C39   C40   A    
O11   C29   S    
C20   C24   S    
C43   H25   S    
C48   H33   S    
C24   C25   T    
C4    C6    A    
C47   H32   S    
C37   C38   A    
C30   H14   S    
C6    C8    A    
C3    C45   S    
C27   H5    S    
C55   H39   S    
O5    Zn1   S    
C40   C41   A    
C5    C9    S    
C32   C33   A    
C11   C16   S    
C15   H1    S    
C36   H19   S    
C12   C15   S    
C54   C55   A    
C48   C49   A    
C17   C18   A    
C2    C26   S    
C34   H17   S    
C41   C42   A    
C44   H30   S    
C17   O12   S    
C9    N2    T    
C56   H40   S    
C20   C22   A    
C39   H21   S    
C13   C15   D    
C14   C16   D    
C12   O6    A    
C27   H3    S    
C29   H9    S    
C33   H16   S    
O6    Zn1   S    
C4    C5    A    
C3    C5    A    
C41   H23   S    
C28   H7    S    
C52   C53   A    
C34   C35   A    
C11   O5    A    
O8    Zn2   S    
C10   N1    T    
C30   H12   S    
C46   H31   S    
C4    C51   S    
N1    Zn2   S    
C17   C19   A    
O1    Zn1   S    
N2    Zn1   S    
C18   C20   A    
C12   O8    A    
C46   C47   A    
C30   H13   S    
C33   C34   A    
O14   C44   S    
C8    C10   S    
C35   C36   A    
C44   H28   S    
C21   C22   A    
C45   C50   A    
C35   H18   S    
