data_mof_unit_46860.cif
_audit_creation_date              2012-12-10T18:58:15-0500
_audit_creation_method            fapswitch 2.2
_symmetry_space_group_name_H-M    P1
_symmetry_Int_Tables_number       1
_space_group_crystal_system       triclinic
_cell_length_a                    11.020009
_cell_length_b                    10.861725
_cell_length_c                    9.565819
_cell_angle_alpha                 90.290394
_cell_angle_beta                  102.457595
_cell_angle_gamma                 90.668635
_cell_volume                      1117.92553846

loop_
_atom_site_label
_atom_site_type_symbol
_atom_type_description
_atom_site_fract_x
_atom_site_fract_y
_atom_site_fract_z
_atom_type_partial_charge
C1    C     C_R   0.500148 0.262771 0.499686 0.807448
C2    C     C_R   0.438412 0.410359 0.056024 0.441998
C3    C     C_R   0.440020 0.410785 0.908651 -0.034755
C4    C     C_R   0.262654 0.495578 0.442477 0.895267
C5    C     C_R   0.551810 0.596144 0.939888 0.212538
C6    C     C_3   0.683952 0.638891 0.967294 -0.482377
C7    C     C_3   0.683543 0.639748 0.125881 -0.479089
C8    C     C_R   0.500349 0.737242 0.500193 0.807202
C9    C     C_R   0.737214 0.497250 0.557763 0.863585
C10   C     C_2   0.126972 0.488525 0.412777 -0.365154
C11   C     C_2   0.066638 0.448823 0.512703 0.454924
C12   C     C_R   0.502210 0.130167 0.498613 -0.079193
C13   C     C_2   0.871956 0.485759 0.589522 -0.350116
C14   C     C_2   0.931072 0.460599 0.484260 -0.269123
C15   C     C_R   0.488260 0.062608 0.616946 0.036636
C16   C     C_R   0.518519 0.064177 0.376667 -0.183770
C17   C     C_R   0.518704 0.934987 0.377092 -0.200677
C18   C     C_R   0.502372 0.869915 0.499405 -0.108255
C19   C     C_R   0.488027 0.938530 0.617337 0.084993
C20   C     C_3   0.462923 0.931232 0.764335 0.214887
C21   C     C_3   0.462955 0.073059 0.763373 -0.398034
C22   C     C_R   0.551640 0.596327 0.087074 0.205046
Cu1   Cu    Cu3+1 0.499990 0.499980 0.640670 0.960469
Cu2   Cu    Cu3+1 0.500010 0.500020 0.359330 0.950355
H1    H     H_    0.880283 0.453964 0.373667 0.160045
H2    H     H_    0.530816 0.111603 0.281261 0.190923
H3    H     H_    0.531191 0.886816 0.281872 0.166043
H4    H     H_    0.539356 0.890515 0.845548 0.083642
H5    H     H_    0.370673 0.113871 0.762180 0.230629
H6    H     H_    0.337543 0.345361 0.179018 0.368411
H7    H     H_    0.072275 0.356068 0.687608 0.326432
H8    H     H_    0.355348 0.791854 0.774551 0.338925
H9    H     H_    0.542297 0.115545 0.840969 0.153822
H10   H     H_    0.392295 0.338228 0.839618 0.177751
H11   H     H_    0.746858 0.568697 0.937832 0.216944
H12   H     H_    0.694012 0.732227 0.923946 0.185208
H13   H     H_    0.746676 0.570519 0.186938 0.210105
H14   H     H_    0.692442 0.733735 0.173818 0.192566
H15   H     H_    0.922519 0.496196 0.699823 0.162041
H16   H     H_    0.075500 0.520213 0.309502 0.103972
N1    N     N_R   0.500780 0.500930 0.148120 -0.237551
N2    N     N_R   0.500790 0.500890 0.852210 -0.228486
O1    O     O_R   0.500000 0.319640 0.618810 -0.589464
O2    O     O_3   0.131700 0.398853 0.639552 -0.709496
O3    O     O_3   0.344519 0.881998 0.762746 -0.688651
O4    O     O_R   0.500010 0.319680 0.381230 -0.580766
O5    O     O_R   0.320680 0.500000 0.575130 -0.512123
O6    O     O_R   0.320690 0.500040 0.337550 -0.619942
O7    O     O_R   0.499990 0.680320 0.618770 -0.596340
O8    O     O_R   0.500000 0.680360 0.381190 -0.581290
O9    O     O_R   0.679310 0.499960 0.662450 -0.586016
O10   O     O_R   0.679320 0.500000 0.424870 -0.578720
O11   O     O_3   0.375333 0.314315 0.102025 -0.743418

loop_
_geom_bond_atom_site_label_1
_geom_bond_atom_site_label_2
_ccdc_geom_bond_type
Cu2   O10   S    
C5    N2    A    
C3    N2    A    
C6    C7    S    
C7    C22   S    
H8    O3    S    
Cu1   O9    S    
C20   O3    S    
C9    O9    A    
C12   C15   A    
Cu1   Cu2   S    
Cu2   O4    S    
Cu1   O5    S    
C2    C3    A    
C7    H13   S    
Cu1   O1    S    
C11   O2    S    
C13   C14   D    
C20   C21   S    
C15   C19   A    
Cu2   N1    S    
Cu1   N2    S    
Cu2   O8    S    
C9    O10   A    
C12   C16   A    
H6    O11   S    
C7    H14   S    
C6    H12   S    
C17   C18   A    
C14   H1    S    
C16   H2    S    
C5    C6    S    
C11   C14   S    
C8    C18   S    
C1    O4    A    
C13   H15   S    
C22   N1    A    
C21   H9    S    
H7    O2    S    
C2    N1    A    
C4    C10   S    
Cu2   O6    S    
C8    O8    A    
C15   C21   S    
Cu1   O7    S    
C6    H11   S    
C10   H16   S    
C18   C19   A    
C10   C11   D    
C4    O6    A    
C9    C13   S    
C4    O5    A    
C20   H4    S    
C3    H10   S    
C21   H5    S    
C8    O7    A    
C1    O1    A    
C1    C12   S    
C5    C22   A    
C19   C20   S    
C16   C17   A    
C2    O11   S    
C17   H3    S    
