data_mof_unit_28375.cif
_audit_creation_date              2012-12-10T17:08:11-0500
_audit_creation_method            fapswitch 2.2
_symmetry_space_group_name_H-M    P1
_symmetry_Int_Tables_number       1
_space_group_crystal_system       triclinic
_cell_length_a                    23.523427
_cell_length_b                    11.02039
_cell_length_c                    9.846623
_cell_angle_alpha                 111.577624
_cell_angle_beta                  98.467389
_cell_angle_gamma                 90.944136
_cell_volume                      2340.91941618

loop_
_atom_site_label
_atom_site_type_symbol
_atom_type_description
_atom_site_fract_x
_atom_site_fract_y
_atom_site_fract_z
_atom_type_partial_charge
C1    C     C_R   0.496008 0.253808 0.440148 0.860065
C2    C     C_R   0.504344 0.746185 0.559825 0.858091
C3    C     C_R   0.230540 0.484652 0.376364 -0.101639
C4    C     C_R   0.769114 0.509899 0.624087 -0.107064
C5    C     C_R   0.289697 0.487767 0.375355 -0.227895
C6    C     C_R   0.709963 0.509509 0.625041 -0.215925
C7    C     C_R   0.328466 0.495499 0.501875 -0.032245
C8    C     C_R   0.671516 0.501292 0.497809 -0.045948
C9    C     C_R   0.306928 0.498836 0.628923 -0.221754
C10   C     C_R   0.693370 0.494310 0.369952 -0.214206
C11   C     C_R   0.247682 0.495192 0.629449 -0.106504
C12   C     C_R   0.752648 0.495419 0.369545 -0.104033
C13   C     C_R   0.209294 0.488588 0.503379 0.345719
C14   C     C_R   0.790731 0.502935 0.496512 0.343037
C15   C     C_2   0.494328 0.113908 0.406205 -0.356725
C16   C     C_2   0.506923 0.886084 0.593684 -0.351875
C17   C     C_2   0.502001 0.069686 0.516162 -0.139695
C18   C     C_2   0.500348 0.930310 0.483680 -0.151075
C19   C     C_2   0.503584 0.513619 0.082568 0.102454
C20   C     C_2   0.494193 0.491835 0.919060 0.100652
C21   C     C_R   0.390953 0.498883 0.500685 0.789123
C22   C     C_R   0.609038 0.500422 0.499185 0.791784
C23   C     C_R   0.886976 0.610121 0.587446 0.548537
C24   C     C_R   0.113268 0.379893 0.414407 0.545437
C25   C     C_R   0.873319 0.392442 0.405898 0.554821
C26   C     C_R   0.126760 0.597929 0.595115 0.554127
C27   C     C_R   0.932832 0.387570 0.406439 -0.044888
C28   C     C_R   0.067350 0.601996 0.595909 -0.046936
C29   C     C_R   0.970077 0.496618 0.500945 -0.080878
C30   C     C_R   0.030166 0.492276 0.502586 -0.084652
C31   C     C_R   0.947239 0.610258 0.592620 -0.092118
C32   C     C_R   0.053036 0.378485 0.411243 -0.091308
C33   C     C_R   0.955546 0.275596 0.315045 -0.278504
C34   C     C_R   0.044660 0.713788 0.687635 -0.264284
C35   C     C_R   0.015259 0.267523 0.320470 0.462193
C36   C     C_R   0.985160 0.720174 0.685153 0.440216
Cu1   Cu    Cu3+1 0.509980 0.521810 0.644910 0.958799
Cu2   Cu    Cu3+1 0.490020 0.478190 0.355090 0.959189
H1    H     H_    0.926853 0.193634 0.237883 0.186820
H2    H     H_    0.073052 0.797394 0.762511 0.196098
H3    H     H_    0.201134 0.480168 0.278759 0.142324
H4    H     H_    0.798252 0.515039 0.722381 0.145227
H5    H     H_    0.304984 0.485127 0.275949 0.144977
H6    H     H_    0.694390 0.514928 0.725142 0.174122
H7    H     H_    0.335764 0.503847 0.727647 0.148635
H8    H     H_    0.664762 0.488480 0.270566 0.169668
H9    H     H_    0.231536 0.497790 0.727876 0.139142
H10   H     H_    0.769053 0.490447 0.270634 0.144531
H11   H     H_    0.493374 0.863431 0.368414 0.173718
H12   H     H_    0.509344 0.136567 0.631430 0.191747
H13   H     H_    0.514029 0.953181 0.708783 0.152835
H14   H     H_    0.486915 0.046804 0.291100 0.148504
H15   H     H_    0.457535 0.427598 0.847228 0.121042
H16   H     H_    0.532498 0.595779 0.159023 0.121245
N1    N     N_R   0.851709 0.502147 0.495856 -0.473139
N2    N     N_R   0.148394 0.488425 0.505006 -0.474033
N3    N     N_2   0.475010 0.445410 0.137370 -0.033509
N4    N     N_2   0.524990 0.554590 0.862630 -0.032598
O1    O     O_R   0.505330 0.332340 0.577400 -0.580679
O2    O     O_R   0.494670 0.667660 0.422600 -0.596752
O3    O     O_R   0.488470 0.295500 0.332650 -0.563447
O4    O     O_R   0.511530 0.704500 0.667350 -0.610699
O5    O     O_R   0.426310 0.518390 0.622390 -0.600123
O6    O     O_R   0.573690 0.481610 0.377610 -0.582171
O7    O     O_R   0.409450 0.481550 0.377650 -0.612564
O8    O     O_R   0.590550 0.518450 0.622350 -0.564700
O9    O     O_2   0.863470 0.716892 0.671989 -0.503724
O10   O     O_2   0.136879 0.274206 0.328161 -0.503110
O11   O     O_2   0.837275 0.287456 0.317875 -0.546778
O12   O     O_2   0.162697 0.703474 0.682076 -0.546890
O13   O     O_3   0.575827 0.611507 0.948069 -0.543861
C37   C     C_3   0.582050 0.739581 0.950709 0.185857
H17   H     H_    0.540003 0.785183 0.951151 0.136858
H18   H     H_    0.601405 0.738105 0.853881 0.175225
C38   C     C_3   0.622598 0.823587 0.092004 -0.430536
H19   H     H_    0.604873 0.821754 0.189951 0.223173
H20   H     H_    0.665463 0.782601 0.092690 0.237091
C39   C     C_3   0.629868 0.965144 0.103578 -0.872450
H21   H     H_    0.647959 0.969650 0.007344 0.259830
H22   H     H_    0.659859 0.023163 0.206610 0.274703
H23   H     H_    0.587689 0.009168 0.107334 0.253162
O14   O     O_3   0.450343 0.329408 0.037297 -0.542977
C40   C     C_3   0.394010 0.314518 0.063857 0.189369
H24   H     H_    0.373037 0.408851 0.093579 0.127358
H25   H     H_    0.394966 0.275553 0.153227 0.178259
C41   C     C_3   0.357916 0.216339 0.923059 -0.432982
H26   H     H_    0.357495 0.252445 0.831299 0.222550
H27   H     H_    0.377522 0.120763 0.891557 0.235826
C42   C     C_3   0.296022 0.196793 0.945117 -0.876221
H28   H     H_    0.295340 0.159262 0.035312 0.264078
H29   H     H_    0.270993 0.124684 0.841305 0.274141
H30   H     H_    0.275169 0.290717 0.973442 0.248366
O15   O     O_3   0.036471 0.156373 0.226411 -0.575234
C43   C     C_3   0.024229 0.045687 0.261150 0.079079
H31   H     H_    0.029825 0.957341 0.164162 0.190498
H32   H     H_    0.978894 0.035698 0.277825 0.121608
C44   C     C_3   0.066094 0.045776 0.396433 -0.332551
H33   H     H_    0.111190 0.054268 0.377825 0.264125
H34   H     H_    0.059828 0.130875 0.496157 0.203037
C45   C     C_3   0.056436 0.920301 0.424617 -0.918769
H35   H     H_    0.011330 0.908415 0.441247 0.242314
H36   H     H_    0.085995 0.924744 0.525557 0.268284
H37   H     H_    0.065223 0.834015 0.329394 0.266827
O16   O     O_3   0.964831 0.830692 0.781717 -0.570308
C46   C     C_3   0.967970 0.932898 0.728239 0.078282
H38   H     H_    0.943035 0.902597 0.613978 0.145585
H39   H     H_    0.013589 0.961350 0.727949 0.136488
C47   C     C_3   0.942111 0.052299 0.829373 -0.281831
H40   H     H_    0.896321 0.026276 0.830039 0.245384
H41   H     H_    0.966036 0.082777 0.944219 0.244744
C48   C     C_3   0.945177 0.166633 0.777681 -0.908625
H42   H     H_    0.990723 0.195811 0.778719 0.259747
H43   H     H_    0.926098 0.251692 0.853255 0.263964
H44   H     H_    0.920702 0.139117 0.663823 0.260719

loop_
_geom_bond_atom_site_label_1
_geom_bond_atom_site_label_2
_ccdc_geom_bond_type
C9    H7    S    
O15   C43   S    
C27   C29   A    
C11   H9    S    
C48   H42   S    
C16   H13   S    
C24   N2    A    
C12   H10   S    
Cu1   O4    S    
C27   C33   A    
C46   H39   S    
C33   H1    S    
C34   H2    S    
Cu1   Cu2   S    
C1    O1    A    
C39   H22   S    
N4    O13   S    
C47   H40   S    
C7    C9    A    
C23   O9    S    
C22   O8    A    
C44   H34   S    
C19   C20   S    
C10   H8    S    
C8    C22   S    
C1    C15   S    
C42   H29   S    
C2    C16   S    
C31   C36   A    
C34   C36   A    
Cu1   N4    S    
C3    C13   A    
Cu2   O3    S    
C14   N1    S    
C5    H5    S    
C28   C34   A    
C6    H6    S    
C37   C38   S    
O16   C46   S    
Cu1   O5    S    
C44   H33   S    
Cu2   O6    S    
C35   O15   S    
C46   C47   S    
C41   H27   S    
C32   C35   A    
C4    C6    A    
C5    C7    A    
C41   H26   S    
C37   H17   S    
C6    C8    A    
C43   C44   S    
C7    C21   S    
C45   H37   S    
C19   N3    D    
C1    O3    A    
C23   C31   A    
C38   H19   S    
C24   C32   A    
C29   C30   A    
Cu2   N3    S    
C38   H20   S    
C40   H24   S    
Cu2   O7    S    
Cu1   O8    S    
C45   H36   S    
C17   C18   S    
C48   H43   S    
C16   C18   D    
C15   H14   S    
C42   H30   S    
C43   H32   S    
C9    C11   A    
Cu1   O1    S    
C10   C12   A    
Cu2   O2    S    
C19   H16   S    
C37   H18   S    
C40   H25   S    
C12   C14   A    
C26   O12   S    
C25   O11   S    
C20   N4    D    
C44   C45   S    
C15   C17   D    
C3    H3    S    
C21   O7    A    
C39   H21   S    
C25   N1    A    
C20   H15   S    
C3    C5    A    
C41   C42   S    
C26   N2    A    
C17   H12   S    
C23   N1    A    
C25   C27   A    
C46   H38   S    
C26   C28   A    
C47   C48   S    
C36   O16   S    
C13   N2    S    
C28   C30   A    
O13   C37   S    
C29   C31   A    
C30   C32   A    
C11   C13   A    
C39   H23   S    
C4    H4    S    
C45   H35   S    
C33   C35   A    
C47   H41   S    
C48   H44   S    
C2    O2    A    
C4    C14   A    
C43   H31   S    
C38   C39   S    
C21   O5    A    
C24   O10   S    
C22   O6    A    
C40   C41   S    
C8    C10   A    
O14   C40   S    
N3    O14   S    
C42   H28   S    
C2    O4    A    
C18   H11   S    
