data_mof_unit_49551.cif
_audit_creation_date              2013-03-05T15:59:03-0500
_audit_creation_method            fapswitch 2.2
_symmetry_space_group_name_H-M    P1
_symmetry_Int_Tables_number       1
_space_group_crystal_system       triclinic
_cell_length_a                    15.169479
_cell_length_b                    13.950779
_cell_length_c                    19.43319
_cell_angle_alpha                 90.002937
_cell_angle_beta                  87.712589
_cell_angle_gamma                 89.999584
_cell_volume                      4109.29227354

loop_
_atom_site_label
_atom_site_type_symbol
_atom_site_description
_atom_site_fract_x
_atom_site_fract_y
_atom_site_fract_z
_atom_type_partial_charge
O1    O     O_R   0.370260 0.582280 0.500020 -0.544233
O2    O     O_R   0.629740 0.417720 0.499980 -0.532570
O3    O     O_R   0.629740 0.582280 0.499980 -0.544157
O4    O     O_R   0.370260 0.417720 0.500020 -0.532512
C1    C     C_R   0.328950 0.499553 0.499881 0.879829
C2    C     C_R   0.671049 0.499552 0.500120 0.879901
O5    O     O_R   0.499990 0.582300 0.400140 -0.508930
O6    O     O_R   0.500010 0.417700 0.599860 -0.537537
O7    O     O_R   0.500010 0.582300 0.599860 -0.508926
O8    O     O_R   0.499990 0.417700 0.400140 -0.537363
C3    C     C_R   0.498299 0.500372 0.367474 0.880814
C4    C     C_R   0.501707 0.500379 0.632523 0.880814
Cu1   Cu    Cu3+1 0.500000 0.597420 0.500000 1.139437
Cu2   Cu    Cu3+1 0.500000 0.402580 0.500000 1.132126
C5    C     C_R   0.457726 0.584409 0.256862 0.323955
C6    C     C_R   0.471133 0.426678 0.750116 0.321824
C7    C     C_R   0.542479 0.584386 0.743099 0.324023
C8    C     C_R   0.528917 0.426607 0.249890 0.321970
C9    C     C_R   0.462012 0.588608 0.184582 -0.218568
C10   C     C_R   0.469839 0.433112 0.821626 -0.229342
C11   C     C_R   0.538323 0.588575 0.815380 -0.218651
C12   C     C_R   0.530351 0.433073 0.178377 -0.229357
H1    H     H_    0.434201 0.649624 0.158654 0.187120
H2    H     H_    0.442348 0.374090 0.851743 0.188413
H3    H     H_    0.566226 0.649562 0.841286 0.187036
H4    H     H_    0.557810 0.374021 0.148269 0.188484
C13   C     C_R   0.497607 0.513293 0.145361 -0.066487
C14   C     C_R   0.502728 0.513284 0.854624 -0.066414
C15   C     C_R   0.493583 0.502915 0.290982 -0.271566
C16   C     C_R   0.506493 0.502938 0.709007 -0.271562
N1    N     N_R   0.499373 0.431713 0.034143 -0.245523
N2    N     N_R   0.501360 0.599258 0.965673 -0.226317
N3    N     N_R   0.500892 0.431710 0.965839 -0.245526
N4    N     N_R   0.499216 0.599261 0.034311 -0.226278
C17   C     C_R   0.502069 0.515277 0.930252 0.441700
C18   C     C_R   0.498344 0.515283 0.069731 0.441707
C19   C     C_R   0.816930 0.518621 0.436400 0.279546
C20   C     C_R   0.183064 0.518620 0.563601 0.279567
C21   C     C_R   0.768309 0.497790 0.498058 -0.148235
C22   C     C_R   0.231689 0.497795 0.501941 -0.148273
C23   C     C_R   0.813418 0.472670 0.557156 -0.111706
C24   C     C_R   0.186583 0.472694 0.442836 -0.111794
C25   C     C_R   0.902946 0.498408 0.561017 0.005240
C26   C     C_R   0.097049 0.498418 0.438978 0.005265
C27   C     C_R   0.953520 0.509336 0.498963 -0.005820
C28   C     C_R   0.046475 0.509337 0.501034 -0.005794
C29   C     C_R   0.910923 0.512282 0.434841 -0.053298
C30   C     C_R   0.089071 0.512283 0.565157 -0.053280
C31   C     C_R   0.943728 0.503283 0.625286 -0.063220
C32   C     C_R   0.056263 0.503303 0.374708 -0.063190
C33   C     C_R   0.036465 0.507973 0.627749 -0.057451
C34   C     C_R   0.963525 0.507972 0.372248 -0.057418
C35   C     C_R   0.446603 0.795445 0.545411 0.410216
C36   C     C_R   0.570821 0.204799 0.471583 0.446937
C37   C     C_R   0.553405 0.795449 0.454601 0.410218
C38   C     C_R   0.429189 0.204801 0.528427 0.446988
N5    N     N_R   0.500000 0.743810 0.500000 -0.287952
N6    N     N_R   0.500000 0.256190 0.500000 -0.285648
C39   C     C_R   0.565129 0.896296 0.463062 -0.109593
C40   C     C_R   0.429419 0.101754 0.532929 -0.116529
C41   C     C_R   0.434892 0.896300 0.536975 -0.109617
C42   C     C_R   0.570613 0.101747 0.467110 -0.116533
C43   C     C_R   0.500011 0.948352 0.500019 0.025482
C44   C     C_R   0.500015 0.050836 0.500019 0.012975
C45   C     C_R   0.639069 0.945244 0.434301 -0.021457
C46   C     C_R   0.359255 0.047072 0.566462 -0.037326
C47   C     C_R   0.360973 0.945264 0.565765 -0.021538
C48   C     C_R   0.640797 0.047052 0.433606 -0.037333
N7    N     N_R   0.414546 0.662557 0.293415 0.144525
O9    O     O_R   0.359273 0.646084 0.344935 -0.417979
O10   O     O_R   0.415886 0.748043 0.266550 -0.330857
N8    N     N_R   0.434908 0.341644 0.721395 0.171700
O11   O     O_R   0.487724 0.278786 0.692359 -0.378058
O12   O     O_R   0.357300 0.313455 0.744028 -0.361350
N9    N     N_R   0.585653 0.662497 0.706510 0.144491
O13   O     O_R   0.640874 0.645972 0.654963 -0.417996
O14   O     O_R   0.584360 0.747998 0.733356 -0.330944
N10   N     N_R   0.564904 0.341458 0.278622 0.171716
O15   O     O_R   0.511927 0.278824 0.307724 -0.377795
O16   O     O_R   0.642382 0.312945 0.255941 -0.361718
N11   N     N_R   0.770597 0.543887 0.376017 0.138988
O17   O     O_R   0.707373 0.489967 0.354575 -0.314880
O18   O     O_R   0.791310 0.621654 0.342280 -0.329364
N12   N     N_R   0.229394 0.543879 0.623989 0.138987
O19   O     O_R   0.292620 0.489960 0.645425 -0.314646
O20   O     O_R   0.208683 0.621647 0.657732 -0.329362
C49   C     C_R   0.779596 0.393825 0.602607 0.170720
C50   C     C_R   0.825173 0.305780 0.602228 -0.053443
C51   C     C_R   0.799679 0.232825 0.648057 -0.159840
C52   C     C_R   0.730294 0.248010 0.696124 -0.091917
C53   C     C_R   0.686221 0.335871 0.697989 -0.067038
C54   C     C_R   0.709716 0.407911 0.650686 -0.125703
H5    H     H_    0.880520 0.293778 0.566279 0.124549
H6    H     H_    0.834697 0.165216 0.647039 0.124727
H7    H     H_    0.711691 0.192392 0.732708 0.141476
H8    H     H_    0.635582 0.348872 0.737441 0.147434
H9    H     H_    0.677310 0.476192 0.653958 0.136831
C55   C     C_R   0.220440 0.393901 0.397343 0.170594
C56   C     C_R   0.174919 0.305821 0.397697 -0.053313
C57   C     C_R   0.200406 0.232934 0.351800 -0.159848
C58   C     C_R   0.269715 0.248233 0.303681 -0.091703
C59   C     C_R   0.313733 0.336130 0.301844 -0.066704
C60   C     C_R   0.290266 0.408088 0.349227 -0.125936
H10   H     H_    0.119613 0.293743 0.433675 0.124604
H11   H     H_    0.165429 0.165298 0.352797 0.124774
H12   H     H_    0.288298 0.192677 0.267035 0.141455
H13   H     H_    0.364302 0.349225 0.262350 0.147249
H14   H     H_    0.322631 0.476395 0.345979 0.136976
C61   C     C_R   0.888819 0.510323 0.690578 0.092768
C62   C     C_R   0.838950 0.593356 0.704521 -0.125127
C63   C     C_R   0.788765 0.601506 0.766190 -0.103049
C64   C     C_R   0.787384 0.526695 0.814019 -0.146015
C65   C     C_R   0.837055 0.443942 0.800672 -0.131259
C66   C     C_R   0.887770 0.435658 0.739308 -0.125848
H15   H     H_    0.839479 0.651808 0.667823 0.148914
H16   H     H_    0.750867 0.665856 0.776928 0.174708
H17   H     H_    0.747922 0.532939 0.861456 0.137870
H18   H     H_    0.835971 0.386009 0.837725 0.131224
H19   H     H_    0.925488 0.370889 0.729359 0.121093
C67   C     C_R   0.111166 0.510392 0.309418 0.092800
C68   C     C_R   0.161055 0.593421 0.295525 -0.125335
C69   C     C_R   0.211257 0.601608 0.233869 -0.102996
C70   C     C_R   0.212628 0.526842 0.186001 -0.146047
C71   C     C_R   0.162929 0.444099 0.199294 -0.131349
C72   C     C_R   0.112205 0.435775 0.260648 -0.125821
H20   H     H_    0.160538 0.651836 0.332255 0.148901
H21   H     H_    0.249179 0.665949 0.223175 0.174821
H22   H     H_    0.252105 0.533113 0.138575 0.137880
H23   H     H_    0.164008 0.386201 0.162211 0.131225
H24   H     H_    0.074476 0.371008 0.270559 0.121101
C73   C     C_R   0.075485 0.495689 0.696335 0.146322
C74   C     C_R   0.065942 0.567635 0.746913 -0.042346
C75   C     C_R   0.099637 0.553941 0.812063 -0.114330
C76   C     C_R   0.142161 0.468229 0.827513 -0.111434
C77   C     C_R   0.150850 0.396003 0.777898 -0.064919
C78   C     C_R   0.117562 0.409428 0.712530 -0.104359
H25   H     H_    0.033023 0.634334 0.735516 0.111711
H26   H     H_    0.092612 0.609700 0.850610 0.127179
H27   H     H_    0.168130 0.457626 0.878022 0.130186
H28   H     H_    0.183156 0.329556 0.790306 0.152878
H29   H     H_    0.124495 0.353104 0.674412 0.155019
C79   C     C_R   0.924493 0.495664 0.303666 0.146269
C80   C     C_R   0.934023 0.567592 0.253079 -0.042343
C81   C     C_R   0.900279 0.553890 0.187946 -0.114291
C82   C     C_R   0.857711 0.468192 0.172524 -0.111439
C83   C     C_R   0.849029 0.395984 0.222148 -0.065077
C84   C     C_R   0.882377 0.409412 0.287496 -0.104465
H30   H     H_    0.966963 0.634288 0.264459 0.111755
H31   H     H_    0.907294 0.609635 0.149392 0.127190
H32   H     H_    0.831696 0.457586 0.122030 0.130206
H33   H     H_    0.816676 0.329553 0.209766 0.152942
H34   H     H_    0.875443 0.353105 0.325623 0.155059
N13   N     N_R   0.413491 0.752203 0.607628 0.149503
O21   O     O_R   0.351987 0.688547 0.605438 -0.279561
O22   O     O_R   0.429517 0.791797 0.666416 -0.325252
N14   N     N_R   0.650136 0.254040 0.452969 0.135808
O23   O     O_R   0.658675 0.299934 0.395063 -0.260639
O24   O     O_R   0.716009 0.250328 0.493537 -0.411042
N15   N     N_R   0.586516 0.752227 0.392371 0.149526
O25   O     O_R   0.647957 0.688494 0.394549 -0.279492
O26   O     O_R   0.570574 0.791905 0.333597 -0.325225
N16   N     N_R   0.349846 0.254028 0.546993 0.135812
O27   O     O_R   0.341243 0.299937 0.604894 -0.260564
O28   O     O_R   0.283998 0.250244 0.506402 -0.411098
C85   C     C_R   0.721613 0.890532 0.416582 0.106139
C86   C     C_R   0.756073 0.884866 0.348438 -0.032275
C87   C     C_R   0.836928 0.839439 0.334066 -0.071699
C88   C     C_R   0.883326 0.798145 0.387291 -0.067086
C89   C     C_R   0.848439 0.801189 0.454879 -0.113248
C90   C     C_R   0.768103 0.847454 0.469589 -0.138156
H35   H     H_    0.720731 0.916192 0.306700 0.137191
H36   H     H_    0.863493 0.835899 0.281608 0.119412
H37   H     H_    0.945641 0.762510 0.376011 0.112254
H38   H     H_    0.883938 0.768226 0.495932 0.121790
H39   H     H_    0.742570 0.850861 0.522386 0.142430
C91   C     C_R   0.284710 0.091572 0.606793 0.121475
C92   C     C_R   0.200330 0.096640 0.579417 -0.050204
C93   C     C_R   0.128187 0.128041 0.620370 -0.135803
C94   C     C_R   0.139207 0.151940 0.689311 -0.169198
C95   C     C_R   0.222536 0.145510 0.717163 -0.083141
C96   C     C_R   0.295201 0.115765 0.676083 -0.039241
H40   H     H_    0.190625 0.075385 0.526641 0.127294
H41   H     H_    0.063513 0.132423 0.598976 0.117281
H42   H     H_    0.083101 0.175111 0.721239 0.118690
H43   H     H_    0.230723 0.162579 0.770836 0.139361
H44   H     H_    0.359106 0.109128 0.698566 0.167727
C97   C     C_R   0.278433 0.890574 0.583526 0.106230
C98   C     C_R   0.244047 0.884904 0.651690 -0.032313
C99   C     C_R   0.163189 0.839508 0.666107 -0.071719
C100  C     C_R   0.116712 0.798257 0.612906 -0.066999
C101  C     C_R   0.151525 0.801309 0.545296 -0.113221
C102  C     C_R   0.231865 0.847539 0.530542 -0.138147
H45   H     H_    0.279447 0.916206 0.693408 0.137175
H46   H     H_    0.136681 0.835964 0.718581 0.119412
H47   H     H_    0.054393 0.762651 0.624220 0.112207
H48   H     H_    0.115963 0.768380 0.504260 0.121750
H49   H     H_    0.257340 0.850954 0.477730 0.142367
C103  C     C_R   0.715388 0.091533 0.393324 0.121461
C104  C     C_R   0.799734 0.096596 0.420759 -0.050242
C105  C     C_R   0.871922 0.127994 0.379856 -0.135713
C106  C     C_R   0.860981 0.151892 0.310907 -0.169238
C107  C     C_R   0.777687 0.145458 0.282995 -0.083383
C108  C     C_R   0.704979 0.115717 0.324025 -0.039188
H50   H     H_    0.809377 0.075347 0.473543 0.127237
H51   H     H_    0.936569 0.132376 0.401296 0.117283
H52   H     H_    0.917120 0.175062 0.279018 0.118732
H53   H     H_    0.769562 0.162519 0.229316 0.139371
H54   H     H_    0.641102 0.109077 0.301497 0.167832

loop_
_geom_bond_atom_site_label_1
_geom_bond_atom_site_label_2
_geom_bond_distance
_ccdc_geom_bond_type
C49   C50   1.409380 A    
C35   N13   1.424675 S    
C85   C86   1.406375 A    
C37   C39   1.428407 A    
C106  C107  1.397655 A    
C63   C64   1.397196 A    
C6    N8    1.430105 S    
O3    C2    1.313320 A    
C46   C91   1.485794 S    
C77   H28   1.080310 S    
N11   O17   1.300455 A    
C52   C53   1.395979 A    
C70   C71   1.397165 A    
C21   C23   1.404551 A    
C27   C28   1.412266 A    
C67   C68   1.403935 A    
O5    C3    1.308136 A    
C57   H11   1.082319 S    
C100  C101  1.396991 A    
C32   C67   1.492959 S    
N14   O23   1.296713 A    
N12   O20   1.299690 A    
C5    C9    1.404769 A    
N7    O9    1.300471 A    
C24   C55   1.489060 S    
C36   N14   1.419747 S    
C64   H17   1.082444 S    
N10   O16   1.300950 A    
Cu1   N5    2.042255 S    
C6    C16   1.422560 A    
C80   C81   1.397278 A    
C105  H51   1.082422 S    
C45   C85   1.494853 S    
C69   H21   1.081799 S    
C23   C49   1.489029 S    
C91   C96   1.403366 A    
C48   C103  1.485777 S    
C89   C90   1.398410 A    
C51   H6    1.082283 S    
N7    O10   1.301720 A    
O7    Cu1   1.952045 S    
C62   C63   1.398531 A    
C42   C44   1.416251 A    
C53   H8    1.078775 S    
C101  H48   1.082715 S    
C35   C41   1.428442 A    
C72   H24   1.082721 S    
C30   C33   1.429143 A    
C10   H2    1.083980 S    
C14   C17   1.469600 S    
C47   C97   1.494829 S    
C105  C106  1.397072 A    
C31   C33   1.411018 A    
C55   C60   1.398710 A    
C32   C34   1.411022 A    
C89   H38   1.082714 S    
N15   O26   1.300585 A    
C5    C15   1.434207 A    
C103  C104  1.407399 A    
C38   N6    1.387682 A    
C19   C29   1.427672 A    
C9    C13   1.394103 A    
C20   C30   1.427677 A    
C93   H41   1.082429 S    
O3    Cu1   1.979372 S    
C6    C10   1.391924 A    
C20   N12   1.435650 S    
C22   C24   1.404553 A    
C56   H10   1.083633 S    
C40   C46   1.443665 A    
C75   H26   1.082200 S    
C8    C12   1.391950 A    
Cu1   Cu2   2.718168 S    
C85   C90   1.406302 A    
C7    C16   1.434168 A    
C23   C25   1.409648 A    
C19   N11   1.435647 S    
C86   C87   1.398805 A    
O2    C2    1.302348 A    
C24   C26   1.409681 A    
C5    N7    1.443956 S    
C99   H46   1.082250 S    
C64   C65   1.397203 A    
N11   O18   1.299694 A    
C26   C28   1.411455 A    
C54   H9    1.072646 S    
C82   C83   1.397161 A    
N16   O28   1.298321 A    
C90   H39   1.083178 S    
C27   C29   1.426979 A    
C88   H37   1.082682 S    
Cu2   N6    2.042255 S    
C28   C30   1.426993 A    
C79   C80   1.408193 A    
C107  C108  1.397945 A    
C83   C84   1.398187 A    
C101  C102  1.398415 A    
C58   C59   1.396023 A    
C93   C94   1.397077 A    
C77   C78   1.398193 A    
N12   O19   1.300443 A    
N8    O12   1.301069 A    
C73   C78   1.403825 A    
O8    Cu2   1.952045 S    
C87   C88   1.398305 A    
C33   C73   1.489709 S    
N10   O15   1.301124 A    
C25   C31   1.417345 A    
C36   C42   1.440285 A    
C74   H25   1.083098 S    
C34   C79   1.489729 S    
C43   C44   1.429736 A    
C38   N16   1.419762 S    
C98   C99   1.398804 A    
N2    N4    1.332969 A    
C9    H1    1.083250 S    
N9    O13   1.300478 A    
N2    C17   1.358635 A    
C81   H31   1.082204 S    
C74   C75   1.397277 A    
C37   N15   1.424703 S    
N9    O14   1.301711 A    
C41   C47   1.409546 A    
N15   O25   1.290011 A    
O6    C4    1.317277 A    
C45   C48   1.420592 A    
N1    N3    1.326645 A    
C68   C69   1.398493 A    
C99   C100  1.398307 A    
C8    C15   1.422669 A    
C102  H49   1.083179 S    
C25   C27   1.411453 A    
C97   C102  1.406300 A    
C87   H36   1.082249 S    
C86   H35   1.082139 S    
C100  H47   1.082682 S    
C61   C66   1.407437 A    
C8    N10   1.430139 S    
C11   C14   1.394147 A    
C98   H45   1.082145 S    
C92   C93   1.397646 A    
C107  H53   1.081818 S    
C37   N5    1.377192 A    
C75   C76   1.396983 A    
C13   C18   1.469586 S    
O1    C1    1.313320 A    
C1    C22   1.474557 S    
N13   O22   1.300572 A    
C73   C74   1.408187 A    
C59   H13   1.078843 S    
C76   H27   1.082313 S    
C95   C96   1.397953 A    
C31   C61   1.492981 S    
C65   C66   1.397866 A    
C36   N6    1.387697 A    
C26   C32   1.417394 A    
C58   H12   1.082231 S    
C11   H3    1.083263 S    
C50   H5    1.083588 S    
C88   C89   1.396986 A    
O6    Cu2   1.952024 S    
C4    C16   1.491403 S    
C2    C21   1.474533 S    
C39   C43   1.400802 A    
C79   C84   1.403847 A    
C41   C43   1.400831 A    
C82   H32   1.082308 S    
N8    O11   1.301205 A    
C52   H7    1.082202 S    
C96   H44   1.083062 S    
C69   C70   1.397165 A    
C29   C34   1.429126 A    
C94   C95   1.397664 A    
N16   O27   1.296729 A    
C83   H33   1.080317 S    
C10   C14   1.391589 A    
C108  H54   1.083056 S    
C76   C77   1.397157 A    
C12   C13   1.391534 A    
C56   C57   1.396902 A    
C42   C48   1.443696 A    
C40   C44   1.416229 A    
C63   H16   1.081830 S    
C91   C92   1.407405 A    
C84   H34   1.082102 S    
N13   O21   1.289998 A    
C68   H20   1.083126 S    
C19   C21   1.411974 A    
C61   C62   1.403960 A    
C39   C45   1.409522 A    
C20   C22   1.411990 A    
C70   H22   1.082416 S    
C104  H50   1.083260 S    
C66   H19   1.082751 S    
O4    C1    1.302357 A    
N14   O24   1.298303 A    
C57   C58   1.395324 A    
N3    C17   1.355296 A    
C78   H29   1.082096 S    
C35   N5    1.377186 A    
C71   H23   1.082131 S    
C46   C47   1.420597 A    
C106  H52   1.082432 S    
N4    C18   1.358628 A    
C67   C72   1.407409 A    
O4    Cu2   1.979373 S    
C59   C60   1.398606 A    
O2    Cu2   1.979375 S    
O7    C4    1.308084 A    
C7    C11   1.404769 A    
C80   H30   1.083108 S    
O8    C3    1.317271 A    
C104  C105  1.397641 A    
C65   H18   1.082158 S    
C94   H42   1.082436 S    
C38   C40   1.440260 A    
C81   C82   1.396996 A    
O5    Cu1   1.952024 S    
O1    Cu1   1.979376 S    
C50   C51   1.396858 A    
C3    C15   1.491473 S    
C55   C56   1.409415 A    
C12   H4    1.083966 S    
C95   H43   1.081828 S    
C103  C108  1.403348 A    
C7    N9    1.443918 S    
N1    C18   1.355298 A    
C60   H14   1.072687 S    
C97   C98   1.406376 A    
C51   C52   1.395260 A    
C49   C54   1.398651 A    
C62   H15   1.083154 S    
C53   C54   1.398576 A    
C92   H40   1.083267 S    
C71   C72   1.397836 A    
