data_mof_unit_62869.cif
_audit_creation_date              2012-12-10T21:00:22-0500
_audit_creation_method            fapswitch 2.2
_symmetry_space_group_name_H-M    P1
_symmetry_Int_Tables_number       1
_space_group_crystal_system       triclinic
_cell_length_a                    15.89171
_cell_length_b                    15.079565
_cell_length_c                    15.758432
_cell_angle_alpha                 90.000534
_cell_angle_beta                  89.987643
_cell_angle_gamma                 89.999803
_cell_volume                      3776.35172111

loop_
_atom_site_label
_atom_site_type_symbol
_atom_type_description
_atom_site_fract_x
_atom_site_fract_y
_atom_site_fract_z
_atom_type_partial_charge
C1    C     C_R   0.339025 0.500000 0.500013 0.902435
C2    C     C_R   0.043972 0.418618 0.500015 -0.053788
C3    C     C_R   0.043971 0.581384 0.500063 -0.053790
C4    C     C_R   0.087152 0.500001 0.500040 0.027495
C5    C     C_1   0.823607 0.500000 0.499998 -0.026804
C6    C     C_R   0.500000 0.500000 0.337794 0.908740
C7    C     C_1   0.176383 0.500001 0.500035 -0.026818
C8    C     C_1   0.250973 0.500001 0.500027 -0.167284
C9    C     C_1   0.749017 0.499999 0.499976 -0.167196
C10   C     C_R   0.425278 0.953135 0.486449 -0.158270
C11   C     C_R   0.425278 0.046865 0.486449 -0.158267
C12   C     C_3   0.591417 0.506291 0.950988 -0.393336
C13   C     C_R   0.500023 0.905037 0.499983 0.073290
C14   C     C_R   0.500023 0.094963 0.499983 0.073291
C15   C     C_R   0.574769 0.953135 0.513518 -0.158298
C16   C     C_R   0.574769 0.046865 0.513517 -0.158303
C17   C     C_1   0.500023 0.807156 0.499982 0.052901
C18   C     C_1   0.500023 0.192844 0.499982 0.052897
C19   C     C_R   0.660966 0.500000 0.499959 0.902262
C20   C     C_R   0.499999 0.500000 0.662189 0.909193
C21   C     C_3   0.449124 0.580285 0.048987 -0.392397
C22   C     C_3   0.459465 0.413421 0.048982 -0.392265
C23   C     C_3   0.591419 0.506291 0.048951 -0.393000
C24   C     C_3   0.459463 0.413422 0.951018 -0.392030
C25   C     C_3   0.449122 0.580286 0.951023 -0.392119
C26   C     C_1   0.499998 0.500001 0.751017 -0.174779
C27   C     C_3   0.500004 0.499999 0.082414 0.352474
C28   C     C_3   0.500000 0.500000 0.917569 0.352426
C29   C     C_1   0.089938 0.664651 0.500086 0.189208
C30   C     C_1   0.089941 0.335352 0.499989 0.189199
C31   C     C_1   0.910050 0.664650 0.500085 0.189217
C32   C     C_1   0.910053 0.335351 0.499987 0.189205
C33   C     C_1   0.499998 0.500001 0.826258 -0.119190
C34   C     C_1   0.500004 0.499998 0.173724 -0.119167
C35   C     C_1   0.500002 0.499999 0.248966 -0.174611
C36   C     C_R   0.956018 0.581384 0.500057 -0.053782
C37   C     C_R   0.956020 0.418617 0.500009 -0.053785
C38   C     C_R   0.912838 0.500000 0.500024 0.027493
H1    H     H_    0.383165 0.577154 0.927405 0.171791
H2    H     H_    0.477138 0.643291 0.927383 0.173275
H3    H     H_    0.621823 0.568054 0.072579 0.172304
H4    H     H_    0.629188 0.449220 0.072576 0.172058
H5    H     H_    0.621820 0.568054 0.927346 0.172197
H6    H     H_    0.629184 0.449220 0.927343 0.171957
H7    H     H_    0.366682 0.081830 0.475840 0.143633
H8    H     H_    0.366682 0.918170 0.475841 0.143633
H9    H     H_    0.393679 0.407489 0.927400 0.171991
H10   H     H_    0.633365 0.918170 0.524125 0.143630
H11   H     H_    0.633365 0.081830 0.524124 0.143628
H12   H     H_    0.383168 0.577151 0.072637 0.171664
H13   H     H_    0.393683 0.407487 0.072632 0.171851
H14   H     H_    0.495019 0.354791 0.072607 0.173259
H15   H     H_    0.477139 0.643290 0.072616 0.173287
H16   H     H_    0.495016 0.354792 0.927373 0.173207
N1    N     N_1   0.500020 0.270550 0.499980 -0.084737
N2    N     N_1   0.500020 0.729450 0.499980 -0.084736
N3    N     N_1   0.126604 0.730962 0.500104 -0.196422
N4    N     N_1   0.126609 0.269041 0.499968 -0.196433
N5    N     N_1   0.873382 0.730960 0.500108 -0.196442
N6    N     N_1   0.873386 0.269040 0.499970 -0.196444
O1    O     O_R   0.378020 0.573650 0.500000 -0.608058
O2    O     O_R   0.378020 0.426350 0.500000 -0.608059
O3    O     O_R   0.500000 0.573700 0.377120 -0.610785
O4    O     O_R   0.500000 0.426300 0.377120 -0.610787
O5    O     O_R   0.621980 0.573680 0.499960 -0.608034
O6    O     O_R   0.621980 0.426320 0.499960 -0.608036
O7    O     O_R   0.500000 0.573630 0.622840 -0.610827
O8    O     O_R   0.500000 0.426370 0.622840 -0.610833
Zn1   Zn    Zn3+2 0.500000 0.598370 0.499970 0.987414
Zn2   Zn    Zn3+2 0.500000 0.401630 0.499970 0.987408

loop_
_geom_bond_atom_site_label_1
_geom_bond_atom_site_label_2
_ccdc_geom_bond_type
C6    O3    A    
C10   H8    S    
C2    C4    A    
C5    C9    T    
C37   C38   A    
C23   C27   S    
C1    C8    S    
C24   C28   S    
C14   C18   S    
C20   O7    A    
C23   H3    S    
C17   N2    T    
C13   C17   S    
C2    C30   S    
O1    Zn1   S    
C1    O2    A    
C36   C38   A    
C21   C27   S    
C7    C8    T    
C12   H6    S    
C5    C38   S    
C25   H1    S    
C25   C28   S    
C21   H15   S    
C2    C37   A    
C3    C29   S    
C27   C34   S    
O6    Zn2   S    
C23   H4    S    
C20   C26   S    
C3    C36   A    
C12   C28   S    
C4    C7    S    
C18   N1    T    
C15   H10   S    
C22   C24   S    
O8    Zn2   S    
C21   H12   S    
C20   O8    A    
C28   C33   S    
C19   O5    A    
C12   H5    S    
O4    Zn2   S    
C22   C27   S    
C13   C15   A    
C25   H2    S    
O3    Zn1   S    
C34   C35   T    
C11   C14   A    
C14   C16   A    
C11   H7    S    
N1    Zn2   S    
C10   C11   A    
C32   N6    T    
C31   N5    T    
C15   C16   A    
C30   N4    T    
C16   H11   S    
C6    C35   S    
O2    Zn2   S    
C19   O6    A    
C22   H14   S    
N2    Zn1   S    
C6    O4    A    
O5    Zn1   S    
C21   C25   S    
C31   C36   S    
C12   C23   S    
C26   C33   T    
C32   C37   S    
C24   H9    S    
C24   H16   S    
C9    C19   S    
C3    C4    A    
C29   N3    T    
C22   H13   S    
O7    Zn1   S    
C10   C13   A    
C1    O1    A    
