data_mof_unit_23486.cif
_audit_creation_date              2012-12-11T14:57:53-0500
_audit_creation_method            fapswitch 2.2
_symmetry_space_group_name_H-M    P1
_symmetry_Int_Tables_number       1
_space_group_crystal_system       triclinic
_cell_length_a                    6.934131
_cell_length_b                    16.612656
_cell_length_c                    17.272527
_cell_angle_alpha                 100.411684
_cell_angle_beta                  90.200825
_cell_angle_gamma                 91.157781
_cell_volume                      1956.48480297

loop_
_atom_site_label
_atom_site_type_symbol
_atom_type_description
_atom_site_fract_x
_atom_site_fract_y
_atom_site_fract_z
_atom_type_partial_charge
O1    O     O_R   0.506180 0.438940 0.579430 -0.530866
O2    O     O_R   0.170520 0.406230 0.413590 -0.534685
O3    O     O_R   0.005180 0.561060 0.420570 -0.518012
C1    C     C_R   0.338538 0.382158 0.385837 0.787112
O4    O     O_R   0.176140 0.429310 0.578370 -0.539079
O5    O     O_R   0.010830 0.584300 0.586530 -0.551019
C2    C     C_R   0.342539 0.413693 0.605281 0.739091
O6    O     O_R   0.500520 0.415700 0.413470 -0.546609
O7    O     O_3   0.340830 0.550820 0.502480 -0.365050
V1    V     V_3+5 0.064040 0.490570 0.499540 1.532317
O8    O     O_R   0.681400 0.593770 0.586410 -0.529288
C3    C     C_R   0.854196 0.616752 0.615343 0.863343
O9    O     O_R   0.675790 0.570690 0.421630 -0.541710
C4    C     C_R   0.843709 0.585749 0.394362 0.795519
V2    V     V_3+5 0.564650 0.509430 0.500460 1.515521
O10   O     O_3   0.837730 0.449180 0.497520 -0.376757
C5    C     C_R   0.920266 0.861343 0.165271 -0.058193
C6    C     C_R   0.846372 0.638613 0.332734 -0.180247
C7    C     C_R   0.703634 0.668308 0.211625 -0.125888
C8    C     C_R   0.722958 0.617087 0.267141 -0.191618
C9    C     C_R   0.950936 0.714145 0.342144 0.361362
C10   C     C_R   0.949260 0.760894 0.280899 0.037439
C11   C     C_R   0.815681 0.740405 0.217756 0.088622
C12   C     C_R   0.797902 0.792107 0.161501 -0.202914
C13   C     C_R   0.062288 0.877059 0.224203 -0.187413
C14   C     C_R   0.077845 0.827466 0.280606 -0.081782
H1    H     H_    0.694522 0.777051 0.113571 0.111401
H2    H     H_    0.163897 0.927816 0.226155 0.143651
H3    H     H_    0.602790 0.650806 0.163139 0.160097
H4    H     H_    0.197112 0.840078 0.321643 0.186635
H5    H     H_    0.636368 0.561164 0.260085 0.149810
H6    H     H_    0.569364 0.654651 0.965563 0.185633
C15   C     C_R   0.109188 0.890959 0.742229 -0.143793
C16   C     C_R   0.238250 0.891787 0.681140 -0.140954
C17   C     C_R   0.264276 0.821188 0.626325 -0.017123
C18   C     C_R   0.151254 0.751431 0.629140 -0.021966
C19   C     C_R   0.009574 0.749742 0.687922 0.021123
C20   C     C_R   0.003906 0.818603 0.749735 0.057534
C21   C     C_R   0.880056 0.681243 0.688232 -0.166875
C22   C     C_R   0.790677 0.672566 0.761086 -0.018564
C23   C     C_R   0.796701 0.740458 0.825155 0.031047
C24   C     C_R   0.898227 0.813946 0.818325 -0.135097
C25   C     C_R   0.710893 0.596006 0.774608 0.220861
C26   C     C_R   0.636136 0.589376 0.849803 0.452963
C27   C     C_R   0.629074 0.658455 0.908463 -0.229723
C28   C     C_R   0.709086 0.732211 0.896992 -0.240905
H7    H     H_    0.095436 0.947480 0.783903 0.114837
H8    H     H_    0.321540 0.946798 0.677482 0.123058
H9    H     H_    0.370525 0.820778 0.580486 0.159173
H10   H     H_    0.181487 0.699545 0.584792 0.192249
H11   H     H_    0.708684 0.781483 0.947224 0.145282
C29   C     C_R   0.367306 0.209096 0.406853 0.338017
C30   C     C_R   0.407368 0.129575 0.417723 -0.218627
C31   C     C_R   0.456273 0.069680 0.355117 -0.223477
C32   C     C_R   0.463523 0.085989 0.278427 0.326690
C33   C     C_R   0.421091 0.166077 0.264115 -0.016578
C34   C     C_R   0.379575 0.229736 0.330169 -0.007569
C35   C     C_R   0.417112 0.183664 0.185946 -0.150273
C36   C     C_R   0.378380 0.264334 0.174600 0.055875
C37   C     C_R   0.346718 0.328045 0.240167 -0.020425
C38   C     C_R   0.348963 0.311628 0.317985 -0.140087
C39   C     C_R   0.370800 0.283073 0.097886 -0.190037
C40   C     C_R   0.332792 0.361907 0.085912 -0.194901
C41   C     C_R   0.303384 0.424999 0.150113 0.410560
C42   C     C_R   0.311042 0.407932 0.226222 -0.171302
H12   H     H_    0.399973 0.113518 0.475720 0.137635
H13   H     H_    0.487330 0.009259 0.366614 0.146669
H14   H     H_    0.394368 0.237067 0.046049 0.106361
H15   H     H_    0.326381 0.373613 0.026295 0.157578
H16   H     H_    0.286095 0.458241 0.274200 0.113559
C43   C     C_R   0.428438 0.140348 0.834425 -0.068090
C44   C     C_R   0.336277 0.359865 0.665824 -0.092971
C45   C     C_R   0.144563 0.299362 0.760511 -0.128823
C46   C     C_R   0.164307 0.354198 0.708321 -0.069383
C47   C     C_R   0.489708 0.309230 0.677513 -0.186794
C48   C     C_R   0.469289 0.252702 0.729242 0.189832
C49   C     C_R   0.295234 0.247587 0.771077 0.148272
C50   C     C_R   0.275208 0.191262 0.823068 -0.235267
C51   C     C_R   0.599414 0.145356 0.791184 -0.157767
C52   C     C_R   0.619433 0.200520 0.739339 -0.172299
H17   H     H_    0.143260 0.188775 0.856115 0.125616
H18   H     H_    0.720192 0.106814 0.798021 0.125992
H19   H     H_    0.010549 0.297129 0.792201 0.150757
H20   H     H_    0.753262 0.202663 0.707503 0.111444
H21   H     H_    0.043172 0.392433 0.701139 0.164258
H22   H     H_    0.622086 0.312028 0.644811 0.124238
O11   O     O_R   0.265840 0.084300 0.086750 -0.539023
O12   O     O_R   0.589750 0.070740 0.921690 -0.546704
O13   O     O_R   0.755020 0.915730 0.913400 -0.543764
C53   C     C_R   0.423069 0.086795 0.895202 0.677083
O14   O     O_R   0.595830 0.093740 0.086480 -0.522454
O15   O     O_R   0.761150 0.938890 0.079360 -0.524874
C54   C     C_R   0.427953 0.116556 0.115319 0.812371
O16   O     O_R   0.259710 0.061140 0.920790 -0.546740
O17   O     O_3   0.425260 0.949200 0.997610 -0.364306
V3    V     V_3+5 0.702060 0.009430 0.000450 1.457838
O18   O     O_R   0.090530 0.929220 0.078150 -0.537185
C55   C     C_R   0.921898 0.912219 0.103334 0.719327
O19   O     O_R   0.084440 0.906220 0.913360 -0.541318
C56   C     C_R   0.913430 0.882743 0.886170 0.680854
V4    V     V_3+5 0.201450 0.990520 0.999290 1.449971
O20   O     O_3   0.928380 0.050800 0.002390 -0.372890
O21   O     O_3   0.724867 0.527204 0.717020 -0.642452
H23   H     H_    0.619321 0.488362 0.723717 0.332994
S1    S     S_3+6 0.565736 0.494576 0.875750 -0.027567
O22   O     O_2   0.365468 0.471737 0.845090 -0.333811
O23   O     O_2   0.702255 0.428789 0.840683 -0.351758
O24   O     O_3   0.566548 0.502892 0.974355 -0.520617
H24   H     H_    0.615788 0.450239 0.984617 0.358841
O25   O     O_3   0.265889 0.503884 0.140587 -0.643059
H25   H     H_    0.263064 0.505770 0.083536 0.324702
O26   O     O_3   0.309129 0.265927 0.470513 -0.660924
H26   H     H_    0.302034 0.240417 0.518118 0.270031
O27   O     O_3   0.515359 0.024218 0.217678 -0.649163
H27   H     H_    0.540832 0.973381 0.238222 0.281473
S2    S     S_3+6 0.044028 0.756967 0.436479 -0.065037
O28   O     O_2   0.234617 0.718641 0.446712 -0.356148
O29   O     O_2   0.070610 0.848455 0.449092 -0.353919
O30   O     O_3   0.885625 0.735537 0.503642 -0.542372
H28   H     H_    0.766809 0.764380 0.493842 0.332366

loop_
_geom_bond_atom_site_label_1
_geom_bond_atom_site_label_2
_ccdc_geom_bond_type
C32   C33   A    
O12   V3    S    
C23   C24   A    
C26   S1    S    
V4    O20   S    
V3    O20   S    
C6    C9    A    
C45   C46   A    
C4    C6    S    
O2    C1    A    
O17   V3    S    
C12   H1    S    
C52   H20   S    
C43   C51   A    
O27   H27   S    
O15   C55   A    
C30   C31   A    
S2    O28   D    
C13   H2    S    
S1    O23   D    
C19   C20   A    
C18   C19   A    
C35   C54   S    
C20   C24   A    
C44   C47   A    
O5    C3    A    
C29   O26   S    
C42   H16   S    
O18   C55   A    
O15   V3    S    
O24   H24   S    
C16   C17   A    
H6    C27   S    
O25   H25   S    
O14   V3    S    
O11   V4    S    
O8    V2    S    
C22   C25   A    
C40   H15   S    
O16   V4    S    
C33   C35   A    
C17   H9    S    
C23   C28   A    
O1    V2    S    
C5    C55   S    
C1    O6    A    
C36   C37   A    
O9    C4    A    
C9    S2    S    
O26   H26   S    
C53   O16   A    
S1    O24   S    
C5    C12   A    
V2    O10   S    
O13   C56   A    
C48   C49   A    
C44   C46   A    
C2    C44   S    
O4    C2    A    
C31   H13   S    
C13   C14   A    
C49   C50   A    
C28   H11   S    
C3    C21   S    
C51   C52   A    
C37   C38   A    
C17   C18   A    
C7    C11   A    
C47   C48   A    
C39   C40   A    
C24   C56   S    
O14   C54   A    
C47   H22   S    
C41   O25   S    
O19   C56   A    
O11   C54   A    
C11   C12   A    
C15   C16   A    
C30   H12   S    
O3    C4    A    
C22   C23   A    
O19   V4    S    
O12   C53   A    
C37   C42   A    
C14   H4    S    
O6    V2    S    
O9    V2    S    
C25   C26   A    
C15   H7    S    
C16   H8    S    
C33   C34   A    
O2    V1    S    
C21   C22   A    
C18   H10   S    
C29   C30   A    
O7    V1    S    
C31   C32   A    
C36   C39   A    
O1    C2    A    
C26   C27   A    
C48   C52   A    
O5    V1    S    
C51   H18   S    
O30   H28   S    
C34   C38   A    
C32   O27   S    
S1    O22   D    
C15   C20   A    
S2    O30   S    
C39   H14   S    
C5    C13   A    
C41   C42   A    
C7    C8    A    
C35   C36   A    
O4    V1    S    
C19   C21   A    
O3    V1    S    
V1    O10   S    
C50   H17   S    
C43   C53   S    
O13   V3    S    
C1    C38   S    
S2    O29   D    
C6    C8    A    
C46   H21   S    
O7    V2    S    
C25   O21   S    
C29   C34   A    
C40   C41   A    
C27   C28   A    
C10   C14   A    
O21   H23   S    
C45   C49   A    
C10   C11   A    
C9    C10   A    
C45   H19   S    
C43   C50   A    
O18   V4    S    
O17   V4    S    
O8    C3    A    
C8    H5    S    
C7    H3    S    
