data_mof_unit_41277.cif
_audit_creation_date              2012-12-10T16:43:25-0500
_audit_creation_method            fapswitch 2.2
_symmetry_space_group_name_H-M    P1
_symmetry_Int_Tables_number       1
_space_group_crystal_system       triclinic
_cell_length_a                    10.822613
_cell_length_b                    8.72445
_cell_length_c                    7.410378
_cell_angle_alpha                 102.61348
_cell_angle_beta                  93.621673
_cell_angle_gamma                 91.535896
_cell_volume                      680.855004013

loop_
_atom_site_label
_atom_site_type_symbol
_atom_type_description
_atom_site_fract_x
_atom_site_fract_y
_atom_site_fract_z
_atom_type_partial_charge
C1    C     C_R   0.485710 0.199942 0.453721 0.748211
C2    C     C_R   0.068569 0.538866 0.680874 0.107365
C3    C     C_R   0.127013 0.481711 0.513899 -0.121782
C4    C     C_R   0.054473 0.432373 0.346662 -0.223015
C5    C     C_R   0.927742 0.448771 0.340335 -0.203068
C6    C     C_R   0.871960 0.523264 0.499085 -0.127943
C7    C     C_2   0.462059 0.031534 0.429287 0.266249
C8    C     C_2   0.507714 0.967185 0.566052 -0.466330
C9    C     C_R   0.261831 0.490795 0.503763 0.799150
C10   C     C_R   0.501837 0.800076 0.545687 0.915608
C11   C     C_R   0.737548 0.511731 0.498800 0.791658
C12   C     C_R   0.126435 0.552890 0.860990 -0.187479
C13   C     C_R   0.072064 0.635354 0.016934 -0.159530
C14   C     C_R   0.960227 0.705966 0.997002 -0.154590
C15   C     C_R   0.896746 0.680631 0.823274 -0.156178
C16   C     C_R   0.944782 0.582772 0.666905 0.105663
Cu1   Cu    Cu3+1 0.513920 0.517380 0.684380 0.927258
Cu2   Cu    Cu3+1 0.486080 0.482620 0.315620 0.945425
H1    H     H_    0.095989 0.380135 0.219519 0.162897
H2    H     H_    0.594483 0.622494 0.051902 0.228389
H3    H     H_    0.211098 0.497106 0.886818 0.162441
H4    H     H_    0.120228 0.651382 0.152540 0.182363
H5    H     H_    0.921235 0.777151 0.116752 0.139293
H6    H     H_    0.810021 0.737989 0.812820 0.142027
H7    H     H_    0.873318 0.401909 0.211260 0.174354
H8    H     H_    0.558129 0.036498 0.689992 0.133670
H9    H     H_    0.406365 0.376504 0.947990 0.209133
N1    N     N_2   0.465100 0.456430 0.038520 -0.230606
N2    N     N_2   0.534900 0.543570 0.961480 -0.220710
O1    O     O_R   0.509050 0.286130 0.619770 -0.590949
O2    O     O_R   0.485540 0.256780 0.308360 -0.611514
O3    O     O_R   0.331410 0.514680 0.655740 -0.610301
O4    O     O_R   0.307900 0.485330 0.344330 -0.586212
O5    O     O_R   0.514460 0.743220 0.691640 -0.611059
O6    O     O_R   0.490950 0.713870 0.380230 -0.527978
O7    O     O_R   0.692100 0.514670 0.655670 -0.577574
O8    O     O_R   0.668590 0.485320 0.344260 -0.588140
O9    O     O_3   0.380907 0.941069 0.287482 -0.568686
C17   C     C_3   0.379227 0.991038 0.118240 0.073701
H10   H     H_    0.475043 0.003747 0.074790 0.162551
H11   H     H_    0.328251 0.101349 0.128750 0.161482
C18   C     C_3   0.307666 0.871227 0.967014 -0.741230
H12   H     H_    0.207994 0.876374 0.991750 0.237348
H13   H     H_    0.319115 0.900309 0.830296 0.203109
H14   H     H_    0.341196 0.752147 0.965729 0.285527

loop_
_geom_bond_atom_site_label_1
_geom_bond_atom_site_label_2
_ccdc_geom_bond_type
C14   H5    S    
C10   O6    A    
C3    C9    S    
Cu1   O7    S    
C2    C16   A    
Cu2   O6    S    
C2    C12   A    
Cu1   Cu2   S    
Cu2   N1    S    
C7    C8    D    
C10   O5    A    
C13   C14   A    
C9    O4    A    
Cu1   O1    S    
N1    N2    D    
O9    C17   S    
C18   H13   S    
C5    H7    S    
C8    C10   S    
C1    O1    A    
Cu2   O8    S    
C13   H4    S    
C2    C3    A    
C17   C18   S    
H2    N2    S    
C6    C11   S    
C5    C6    A    
Cu2   O4    S    
Cu1   O5    S    
C6    C16   A    
C3    C4    A    
Cu1   N2    S    
C1    O2    A    
C8    H8    S    
C12   C13   A    
C17   H11   S    
C18   H12   S    
C17   H10   S    
C11   O8    A    
Cu1   O3    S    
C14   C15   A    
C15   H6    S    
Cu2   O2    S    
C9    O3    A    
C1    C7    S    
C4    H1    S    
C12   H3    S    
C7    O9    S    
C15   C16   A    
C4    C5    A    
H9    N1    S    
C18   H14   S    
C11   O7    A    
