data_mof_unit_8309.cif
_audit_creation_date              2012-12-10T17:05:17-0500
_audit_creation_method            fapswitch 2.2
_symmetry_space_group_name_H-M    P1
_symmetry_Int_Tables_number       1
_space_group_crystal_system       triclinic
_cell_length_a                    10.042109
_cell_length_b                    10.740004
_cell_length_c                    15.504559
_cell_angle_alpha                 90.031193
_cell_angle_beta                  67.652786
_cell_angle_gamma                 90.04084
_cell_volume                      1546.61387098

loop_
_atom_site_label
_atom_site_type_symbol
_atom_type_description
_atom_site_fract_x
_atom_site_fract_y
_atom_site_fract_z
_atom_type_partial_charge
C1    C     C_R   0.502820 0.737080 0.495602 0.814717
C2    C     C_R   0.708794 0.396116 0.041351 0.094546
C3    C     C_R   0.574083 0.453275 0.091764 0.045216
C4    C     C_R   0.409702 0.498416 0.676026 0.872283
C5    C     C_R   0.809213 0.380910 0.083973 -0.132166
C6    C     C_R   0.775299 0.419293 0.175810 -0.163426
C7    C     C_R   0.551088 0.504274 0.179029 -0.235225
C8    C     C_2   0.612866 0.066941 0.496778 -0.148124
C9    C     C_2   0.492313 0.131493 0.514084 -0.252339
C10   C     C_2   0.606167 0.933488 0.503748 -0.295384
C11   C     C_2   0.515354 0.867660 0.476714 0.378086
C12   C     C_R   0.403830 0.456106 0.917032 0.042728
C13   C     C_2   0.112955 0.448498 0.434878 -0.121560
C14   C     C_2   0.964763 0.455359 0.432099 -0.143573
C15   C     C_R   0.498287 0.262788 0.503009 0.906603
C16   C     C_R   0.590193 0.498814 0.324083 0.855002
C17   C     C_R   0.352638 0.490456 0.777644 -0.069605
C18   C     C_R   0.644925 0.480087 0.223577 -0.072656
C19   C     C_R   0.163612 0.520408 0.928960 -0.125283
C20   C     C_R   0.209086 0.518029 0.832156 -0.198171
C21   C     C_R   0.447157 0.457198 0.820151 -0.228797
C22   C     C_3   0.495899 0.888730 0.335864 -0.274540
C23   C     C_R   0.261114 0.493951 0.972110 0.108245
C24   C     C_R   0.503097 0.428230 0.959292 0.023859
C25   C     C_R   0.466378 0.459207 0.053824 0.027252
C26   C     C_R   0.322127 0.491828 0.108432 -0.325997
C27   C     C_R   0.219423 0.508084 0.068581 0.407942
C28   C     C_R   0.637617 0.370467 0.910014 -0.326229
C29   C     C_R   0.739599 0.353184 0.950524 0.412654
H1    H     H_    0.911464 0.335035 0.048004 0.199166
H2    H     H_    0.848116 0.397716 0.210312 0.171057
H3    H     H_    0.053446 0.547112 0.969495 0.195709
H4    H     H_    0.133840 0.542406 0.800079 0.166193
H5    H     H_    0.557678 0.439582 0.775915 0.160655
H6    H     H_    0.285228 0.501405 0.183145 0.139298
H7    H     H_    0.663580 0.332776 0.841059 0.141820
H8    H     H_    0.068619 0.550580 0.188282 0.330070
H9    H     H_    0.484581 0.787273 0.325808 0.153891
H10   H     H_    0.611111 0.917042 0.303703 0.160896
H11   H     H_    0.437323 0.938880 0.298558 0.193364
H12   H     H_    0.716865 0.111659 0.479765 0.175190
H13   H     H_    0.875732 0.272795 0.838989 0.335993
H14   H     H_    0.386898 0.087791 0.537926 0.198476
H15   H     H_    0.676839 0.888884 0.532871 0.154430
H16   H     H_    0.195379 0.399984 0.378161 0.164636
H17   H     H_    0.072824 0.550383 0.549997 0.161998
H18   H     H_    0.951573 0.419482 0.370404 0.152592
H19   H     H_    0.862904 0.526419 0.559503 0.166436
H20   H     H_    0.457734 0.560876 0.215407 0.152166
N1    N     N_2   0.148330 0.498670 0.499030 -0.186864
N2    N     N_2   0.852680 0.498640 0.499000 -0.186295
O1    O     O_R   0.386950 0.680940 0.500010 -0.581105
O2    O     O_3   0.434783 0.921636 0.431028 -0.604393
O3    O     O_3   0.870164 0.295845 0.902201 -0.785702
O4    O     O_R   0.613110 0.680900 0.499990 -0.634076
O5    O     O_R   0.322330 0.500030 0.632270 -0.611236
O6    O     O_R   0.548480 0.499990 0.632240 -0.618067
O7    O     O_R   0.386890 0.319100 0.500010 -0.600306
O8    O     O_R   0.613050 0.319060 0.499990 -0.611023
O9    O     O_R   0.451520 0.500010 0.367760 -0.615543
O10   O     O_R   0.677670 0.499970 0.367730 -0.609113
O11   O     O_3   0.079918 0.543347 0.122093 -0.799713
Zn1   Zn    Zn3+2 0.349000 0.500030 0.500020 0.956496
Zn2   Zn    Zn3+2 0.651000 0.499970 0.499980 0.936845

loop_
_geom_bond_atom_site_label_1
_geom_bond_atom_site_label_2
_ccdc_geom_bond_type
C4    O6    A    
O10   Zn2   S    
C19   C23   A    
C14   H18   S    
C27   O11   S    
C23   C27   A    
C12   C24   A    
C14   N2    D    
C11   O2    S    
C7    C18   A    
C22   H11   S    
O4    Zn2   S    
C19   C20   A    
H8    O11   S    
C9    C15   S    
O5    Zn1   S    
C1    C11   S    
C8    H12   S    
C13   C14   S    
H13   O3    S    
C13   H16   S    
N1    Zn1   S    
C12   C23   A    
C7    H20   S    
O8    Zn2   S    
C15   O8    A    
O9    Zn1   S    
C16   O9    A    
C19   H3    S    
C8    C10   S    
C28   C29   A    
C15   O7    A    
C6    H2    S    
C22   O2    S    
C3    C7    A    
C2    C29   A    
C26   C27   A    
C5    C6    A    
C6    C18   A    
C1    O1    A    
C17   C21   A    
C1    O4    A    
C9    H14   S    
C2    C5    A    
C16   O10   A    
C20   H4    S    
C10   H15   S    
C13   N1    D    
C22   H9    S    
C26   H6    S    
C3    C25   A    
C17   C20   A    
C24   C25   A    
C28   H7    S    
O6    Zn2   S    
C16   C18   S    
C5    H1    S    
C10   C11   D    
C29   O3    S    
O7    Zn1   S    
H17   N1    S    
C2    C3    A    
C21   H5    S    
C25   C26   A    
C22   H10   S    
C12   C21   A    
H19   N2    S    
C4    O5    A    
N2    Zn2   S    
C24   C28   A    
C8    C9    D    
O1    Zn1   S    
C4    C17   S    
