data_mof_unit_13021.cif
_audit_creation_date              2013-03-05T16:07:31-0500
_audit_creation_method            fapswitch 2.2
_symmetry_space_group_name_H-M    P1
_symmetry_Int_Tables_number       1
_space_group_crystal_system       triclinic
_cell_length_a                    10.81452
_cell_length_b                    10.802254
_cell_length_c                    9.552171
_cell_angle_alpha                 90.690084
_cell_angle_beta                  90.22434
_cell_angle_gamma                 91.419209
_cell_volume                      1115.46286944

loop_
_atom_site_label
_atom_site_type_symbol
_atom_site_description
_atom_site_fract_x
_atom_site_fract_y
_atom_site_fract_z
_atom_type_partial_charge
O1    O     O_R   0.499990 0.319660 0.618740 -0.600896
O2    O     O_R   0.500010 0.680340 0.381260 -0.600897
O3    O     O_R   0.499990 0.319630 0.381170 -0.545300
O4    O     O_R   0.500010 0.680370 0.618830 -0.545306
C1    C     C_R   0.499861 0.262217 0.499465 0.791502
C2    C     C_R   0.500136 0.737783 0.500534 0.791492
O5    O     O_R   0.319650 0.500020 0.618780 -0.606862
O6    O     O_R   0.680350 0.499980 0.381220 -0.606859
O7    O     O_R   0.319640 0.500000 0.381210 -0.521335
O8    O     O_R   0.680360 0.500000 0.618790 -0.521344
C3    C     C_R   0.262441 0.502903 0.499694 0.802820
C4    C     C_R   0.737559 0.497096 0.500306 0.802810
Cu1   Cu    Cu3+1 0.500000 0.500020 0.640660 0.997413
Cu2   Cu    Cu3+1 0.500000 0.499980 0.359340 0.997412
H1    H     H_    0.300814 0.774273 0.959544 0.146769
H2    H     H_    0.699182 0.225680 0.040430 0.146773
C5    C     C_R   0.258245 0.784269 0.179455 -0.083921
C6    C     C_R   0.741751 0.215704 0.820516 -0.083912
H3    H     H_    0.313647 0.867759 0.197688 0.161407
H4    H     H_    0.686349 0.132215 0.802274 0.161411
C7    C     C_R   0.194933 0.728568 0.290523 -0.127134
C8    C     C_R   0.805064 0.271417 0.709454 -0.127147
H5    H     H_    0.202580 0.769293 0.394483 0.108718
H6    H     H_    0.797418 0.230701 0.605489 0.108715
C9    C     C_R   0.123970 0.619348 0.267697 0.122274
C10   C     C_R   0.876028 0.380636 0.732294 0.122268
C11   C     C_R   0.115722 0.568016 0.132115 -0.090161
C12   C     C_R   0.884279 0.431954 0.867884 -0.090138
H7    H     H_    0.062594 0.483192 0.113164 0.140514
H8    H     H_    0.937409 0.516776 0.886846 0.140531
C13   C     C_R   0.179485 0.623780 0.021426 -0.152650
C14   C     C_R   0.820513 0.376179 0.978567 -0.152652
H9    H     H_    0.174431 0.582780 0.917519 0.136715
H10   H     H_    0.825568 0.417170 0.082480 0.136716
C15   C     C_R   0.250905 0.731663 0.045142 -0.099782
C16   C     C_R   0.749092 0.268299 0.954837 -0.099777
C17   C     C_R   0.934196 0.548317 0.387911 -0.240338
C18   C     C_R   0.065803 0.451680 0.612088 -0.240333
H11   H     H_    0.883104 0.588507 0.302436 0.154002
H12   H     H_    0.116896 0.411490 0.697563 0.153992
C19   C     C_R   0.871496 0.494461 0.500764 -0.060622
C20   C     C_R   0.128503 0.505536 0.499235 -0.060624
C21   C     C_R   0.937594 0.444178 0.613653 0.017245
C22   C     C_R   0.062405 0.555816 0.386345 0.017228
C23   C     C_R   0.538767 0.063558 0.380458 -0.121734
C24   C     C_R   0.461223 0.936441 0.619538 -0.121724
H13   H     H_    0.570916 0.111738 0.288217 0.178206
H14   H     H_    0.429071 0.888262 0.711778 0.178211
C25   C     C_R   0.538752 0.935482 0.380982 -0.192614
C26   C     C_R   0.461239 0.064518 0.619015 -0.192616
H15   H     H_    0.569895 0.886580 0.288424 0.163770
H16   H     H_    0.430095 0.113421 0.711573 0.163779
C27   C     C_R   0.500268 0.871659 0.500690 -0.033755
C28   C     C_R   0.499725 0.128341 0.499309 -0.033759
C29   C     C_R   0.439888 0.407271 0.070908 0.437955
C30   C     C_R   0.560118 0.592725 0.929091 0.437973
C31   C     C_R   0.440642 0.408076 0.922751 -0.166123
C32   C     C_R   0.559359 0.591923 0.077248 -0.166129
H17   H     H_    0.392361 0.335058 0.864563 0.172300
H18   H     H_    0.607643 0.664941 0.135434 0.172285
N1    N     N_R   0.500030 0.500030 0.852070 -0.238148
N2    N     N_R   0.499970 0.499970 0.147930 -0.238136
N3    N     N_R   0.376316 0.306657 0.137491 0.130755
O9    O     O_R   0.405046 0.193919 0.103892 -0.420566
O10   O     O_R   0.269722 0.324991 0.195436 -0.360430
N4    N     N_R   0.623710 0.693321 0.862501 0.130783
O11   O     O_R   0.594950 0.806066 0.896030 -0.420545
O12   O     O_R   0.730340 0.674978 0.804648 -0.360477

loop_
_geom_bond_atom_site_label_1
_geom_bond_atom_site_label_2
_geom_bond_distance
_ccdc_geom_bond_type
C23   C28   1.398602 A    
C32   N2    1.357554 A    
C6    H4    1.082292 S    
N4    O12   1.299265 A    
O7    Cu2   1.962481 S    
C13   H9    1.082618 S    
C31   N1    1.357545 A    
C4    C19   1.449443 S    
C11   H7    1.082389 S    
C19   C21   1.412834 A    
C24   C26   1.383578 A    
C10   C12   1.404316 A    
C23   C25   1.383577 A    
O6    C4    1.293838 A    
N3    O10   1.299276 A    
C17   C22   1.387024 A    
C12   H8    1.082399 S    
N4    O11   1.301048 A    
Cu1   N1    2.019422 S    
C18   C21   1.387027 A    
C17   H11   1.085031 S    
C26   C28   1.401621 A    
Cu1   Cu2   2.687213 S    
H2    C16   1.082575 S    
C18   H12   1.085030 S    
O7    C3    1.292338 A    
C6    C16   1.398110 A    
O2    C2    1.290748 A    
O3    Cu2   1.961806 S    
C20   C22   1.412835 A    
O1    C1    1.290749 A    
O8    C4    1.292338 A    
C24   C27   1.398602 A    
H1    C15   1.082565 S    
C5    H3    1.082280 S    
C30   C32   1.415412 A    
C10   C21   1.483509 S    
O5    C3    1.293838 A    
C8    H6    1.083305 S    
C29   C31   1.415409 A    
C7    H5    1.083294 S    
C17   C19   1.400569 A    
O2    Cu2   1.957002 S    
C30   N4    1.428795 S    
C31   H17   1.081884 S    
C25   C27   1.401622 A    
C9    C11   1.404300 A    
C2    C27   1.446113 S    
C32   H18   1.081885 S    
N3    O9    1.301051 A    
Cu2   N2    2.019422 S    
C18   C20   1.400569 A    
C14   C16   1.397746 A    
C1    C28   1.446113 S    
O5    Cu1   1.960751 S    
C5    C15   1.398095 A    
O1    Cu1   1.957002 S    
C29   N2    1.382928 A    
C9    C22   1.483497 S    
C3    C20   1.449445 S    
O4    C2    1.295507 A    
C8    C10   1.405761 A    
C23   H13   1.082850 S    
C26   H16   1.083545 S    
C7    C9    1.405747 A    
C30   N1    1.382913 A    
C13   C15   1.397731 A    
O6    Cu2   1.960750 S    
O3    C1    1.295506 A    
C6    C8    1.398974 A    
C11   C13   1.398852 A    
C24   H14   1.082849 S    
C12   C14   1.398865 A    
C5    C7    1.398961 A    
O4    Cu1   1.961806 S    
C14   H10   1.082635 S    
C25   H15   1.083545 S    
O8    Cu1   1.962481 S    
C29   N3    1.428808 S    
