data_mof_unit_52554.cif
_audit_creation_date              2012-12-11T14:17:46-0500
_audit_creation_method            fapswitch 2.2
_symmetry_space_group_name_H-M    P1
_symmetry_Int_Tables_number       1
_space_group_crystal_system       triclinic
_cell_length_a                    11.040825
_cell_length_b                    11.111346
_cell_length_c                    18.731098
_cell_angle_alpha                 90.265963
_cell_angle_beta                  89.017626
_cell_angle_gamma                 120.394717
_cell_volume                      1981.76578219

loop_
_atom_site_label
_atom_site_type_symbol
_atom_type_description
_atom_site_fract_x
_atom_site_fract_y
_atom_site_fract_z
_atom_type_partial_charge
C1    C     C_R   0.519985 0.460132 0.147814 0.571513
C2    C     C_R   0.539908 0.059365 0.148067 0.559814
C3    C     C_R   0.941434 0.480865 0.148072 0.554728
C4    C     C_R   0.454290 0.520586 0.854073 0.532371
C5    C     C_R   0.065657 0.545467 0.854083 0.528598
C6    C     C_R   0.478749 0.933168 0.854303 0.537394
C7    C     C_R   0.395158 0.003844 0.462023 -0.144472
C8    C     C_R   0.975064 0.382436 0.465142 -0.138021
C9    C     C_R   0.637211 0.566754 0.472131 -0.174125
C10   C     C_R   0.985489 0.387121 0.539553 -0.133636
C11   C     C_R   0.385862 0.969993 0.533899 -0.155515
C12   C     C_R   0.624318 0.586833 0.544559 -0.152625
C13   C     C_R   0.705399 0.940341 0.527294 0.247383
C14   C     C_R   0.945664 0.695001 0.571075 0.261325
C15   C     C_R   0.324270 0.234022 0.587600 0.255174
C16   C     C_R   0.071282 0.752026 0.434259 0.264945
C17   C     C_R   0.591362 0.838389 0.392195 0.277301
C18   C     C_R   0.262100 0.297914 0.453182 0.260194
C19   C     C_R   0.781149 0.917222 0.472930 -0.200981
C20   C     C_R   0.991802 0.822525 0.539133 -0.109831
C21   C     C_R   0.186833 0.167916 0.564906 -0.097118
C22   C     C_R   0.058311 0.853795 0.472245 -0.193293
C23   C     C_R   0.721665 0.858293 0.408131 -0.078695
C24   C     C_R   0.154908 0.203511 0.499474 -0.202355
C25   C     C_R   0.537945 0.430458 0.362192 0.584181
C26   C     C_R   0.537468 0.056476 0.351676 0.558280
C27   C     C_R   0.938417 0.481394 0.354087 0.582383
C28   C     C_R   0.462105 0.515041 0.649164 0.556139
C29   C     C_R   0.058436 0.540994 0.647056 0.540342
C30   C     C_R   0.460097 0.886126 0.637314 0.567667
C31   C     C_R   0.491100 0.970706 0.929585 0.002686
C32   C     C_R   0.026485 0.520318 0.929370 0.005194
C33   C     C_R   0.479850 0.506581 0.928961 0.004567
C34   C     C_R   0.009727 0.499334 0.078023 -0.001206
C35   C     C_R   0.490899 0.992652 0.078364 0.000462
C36   C     C_R   0.502743 0.508222 0.077736 0.000388
C37   C     C_R   0.407734 0.018834 0.962206 0.012193
C38   C     C_R   0.979414 0.389012 0.961344 0.015548
C39   C     C_R   0.612571 0.590817 0.959718 0.015036
C40   C     C_R   0.986295 0.381707 0.036298 0.026447
C41   C     C_R   0.395457 0.014883 0.037540 0.026986
C42   C     C_R   0.621161 0.603022 0.034981 0.024927
C43   C     C_R   0.567687 0.940002 0.045111 -0.144641
C44   C     C_R   0.061957 0.628727 0.045356 -0.145700
C45   C     C_R   0.372099 0.430757 0.046259 -0.144263
C46   C     C_R   0.073109 0.639517 0.972222 -0.135318
C47   C     C_R   0.564763 0.925679 0.972073 -0.137819
C48   C     C_R   0.360389 0.432521 0.973235 -0.137262
C49   C     C_R   0.334785 0.068732 0.921955 -0.097775
C50   C     C_R   0.928565 0.265597 0.920683 -0.093181
C51   C     C_R   0.736424 0.665126 0.917586 -0.094949
C52   C     C_R   0.967146 0.256568 0.066470 -0.086130
C53   C     C_R   0.290006 0.035758 0.068876 -0.085528
C54   C     C_R   0.748108 0.708581 0.064329 -0.088898
C55   C     C_R   0.239529 0.098808 0.954944 -0.128218
C56   C     C_R   0.901591 0.141454 0.952503 -0.127575
C57   C     C_R   0.862262 0.761890 0.948500 -0.126993
C58   C     C_R   0.922453 0.137611 0.025095 -0.137863
C59   C     C_R   0.216479 0.081003 0.028160 -0.137569
C60   C     C_R   0.867220 0.784630 0.021558 -0.140808
C61   C     C_R   0.477913 0.930427 0.561713 0.025547
C62   C     C_R   0.990861 0.499268 0.576802 -0.022360
C63   C     C_R   0.514876 0.480156 0.584408 -0.016787
C64   C     C_R   0.994248 0.500032 0.426810 0.044340
C65   C     C_R   0.473799 0.970019 0.415281 0.018116
C66   C     C_R   0.520917 0.461259 0.436351 0.040147
C67   C     C_R   0.567881 0.911628 0.512745 0.029820
C68   C     C_R   0.978117 0.600247 0.538017 -0.027812
C69   C     C_R   0.423737 0.354007 0.549672 -0.032898
C70   C     C_R   0.017931 0.618723 0.465540 0.036822
C71   C     C_R   0.530354 0.891735 0.440388 -0.020725
C72   C     C_R   0.402187 0.366385 0.477332 0.030909
Cr1   Cr    Cr6+3 0.768550 0.541320 0.250660 1.031382
Cr2   Cr    Cr6+3 0.458680 0.227230 0.250660 1.016010
Cr3   Cr    Cr6+3 0.772770 0.231450 0.250660 1.019717
Cr4   Cr    Cr6+3 0.541320 0.768550 0.749340 1.049621
Cr5   Cr    Cr6+3 0.227230 0.458680 0.749340 1.035201
Cr6   Cr    Cr6+3 0.231450 0.772770 0.749340 1.055089
H1    H     H_    0.635050 0.915231 0.075406 0.137734
H2    H     H_    0.087769 0.721039 0.076321 0.133918
H3    H     H_    0.279097 0.363758 0.078073 0.133250
H4    H     H_    0.119227 0.743119 0.949314 0.152196
H5    H     H_    0.621850 0.879082 0.948880 0.152175
H6    H     H_    0.255930 0.374999 0.951468 0.151279
H7    H     H_    0.346895 0.061823 0.443823 0.130278
H8    H     H_    0.950132 0.286959 0.437842 0.137292
H9    H     H_    0.733346 0.637369 0.443780 0.142907
H10   H     H_    0.988406 0.304058 0.567892 0.162837
H11   H     H_    0.314708 0.984537 0.568182 0.183309
H12   H     H_    0.694645 0.686327 0.568346 0.194674
H13   H     H_    0.888321 0.950030 0.478729 0.087781
H14   H     H_    0.972205 0.894970 0.567241 0.124563
H15   H     H_    0.105325 0.099494 0.601733 0.131442
H16   H     H_    0.096119 0.955443 0.448836 0.097754
H17   H     H_    0.780706 0.836348 0.368667 0.142907
H18   H     H_    0.047266 0.162068 0.485574 0.088150
O1    O     O_R   0.910960 0.572410 0.171010 -0.513673
O2    O     O_R   0.427590 0.338550 0.171010 -0.512083
O3    O     O_R   0.661450 0.089040 0.171010 -0.504625
O4    O     O_R   0.572410 0.910960 0.828990 -0.523177
O5    O     O_R   0.338550 0.427590 0.828990 -0.516667
O6    O     O_R   0.089040 0.661450 0.828990 -0.519991
O7    O     O_R   0.639750 0.528530 0.175600 -0.503078
O8    O     O_R   0.471470 0.111220 0.175600 -0.516302
O9    O     O_R   0.888780 0.360250 0.175600 -0.510590
O10   O     O_R   0.528530 0.639750 0.824400 -0.514839
O11   O     O_R   0.111220 0.471470 0.824400 -0.513066
O12   O     O_R   0.360250 0.888780 0.824400 -0.505922
O13   O     O_R   0.909330 0.572400 0.331540 -0.485957
O14   O     O_R   0.427600 0.336930 0.331540 -0.457957
O15   O     O_R   0.663070 0.090670 0.331540 -0.492027
O16   O     O_R   0.572400 0.909330 0.668460 -0.434070
O17   O     O_R   0.336930 0.427600 0.668460 -0.471809
O18   O     O_R   0.090670 0.663070 0.668460 -0.469897
O19   O     O_R   0.638240 0.528520 0.324410 -0.495761
O20   O     O_R   0.471480 0.109720 0.324410 -0.534091
O21   O     O_R   0.890280 0.361760 0.324410 -0.521050
O22   O     O_R   0.528520 0.638240 0.675590 -0.504677
O23   O     O_R   0.109720 0.471480 0.675590 -0.504974
O24   O     O_R   0.361760 0.890280 0.675590 -0.490428
O25   O     O_3   0.666667 0.333333 0.250630 -0.275460
O26   O     O_3   0.333333 0.666667 0.749370 -0.283183
H19   H     H_    0.351554 0.086647 0.865047 0.147490
H20   H     H_    0.908181 0.263372 0.864301 0.136425
H21   H     H_    0.737808 0.648604 0.860731 0.141721
H22   H     H_    0.990877 0.249619 0.121459 0.134828
H23   H     H_    0.258826 0.013028 0.124376 0.135428
H24   H     H_    0.756560 0.738314 0.119748 0.142569
H25   H     H_    0.181983 0.133989 0.923449 0.127029
H26   H     H_    0.866159 0.048512 0.920563 0.124776
H27   H     H_    0.955692 0.820539 0.915555 0.127278
H28   H     H_    0.903039 0.041902 0.049887 0.103257
H29   H     H_    0.141253 0.102112 0.053996 0.101454
H30   H     H_    0.963847 0.860632 0.045755 0.105694
O27   O     O_3   0.773690 0.015311 0.587044 -0.671666
H31   H     H_    0.870070 0.030852 0.587290 0.301055
O28   O     O_3   0.872106 0.667561 0.635189 -0.691929
H32   H     H_    0.822885 0.565657 0.644455 0.318657
O29   O     O_3   0.352308 0.196551 0.652764 -0.683504
H33   H     H_    0.455510 0.248442 0.659108 0.320755
O30   O     O_3   0.142015 0.782550 0.369209 -0.685673
H34   H     H_    0.168517 0.878557 0.354505 0.316988
O31   O     O_3   0.537259 0.787668 0.325684 -0.671947
H35   H     H_    0.439786 0.769995 0.324748 0.339911
O32   O     O_3   0.229076 0.341379 0.391308 -0.654545
H36   H     H_    0.130503 0.273481 0.379049 0.310913

loop_
_geom_bond_atom_site_label_1
_geom_bond_atom_site_label_2
_ccdc_geom_bond_type
C2    C35   S    
C39   C51   A    
C29   O18   A    
C55   C59   A    
Cr6   O6    S    
C13   O27   S    
Cr5   O5    S    
Cr3   O21   S    
C18   O32   S    
O32   H36   S    
C53   C59   A    
O27   H31   S    
Cr2   O2    S    
C54   C60   A    
C3    O9    A    
Cr1   O1    S    
C29   O23   A    
C10   H10   S    
C33   C39   A    
C21   H15   S    
C23   H17   S    
C34   C40   A    
C12   H12   S    
C25   O19   A    
C5    O11   A    
C26   O20   A    
C4    C33   S    
C43   H1    S    
O31   H35   S    
C49   H19   S    
Cr6   O12   S    
C61   C67   A    
C9    C66   A    
Cr5   O26   S    
C53   H23   S    
C46   H4    S    
C36   C42   A    
C66   C72   A    
C63   C69   A    
C58   H28   S    
C55   H25   S    
Cr1   O7    S    
C16   C22   A    
C51   C57   A    
C32   C38   A    
C35   C43   A    
C1    O7    A    
C67   C71   A    
C5    C32   S    
C6    C31   S    
C31   C47   A    
C10   C62   A    
C22   H16   S    
Cr6   O18   S    
Cr5   O17   S    
C44   C46   A    
C7    C11   A    
C39   C42   A    
C15   O29   S    
C27   O21   A    
C18   C72   A    
C15   C69   A    
C13   C19   A    
C51   H21   S    
C4    O10   A    
C44   H2    S    
C16   C70   A    
C28   O17   A    
C12   C63   A    
C52   H22   S    
C19   C23   A    
C57   C60   A    
C3    C34   S    
Cr5   O23   S    
C40   C52   A    
C54   H24   S    
C59   H29   S    
Cr4   O22   S    
C31   C37   A    
C30   O16   A    
C6    O4    A    
C69   C72   A    
Cr6   O24   S    
Cr2   O14   S    
C14   C20   A    
C7    C65   A    
C37   C49   A    
C11   H11   S    
C14   O28   S    
Cr5   O11   S    
Cr4   O16   S    
Cr2   O20   S    
C4    O5    A    
Cr3   O3    S    
C50   H20   S    
C36   C45   A    
C17   C23   A    
C41   C53   A    
C35   C41   A    
C52   C58   A    
C25   O14   A    
C8    C64   A    
C68   C70   A    
C20   C22   A    
C2    O8    A    
C17   C71   A    
C64   C70   A    
C18   C24   A    
C20   H14   S    
C21   C24   A    
C5    O6    A    
C60   H30   S    
Cr2   O8    S    
C13   C67   A    
C45   C48   A    
C34   C44   A    
C29   C62   S    
Cr4   O10   S    
C3    O1    A    
Cr3   O25   S    
C26   C65   S    
C32   C46   A    
C57   H27   S    
C45   H3    S    
C25   C66   S    
C14   C68   A    
C11   C61   A    
C49   C55   A    
C1    O2    A    
C2    O3    A    
O29   H33   S    
Cr1   O13   S    
C38   C50   A    
Cr4   O4    S    
O28   H32   S    
Cr3   O15   S    
Cr1   O19   S    
C62   C68   A    
C17   O31   S    
Cr4   O26   S    
C24   H18   S    
C16   O30   S    
C65   C71   A    
O30   H34   S    
C42   C54   A    
C38   C40   A    
C7    H7    S    
C30   O24   A    
C56   C58   A    
C8    H8    S    
C37   C41   A    
Cr6   O26   S    
C9    C12   A    
C50   C56   A    
C19   H13   S    
C27   C64   S    
C47   H5    S    
C28   C63   S    
C48   H6    S    
C15   C21   A    
Cr2   O25   S    
C27   O13   A    
C8    C10   A    
C30   C61   S    
C33   C48   A    
C6    O12   A    
C28   O22   A    
Cr3   O9    S    
C43   C47   A    
C26   O15   A    
C56   H26   S    
C1    C36   S    
Cr1   O25   S    
C9    H9    S    
