data_mof_unit_28347.cif
_audit_creation_date              2012-12-11T15:06:51-0500
_audit_creation_method            fapswitch 2.2
_symmetry_space_group_name_H-M    P1
_symmetry_Int_Tables_number       1
_space_group_crystal_system       triclinic
_cell_length_a                    19.787496
_cell_length_b                    11.519998
_cell_length_c                    18.718582
_cell_angle_alpha                 89.981213
_cell_angle_beta                  89.214505
_cell_angle_gamma                 90.004308
_cell_volume                      4266.53537942

loop_
_atom_site_label
_atom_site_type_symbol
_atom_type_description
_atom_site_fract_x
_atom_site_fract_y
_atom_site_fract_z
_atom_type_partial_charge
C1    C     C_R   0.763506 0.515621 0.636501 0.541213
C2    C     C_R   0.236480 0.515560 0.363510 0.540960
C3    C     C_R   0.263505 0.015634 0.636509 0.541601
C4    C     C_R   0.736483 0.015560 0.363512 0.541212
C5    C     C_3   0.796296 0.144804 0.448703 -0.270635
C6    C     C_3   0.203699 0.144846 0.551276 -0.270705
C7    C     C_3   0.296294 0.644812 0.448686 -0.270634
C8    C     C_3   0.703694 0.644811 0.551244 -0.270693
C9    C     C_3   0.745568 0.046729 0.440565 0.046680
C10   C     C_3   0.254431 0.046796 0.559457 0.046580
C11   C     C_3   0.245561 0.546746 0.440558 0.046819
C12   C     C_3   0.754430 0.546767 0.559439 0.046704
C13   C     C_3   0.762603 0.087330 0.576953 0.042265
C14   C     C_3   0.237378 0.087348 0.423066 0.042341
C15   C     C_3   0.262623 0.587359 0.576938 0.042134
C16   C     C_3   0.737407 0.587298 0.423038 0.042290
C17   C     C_3   0.767201 0.954503 0.564010 -0.123300
C18   C     C_3   0.232759 0.954543 0.436081 -0.123329
C19   C     C_3   0.267227 0.454543 0.563995 -0.123337
C20   C     C_3   0.732794 0.454479 0.436044 -0.123380
C21   C     C_3   0.815238 0.149671 0.527812 -0.230169
C22   C     C_3   0.184757 0.149699 0.472168 -0.230148
C23   C     C_3   0.315247 0.649688 0.527789 -0.230240
C24   C     C_3   0.684776 0.649674 0.472128 -0.230079
C25   C     C_3   0.001072 0.196250 0.458231 -0.225902
C26   C     C_3   0.998920 0.196253 0.541835 -0.225815
C27   C     C_3   0.501038 0.696232 0.458228 -0.225853
C28   C     C_3   0.498890 0.696247 0.541832 -0.225817
C29   C     C_3   0.062544 0.388847 0.470148 -0.215569
C30   C     C_3   0.937486 0.388873 0.529847 -0.215610
C31   C     C_3   0.562538 0.888805 0.470147 -0.215455
C32   C     C_3   0.437477 0.888890 0.529844 -0.215583
C33   C     C_3   0.940271 0.379523 0.448020 -0.282877
C34   C     C_3   0.059757 0.379500 0.551981 -0.282911
C35   C     C_3   0.440263 0.879536 0.448015 -0.282925
C36   C     C_3   0.559748 0.879470 0.551978 -0.282958
C37   C     C_3   0.007184 0.323540 0.429701 0.065132
C38   C     C_3   0.992832 0.323557 0.570317 0.065147
C39   C     C_3   0.507170 0.823525 0.429697 0.065314
C40   C     C_3   0.492818 0.823554 0.570312 0.065094
C41   C     C_3   0.818860 0.026206 0.045654 -0.235024
C42   C     C_3   0.187879 0.009173 0.957268 -0.227197
C43   C     C_3   0.319831 0.530585 0.047245 -0.231549
C44   C     C_3   0.681130 0.525242 0.954320 -0.233418
C45   C     C_R   0.775212 0.122009 0.650374 0.545945
C46   C     C_R   0.224783 0.122002 0.349631 0.545544
C47   C     C_R   0.275224 0.622031 0.650361 0.546204
C48   C     C_R   0.724801 0.621964 0.349610 0.545984
C49   C     C_3   0.818413 0.024338 0.964998 -0.232926
C50   C     C_3   0.185350 0.017347 0.037369 -0.231379
C51   C     C_3   0.322363 0.538659 0.967032 -0.223762
C52   C     C_3   0.681310 0.524542 0.035019 -0.232264
C53   C     C_3   0.691707 0.014624 0.032139 -0.220346
C54   C     C_3   0.317242 0.033539 0.967634 -0.210317
C55   C     C_3   0.193710 0.512520 0.032958 -0.217323
C56   C     C_3   0.808101 0.515184 0.967375 -0.220681
C57   C     C_3   0.744832 0.199951 0.061283 -0.255527
C58   C     C_3   0.243929 0.197641 0.938226 -0.260017
C59   C     C_3   0.245110 0.702161 0.061844 -0.255623
C60   C     C_3   0.754517 0.699988 0.938347 -0.256457
C61   C     C_3   0.749192 0.070220 0.075337 0.063972
C62   C     C_3   0.252495 0.067662 0.925758 0.063282
C63   C     C_3   0.249989 0.572070 0.076016 0.062997
C64   C     C_3   0.750506 0.570249 0.924428 0.064607
C65   C     C_3   0.760452 0.104099 0.936088 0.062834
C66   C     C_3   0.240689 0.102200 0.064744 0.060831
C67   C     C_3   0.260665 0.606428 0.936764 0.062960
C68   C     C_3   0.739300 0.604211 0.063696 0.062614
C69   C     C_3   0.694213 0.041594 0.951056 -0.253047
C70   C     C_3   0.308725 0.044992 0.049789 -0.254114
C71   C     C_3   0.200062 0.527876 0.950688 -0.261279
C72   C     C_3   0.805638 0.542065 0.048484 -0.254080
C73   C     C_3   0.757498 0.217851 0.980154 -0.224474
C74   C     C_3   0.239075 0.215816 0.020290 -0.220832
C75   C     C_3   0.245425 0.720319 0.979720 -0.213873
C76   C     C_3   0.741757 0.717896 0.019415 -0.226270
C77   C     C_3   0.999572 0.477891 0.040764 -0.235763
C78   C     C_3   0.999959 0.477988 0.959362 -0.235131
C79   C     C_3   0.495531 0.976939 0.042516 -0.231862
C80   C     C_3   0.491562 0.977085 0.961620 -0.226175
C81   C     C_3   0.068213 0.293939 0.023090 -0.231379
C82   C     C_3   0.931763 0.293580 0.976552 -0.230607
C83   C     C_3   0.567500 0.797275 0.024922 -0.222839
C84   C     C_3   0.436958 0.773042 0.975156 -0.212609
C85   C     C_3   0.948542 0.281133 0.056429 -0.251091
C86   C     C_3   0.051488 0.281798 0.943244 -0.250642
C87   C     C_3   0.446347 0.780632 0.056851 -0.253140
C88   C     C_3   0.556346 0.798026 0.943200 -0.258866
C89   C     C_R   0.971723 0.340505 0.646747 0.525897
C90   C     C_R   0.028286 0.340488 0.353262 0.525820
C91   C     C_R   0.471718 0.840505 0.646744 0.525976
C92   C     C_R   0.528281 0.840485 0.353260 0.525083
C93   C     C_3   0.011947 0.351937 0.069054 0.064048
C94   C     C_3   0.987882 0.352004 0.930840 0.064603
C95   C     C_3   0.509583 0.852054 0.070070 0.061871
C96   C     C_3   0.487178 0.851365 0.931411 0.064154
C97   C     C_R   0.759798 0.534211 0.848097 0.527114
C98   C     C_R   0.240545 0.535469 0.152389 0.524402
C99   C     C_R   0.260609 0.032290 0.849077 0.527781
C100  C     C_R   0.740078 0.033999 0.151734 0.527407
C101  C     C_R   0.774111 0.132896 0.858721 0.531172
C102  C     C_R   0.226451 0.131633 0.141870 0.528843
C103  C     C_R   0.274326 0.633868 0.859119 0.530522
C104  C     C_R   0.725818 0.633047 0.141169 0.531525
C105  C     C_R   0.966385 0.353668 0.854537 0.533373
C106  C     C_R   0.033589 0.353640 0.145411 0.533410
C107  C     C_R   0.466367 0.853515 0.854687 0.531182
C108  C     C_R   0.531798 0.853470 0.146424 0.528951
C109  C     C_3   0.678991 0.081385 0.481462 0.007343
C110  C     C_3   0.321003 0.081445 0.518547 0.007228
C111  C     C_3   0.178995 0.581415 0.481462 0.007382
C112  C     C_3   0.821010 0.581425 0.518542 0.007280
C113  C     C_3   0.692476 0.128265 0.555476 -0.215191
C114  C     C_3   0.307509 0.128296 0.444518 -0.215168
C115  C     C_3   0.192495 0.628286 0.555471 -0.215204
C116  C     C_3   0.807539 0.628259 0.444500 -0.215209
C117  C     C_3   0.775401 0.938236 0.481743 -0.242236
C118  C     C_3   0.224613 0.938282 0.518350 -0.242213
C119  C     C_3   0.275381 0.438258 0.481729 -0.242227
C120  C     C_3   0.724614 0.438241 0.518320 -0.242153
Cr1   Cr    Cr6+3 0.885690 0.492860 0.745310 0.991634
Cr2   Cr    Cr6+3 0.114310 0.492860 0.254690 0.991865
Cr3   Cr    Cr6+3 0.385690 0.992860 0.745310 0.991819
Cr4   Cr    Cr6+3 0.614310 0.992860 0.254690 0.991538
Cr5   Cr    Cr6+3 0.729880 0.332270 0.748190 0.984207
Cr6   Cr    Cr6+3 0.270120 0.332270 0.251810 0.983727
Cr7   Cr    Cr6+3 0.229880 0.832270 0.748190 0.984582
Cr8   Cr    Cr6+3 0.770120 0.832270 0.251810 0.984545
Cr9   Cr    Cr6+3 0.888120 0.178590 0.753010 0.996246
Cr10  Cr    Cr6+3 0.111880 0.178590 0.246990 0.996405
Cr11  Cr    Cr6+3 0.388120 0.678590 0.753010 0.996353
Cr12  Cr    Cr6+3 0.611880 0.678590 0.246990 0.995975
H1    H     H_    0.656137 0.001416 0.494077 0.138413
H2    H     H_    0.343863 0.001496 0.505963 0.138473
H3    H     H_    0.156133 0.501465 0.494090 0.138434
H4    H     H_    0.843870 0.501468 0.505974 0.138446
H5    H     H_    0.863563 0.106509 0.532131 0.129216
H6    H     H_    0.136441 0.106542 0.467880 0.129242
H7    H     H_    0.363557 0.606517 0.532091 0.129225
H8    H     H_    0.636431 0.606580 0.467803 0.129266
H9    H     H_    0.829146 0.924264 0.466270 0.132198
H10   H     H_    0.170884 0.924259 0.533859 0.132272
H11   H     H_    0.329114 0.424271 0.466234 0.132253
H12   H     H_    0.670877 0.424214 0.533810 0.132233
H13   H     H_    0.041033 0.140391 0.436746 0.130175
H14   H     H_    0.958955 0.140384 0.563343 0.130217
H15   H     H_    0.540974 0.640311 0.436741 0.130134
H16   H     H_    0.458915 0.640412 0.563345 0.130245
H17   H     H_    0.954315 0.155211 0.438262 0.100458
H18   H     H_    0.045672 0.155204 0.561817 0.100469
H19   H     H_    0.454267 0.655229 0.438267 0.100357
H20   H     H_    0.545636 0.655177 0.561814 0.100458
H21   H     H_    0.611490 0.863799 0.447991 0.106412
H22   H     H_    0.388520 0.863891 0.552021 0.106357
H23   H     H_    0.111502 0.363877 0.447982 0.106348
H24   H     H_    0.888533 0.363852 0.552021 0.106380
H25   H     H_    0.602841 0.827514 0.571943 0.103094
H26   H     H_    0.397141 0.827635 0.428074 0.102981
H27   H     H_    0.102857 0.327559 0.571943 0.103117
H28   H     H_    0.897156 0.327607 0.428078 0.103095
H29   H     H_    0.936624 0.466375 0.422821 0.114820
H30   H     H_    0.063426 0.466334 0.577160 0.114770
H31   H     H_    0.436624 0.966386 0.422812 0.114747
H32   H     H_    0.563428 0.966307 0.577153 0.114740
H33   H     H_    0.945301 0.481072 0.542414 0.183725
H34   H     H_    0.054732 0.481039 0.457549 0.183827
H35   H     H_    0.445305 0.981085 0.542409 0.183727
H36   H     H_    0.554740 0.981001 0.457546 0.183869
H37   H     H_    0.833077 0.937794 0.063012 0.138390
H38   H     H_    0.183460 0.918079 0.942203 0.137528
H39   H     H_    0.331560 0.439317 0.061134 0.137296
H40   H     H_    0.667409 0.436550 0.937265 0.137851
H41   H     H_    0.859511 0.084148 0.064850 0.114926
H42   H     H_    0.142215 0.051520 0.934765 0.116355
H43   H     H_    0.360321 0.583721 0.071038 0.114030
H44   H     H_    0.640197 0.581857 0.934694 0.113178
H45   H     H_    0.870003 0.046984 0.946734 0.135881
H46   H     H_    0.133127 0.043261 0.052105 0.135866
H47   H     H_    0.370657 0.575704 0.951166 0.135824
H48   H     H_    0.629844 0.548988 0.052889 0.135931
H49   H     H_    0.810512 0.934201 0.945787 0.114240
H50   H     H_    0.192722 0.930471 0.061479 0.114746
H51   H     H_    0.323556 0.449399 0.944060 0.114023
H52   H     H_    0.688763 0.434636 0.054888 0.114955
H53   H     H_    0.701029 0.923871 0.039558 0.107860
H54   H     H_    0.335859 0.947890 0.952136 0.110808
H55   H     H_    0.199715 0.422726 0.046916 0.108255
H56   H     H_    0.799696 0.424305 0.959168 0.107457
H57   H     H_    0.691810 0.960305 0.919372 0.098368
H58   H     H_    0.311344 0.958508 0.075774 0.101514
H59   H     H_    0.206434 0.442556 0.923787 0.105703
H60   H     H_    0.809294 0.460716 0.080155 0.099959
H61   H     H_    0.693933 0.233011 0.076948 0.112061
H62   H     H_    0.287452 0.247084 0.915479 0.101252
H63   H     H_    0.197520 0.736514 0.085967 0.104657
H64   H     H_    0.805315 0.733499 0.922660 0.111851
H65   H     H_    0.782920 0.247791 0.093000 0.095819
H66   H     H_    0.197949 0.229998 0.911488 0.101879
H67   H     H_    0.287966 0.748884 0.086458 0.099790
H68   H     H_    0.716263 0.747355 0.906539 0.096836
H69   H     H_    0.807285 0.252308 0.974181 0.107607
H70   H     H_    0.190567 0.250816 0.032470 0.106348
H71   H     H_    0.278534 0.791877 0.963957 0.106305
H72   H     H_    0.691645 0.751278 0.024739 0.109880
H73   H     H_    0.719340 0.277384 0.958445 0.124338
H74   H     H_    0.279429 0.275521 0.037592 0.123390
H75   H     H_    0.193392 0.745947 0.965824 0.116898
H76   H     H_    0.779524 0.778317 0.041121 0.123904
H77   H     H_    0.642035 0.039798 0.054538 0.131703
H78   H     H_    0.355876 0.097738 0.951212 0.121321
H79   H     H_    0.143997 0.544559 0.051370 0.129720
H80   H     H_    0.857341 0.541560 0.944913 0.131421
H81   H     H_    0.689060 0.223160 0.556292 0.158715
H82   H     H_    0.310924 0.223186 0.443654 0.158835
H83   H     H_    0.189081 0.723171 0.556287 0.158731
H84   H     H_    0.810963 0.723161 0.443629 0.158790
H85   H     H_    0.650745 0.097289 0.936050 0.117795
H86   H     H_    0.349358 0.100432 0.071842 0.113746
H87   H     H_    0.153981 0.568633 0.928958 0.108674
H88   H     H_    0.848437 0.599383 0.063141 0.117280
H89   H     H_    0.037082 0.542267 0.058509 0.131310
H90   H     H_    0.962888 0.542799 0.941503 0.130509
H91   H     H_    0.534362 0.040803 0.057857 0.130255
H92   H     H_    0.449975 0.031868 0.945322 0.131210
H93   H     H_    0.950205 0.509581 0.061509 0.117585
H94   H     H_    0.049157 0.510017 0.938745 0.115654
H95   H     H_    0.447751 0.009238 0.066470 0.116162
H96   H     H_    0.537090 0.021121 0.938925 0.115502
H97   H     H_    0.609322 0.851910 0.036075 0.106649
H98   H     H_    0.384520 0.786826 0.960508 0.107761
H99   H     H_    0.108879 0.354640 0.025024 0.110125
H100  H     H_    0.890795 0.353319 0.973943 0.107999
H101  H     H_    0.596472 0.848053 0.914929 0.103658
H102  H     H_    0.401544 0.821007 0.083058 0.101156
H103  H     H_    0.093494 0.315438 0.909075 0.098744
H104  H     H_    0.905904 0.312575 0.090609 0.099319
H105  H     H_    0.957892 0.188490 0.069783 0.121793
H106  H     H_    0.043406 0.188902 0.929438 0.122568
H107  H     H_    0.452923 0.692482 0.079842 0.115487
H108  H     H_    0.557937 0.708562 0.921382 0.110568
H109  H     H_    0.918277 0.208627 0.954285 0.131621
H110  H     H_    0.081935 0.208417 0.045113 0.131613
H111  H     H_    0.450001 0.683099 0.960141 0.122277
H112  H     H_    0.577022 0.707845 0.042913 0.130083
H113  H     H_    0.653609 0.096237 0.594444 0.096493
H114  H     H_    0.346366 0.096269 0.405563 0.096328
H115  H     H_    0.153638 0.596265 0.594445 0.096546
H116  H     H_    0.846405 0.596213 0.405554 0.096444
H117  H     H_    0.746834 0.862913 0.466162 0.096657
H118  H     H_    0.253215 0.862999 0.533960 0.096665
H119  H     H_    0.246800 0.362941 0.466165 0.096679
H120  H     H_    0.753212 0.362967 0.533945 0.096694
H121  H     H_    0.716961 0.917777 0.578897 0.076205
H122  H     H_    0.282981 0.917819 0.421171 0.076167
H123  H     H_    0.216998 0.417831 0.578919 0.076227
H124  H     H_    0.783024 0.417738 0.421152 0.076191
H125  H     H_    0.841898 0.129812 0.414686 0.115912
H126  H     H_    0.158098 0.129839 0.585299 0.115940
H127  H     H_    0.341890 0.629823 0.414658 0.115757
H128  H     H_    0.658081 0.629784 0.585248 0.115893
H129  H     H_    0.773324 0.227069 0.432020 0.122456
H130  H     H_    0.226664 0.227115 0.567927 0.122419
H131  H     H_    0.273323 0.727077 0.432008 0.122483
H132  H     H_    0.726646 0.727094 0.567906 0.122403
H133  H     H_    0.822255 0.236984 0.545645 0.101359
H134  H     H_    0.177730 0.236982 0.454271 0.101430
H135  H     H_    0.322290 0.736988 0.545612 0.101327
H136  H     H_    0.677805 0.736989 0.454230 0.101389
O1    O     O_R   0.957210 0.449410 0.665480 -0.519182
O2    O     O_R   0.042790 0.449410 0.334520 -0.519293
O3    O     O_R   0.457210 0.949410 0.665480 -0.519161
O4    O     O_R   0.542790 0.949410 0.334520 -0.519533
O5    O     O_R   0.736260 0.212010 0.826560 -0.512112
O6    O     O_R   0.263740 0.212010 0.173440 -0.511963
O7    O     O_R   0.236260 0.712010 0.826560 -0.512108
O8    O     O_R   0.763740 0.712010 0.173440 -0.511912
O9    O     O_R   0.832520 0.095300 0.836000 -0.535001
O10   O     O_R   0.167480 0.095300 0.164000 -0.535201
O11   O     O_R   0.332520 0.595300 0.836000 -0.534602
O12   O     O_R   0.667480 0.595300 0.164000 -0.534384
O13   O     O_R   0.946380 0.253940 0.826940 -0.515761
O14   O     O_R   0.053620 0.253940 0.173060 -0.515205
O15   O     O_R   0.446380 0.753940 0.826940 -0.515512
O16   O     O_R   0.553620 0.753940 0.173060 -0.515589
O17   O     O_3   0.834560 0.334570 0.748840 -0.281454
O18   O     O_3   0.165440 0.334570 0.251160 -0.280837
O19   O     O_3   0.334560 0.834570 0.748840 -0.282595
O20   O     O_3   0.665440 0.834570 0.251160 -0.280734
O21   O     O_R   0.820730 0.541240 0.668250 -0.495908
O22   O     O_R   0.179270 0.541240 0.331750 -0.496240
O23   O     O_R   0.320730 0.041240 0.668250 -0.495733
O24   O     O_R   0.679270 0.041240 0.331750 -0.495949
O25   O     O_R   0.714240 0.455060 0.663710 -0.537007
O26   O     O_R   0.285760 0.455060 0.336290 -0.537232
O27   O     O_R   0.214240 0.955060 0.663710 -0.536665
O28   O     O_R   0.785760 0.955060 0.336290 -0.536972
O29   O     O_R   0.736780 0.204870 0.675910 -0.528396
O30   O     O_R   0.263220 0.204870 0.324090 -0.528672
O31   O     O_R   0.236780 0.704870 0.675910 -0.528247
O32   O     O_R   0.763220 0.704870 0.324090 -0.528433
O33   O     O_R   0.833070 0.087590 0.673490 -0.502678
O34   O     O_R   0.166930 0.087590 0.326510 -0.502748
O35   O     O_R   0.333070 0.587590 0.673490 -0.502514
O36   O     O_R   0.666930 0.587590 0.326510 -0.502618
O37   O     O_R   0.946890 0.246800 0.676300 -0.513655
O38   O     O_R   0.053110 0.246800 0.323700 -0.513627
O39   O     O_R   0.446890 0.746800 0.676300 -0.513587
O40   O     O_R   0.553110 0.746800 0.323700 -0.514002
O41   O     O_R   0.956650 0.457120 0.827980 -0.535938
O42   O     O_R   0.043350 0.457120 0.172020 -0.535280
O43   O     O_R   0.456650 0.957120 0.827980 -0.535405
O44   O     O_R   0.543350 0.957120 0.172020 -0.536030
O45   O     O_R   0.820220 0.548390 0.818890 -0.522562
O46   O     O_R   0.179780 0.548390 0.181110 -0.521504
O47   O     O_R   0.320220 0.048390 0.818890 -0.521877
O48   O     O_R   0.679780 0.048390 0.181110 -0.521759
O49   O     O_R   0.713680 0.462770 0.826210 -0.532294
O50   O     O_R   0.286320 0.462770 0.173790 -0.532035
O51   O     O_R   0.213680 0.962770 0.826210 -0.532080
O52   O     O_R   0.786320 0.962770 0.173790 -0.532181
C121  C     C_R   0.817443 0.893063 0.612241 0.038984
C122  C     C_R   0.888177 0.908414 0.604758 -0.052888
C123  C     C_R   0.931600 0.875772 0.659714 -0.103069
C124  C     C_R   0.905686 0.826440 0.722431 -0.079569
C125  C     C_R   0.836163 0.810713 0.730981 -0.067190
C126  C     C_R   0.792295 0.844085 0.676833 -0.101436
H137  H     H_    0.910357 0.946148 0.557293 0.068038
H138  H     H_    0.985552 0.888579 0.653409 0.084994
H139  H     H_    0.939470 0.801223 0.764687 0.089420
H140  H     H_    0.816002 0.774892 0.780256 0.111968
H141  H     H_    0.738432 0.835596 0.686501 0.082273
C127  C     C_R   0.182453 0.893141 0.387937 0.039260
C128  C     C_R   0.111729 0.908568 0.395459 -0.052845
C129  C     C_R   0.068260 0.876037 0.340534 -0.103049
C130  C     C_R   0.094114 0.826671 0.277830 -0.079733
C131  C     C_R   0.163620 0.810827 0.269267 -0.067599
C132  C     C_R   0.207538 0.844167 0.323351 -0.101491
H142  H     H_    0.089581 0.946248 0.442934 0.067898
H143  H     H_    0.014320 0.888911 0.346866 0.084967
H144  H     H_    0.060299 0.801487 0.235606 0.089398
H145  H     H_    0.183742 0.774895 0.220050 0.110554
H146  H     H_    0.261389 0.835608 0.313646 0.081893
C133  C     C_R   0.317515 0.393120 0.612179 0.039006
C134  C     C_R   0.388244 0.408514 0.604654 -0.052918
C135  C     C_R   0.431705 0.375865 0.659570 -0.103129
C136  C     C_R   0.405842 0.326417 0.722269 -0.079764
C137  C     C_R   0.336331 0.310609 0.730845 -0.067096
C138  C     C_R   0.292417 0.344061 0.676762 -0.101241
H147  H     H_    0.410401 0.446236 0.557179 0.067972
H148  H     H_    0.485650 0.388707 0.653232 0.084978
H149  H     H_    0.439658 0.301139 0.764482 0.089428
H150  H     H_    0.316213 0.274616 0.780079 0.112234
H151  H     H_    0.238563 0.335507 0.686460 0.082595
C139  C     C_R   0.682504 0.393078 0.387862 0.039009
C140  C     C_R   0.611777 0.408507 0.395394 -0.052852
C141  C     C_R   0.568303 0.376044 0.340451 -0.103074
C142  C     C_R   0.594152 0.326765 0.277707 -0.079729
C143  C     C_R   0.663665 0.310934 0.269108 -0.067161
C144  C     C_R   0.707592 0.344181 0.323234 -0.101328
H152  H     H_    0.589641 0.446164 0.442891 0.067947
H153  H     H_    0.514359 0.388927 0.346796 0.084793
H154  H     H_    0.560322 0.301664 0.235468 0.089104
H155  H     H_    0.683773 0.275131 0.219812 0.112010
H156  H     H_    0.761448 0.335650 0.313524 0.082279
N1    N     N_2   0.631216 0.150718 0.442934 -0.509711
H157  H     H_    0.648648 0.195245 0.400095 0.303316
C145  C     C_3   0.575299 0.201056 0.481775 -0.343185
H158  H     H_    0.590727 0.279819 0.511000 0.125931
H159  H     H_    0.555691 0.138984 0.521785 0.135798
H160  H     H_    0.536066 0.224587 0.443040 0.151028
N2    N     N_2   0.368775 0.150803 0.557042 -0.509729
H161  H     H_    0.351325 0.195316 0.599849 0.303304
C146  C     C_3   0.424675 0.201200 0.518176 -0.343194
H162  H     H_    0.463934 0.224690 0.556888 0.151051
H163  H     H_    0.409238 0.280005 0.488973 0.125902
H164  H     H_    0.444249 0.139170 0.478150 0.135793
N3    N     N_2   0.131220 0.650775 0.442952 -0.509830
H165  H     H_    0.148610 0.695233 0.400084 0.303414
C147  C     C_3   0.075299 0.701097 0.481800 -0.343189
H166  H     H_    0.090724 0.779862 0.511028 0.125986
H167  H     H_    0.055695 0.639016 0.521806 0.135798
H168  H     H_    0.036061 0.724629 0.443069 0.151027
N4    N     N_2   0.868766 0.650798 0.557052 -0.509662
H169  H     H_    0.851295 0.695326 0.599848 0.303283
C148  C     C_3   0.924676 0.701198 0.518203 -0.343182
H170  H     H_    0.963925 0.724687 0.556928 0.151029
H171  H     H_    0.909246 0.780007 0.489000 0.125871
H172  H     H_    0.944260 0.639171 0.478178 0.135807

loop_
_geom_bond_atom_site_label_1
_geom_bond_atom_site_label_2
_ccdc_geom_bond_type
C78   H94   S    
C142  C143  A    
C82   C94   S    
C119  H11   S    
C10   C110  S    
C7    H127  S    
C120  H12   S    
C41   C61   S    
C116  H84   S    
C53   C69   S    
C104  O12   A    
C43   C63   S    
Cr5   O5    S    
C128  C129  A    
C44   C64   S    
C70   H86   S    
C50   H46   S    
C63   C98   S    
C51   H51   S    
C28   C40   S    
C30   C38   S    
C2    O22   A    
C18   C127  S    
C42   H38   S    
Cr9   O37   S    
C129  H143  S    
C124  C125  A    
C56   C72   S    
C105  O13   A    
C21   H5    S    
C8    H132  S    
C84   H98   S    
C18   C118  S    
C54   H54   S    
C81   C86   S    
C108  O16   A    
C29   H23   S    
C30   H24   S    
C83   C88   S    
C5    H129  S    
C90   O2    A    
C72   H88   S    
C85   H105  S    
C41   C49   S    
Cr8   O32   S    
C49   H45   S    
Cr5   O17   S    
Cr2   O46   S    
C109  H1    S    
C123  C124  A    
Cr7   O19   S    
C20   C139  S    
Cr8   O20   S    
C118  H118  S    
C146  H164  S    
C26   C38   S    
Cr10  O38   S    
C59   H63   S    
C14   C114  S    
C41   H37   S    
C83   H112  S    
C60   C76   S    
C35   H31   S    
C120  H120  S    
C81   H110  S    
C33   H29   S    
C44   H40   S    
C47   O31   A    
C111  N3    S    
C22   H134  S    
C140  C141  A    
C54   C70   S    
C68   C72   S    
C97   O49   A    
C115  H83   S    
C98   O46   A    
C102  O6    A    
C99   O51   A    
C32   H22   S    
C19   H123  S    
C64   C97   S    
C15   C115  S    
C25   H13   S    
C69   H57   S    
N4    H169  S    
C20   C120  S    
C70   H58   S    
Cr7   O27   S    
Cr8   O28   S    
C134  H147  S    
C43   H39   S    
C57   H65   S    
C52   H52   S    
Cr7   O7    S    
C131  C132  A    
Cr4   O24   S    
C57   C61   S    
C82   C85   S    
C59   C63   S    
C60   C64   S    
Cr9   O17   S    
C124  H139  S    
N1    H157  S    
C13   C45   S    
C66   C70   S    
C78   C94   S    
C113  H113  S    
C23   H135  S    
C86   H106  S    
C145  H160  S    
C95   C108  S    
C60   H68   S    
C62   C99   S    
C5    C21   S    
C121  C122  A    
C81   H99   S    
C57   H61   S    
C31   C36   S    
C15   C47   S    
C48   O32   A    
C55   C71   S    
N2    H161  S    
C148  H171  S    
C6    C22   S    
C114  H82   S    
Cr2   O22   S    
C65   C101  S    
Cr10  O18   S    
C43   C51   S    
N4    C148  S    
C67   C103  S    
C136  H149  S    
C3    O23   A    
C18   H122  S    
C88   H101  S    
C141  H153  S    
C37   C90   S    
Cr11  O35   S    
C66   C74   S    
C25   H17   S    
C57   C73   S    
C135  H148  S    
C26   H14   S    
C105  O41   A    
C137  H150  S    
C85   C93   S    
C107  O43   A    
C87   C95   S    
Cr5   O49   S    
C56   C64   S    
C7    H131  S    
C144  H156  S    
C45   O33   A    
C104  O8    A    
C17   C121  S    
C132  H146  S    
C33   H28   S    
C34   H27   S    
C44   C52   S    
Cr6   O6    S    
C50   H50   S    
C1    C12   S    
C75   H75   S    
C112  H4    S    
C51   H47   S    
C2    C11   S    
Cr12  O12   S    
C87   H107  S    
C127  C128  A    
C42   H42   S    
C75   H71   S    
C129  C130  A    
C147  H168  S    
C25   C26   S    
C130  C131  A    
C106  O14   A    
C8    H128  S    
C5    C9    S    
C119  H119  S    
C93   C106  S    
C8    C12   S    
C5    H125  S    
C6    H130  S    
C51   C67   S    
C36   H25   S    
C78   H90   S    
C49   H49   S    
C42   C50   S    
C19   C133  S    
Cr6   O18   S    
Cr3   O47   S    
C110  H2    S    
C61   C100  S    
C67   C75   S    
Cr1   O1    S    
C112  C116  S    
C58   C74   S    
Cr3   O3    S    
C41   H41   S    
Cr4   O4    S    
C44   H44   S    
C30   H33   S    
C34   H30   S    
C127  C132  A    
C79   H91   S    
C68   C76   S    
C13   C17   S    
C98   O50   A    
C14   C22   S    
C99   O47   A    
C103  O7    A    
C13   C21   S    
C7    C23   S    
C8    C24   S    
C40   C91   S    
N3    C147  S    
Cr7   O31   S    
C46   O34   A    
C76   H76   S    
C54   H78   S    
C134  C135  A    
Cr1   O41   S    
C139  C140  A    
Cr3   O43   S    
C71   H59   S    
C4    C9    S    
C72   H60   S    
Cr10  O34   S    
C91   O39   A    
C58   C62   S    
C88   C96   S    
C94   C105  S    
C77   H93   S    
C109  N1    S    
C12   C112  S    
C147  H166  S    
C14   C46   S    
C77   C78   S    
C15   C19   S    
Cr9   O33   S    
C69   H85   S    
C101  O9    A    
C146  H163  S    
C130  H144  S    
C92   O4    A    
C108  O44   A    
C121  C126  A    
C88   H108  S    
C71   H87   S    
C2    O26   A    
Cr11  O39   S    
C21   H133  S    
Cr7   O51   S    
C116  H116  S    
Cr8   O52   S    
C103  O11   A    
Cr3   O23   S    
Cr11  O11   S    
C17   C117  S    
C42   C62   S    
C122  C123  A    
C19   C119  S    
C24   H136  S    
Cr12  O40   S    
C16   C116  S    
Cr11  O15   S    
C100  O48   A    
C20   H124  S    
C115  H115  S    
C9    C109  S    
C28   H16   S    
C11   C111  S    
C26   H18   S    
C137  C138  A    
C117  H117  S    
C106  O42   A    
C74   H70   S    
C48   O36   A    
C29   C34   S    
C58   H62   S    
C33   C37   S    
C82   H109  S    
C45   O29   A    
C117  H9    S    
C4    O24   A    
C79   C95   S    
C89   O37   A    
C80   H92   S    
Cr5   O29   S    
C76   H72   S    
C125  H140  S    
C145  H159  S    
Cr1   O17   S    
C80   H96   S    
Cr3   O19   S    
Cr4   O20   S    
Cr12  O16   S    
C96   C107  S    
C39   C92   S    
C148  H170  S    
C27   H19   S    
C14   C18   S    
C107  O15   A    
C68   C104  S    
C6    C10   S    
C1    O25   A    
C54   C62   S    
C22   H6    S    
C6    H126  S    
C35   H26   S    
C111  H3    S    
C114  H114  S    
C73   H69   S    
C128  H142  S    
C65   C69   S    
C110  N2    S    
C77   C93   S    
Cr4   O44   S    
C84   H111  S    
C67   C71   S    
C125  C126  A    
Cr2   O2    S    
C3    O27   A    
C31   H36   S    
C53   H77   S    
Cr12  O36   S    
C32   H35   S    
C29   C37   S    
C36   H32   S    
C92   O40   A    
C46   O30   A    
C29   H34   S    
C43   H43   S    
C133  C134  A    
C85   H104  S    
C9    C117  S    
C66   C102  S    
C35   C39   S    
C145  H158  S    
C84   C87   S    
C113  H81   S    
C11   C119  S    
C16   C48   S    
C7    C11   S    
C38   C89   S    
C17   H121  S    
C87   H102  S    
C49   C65   S    
C89   O1    A    
C23   H7    S    
C56   H80   S    
C91   O3    A    
N1    C145  S    
C147  H167  S    
Cr1   O45   S    
C139  C144  A    
Cr2   O42   S    
C65   C73   S    
C123  H138  S    
C84   C96   S    
Cr4   O48   S    
C53   H53   S    
Cr8   O8    S    
C86   C94   S    
C25   C37   S    
C12   C120  S    
C56   H56   S    
C59   H67   S    
N2    C146  S    
Cr9   O9    S    
C55   H55   S    
C80   C96   S    
C52   C68   S    
C16   C20   S    
C148  H172  S    
C15   C23   S    
C140  H152  S    
C16   C24   S    
C133  C138  A    
C97   O45   A    
C101  O5    A    
C53   C61   S    
C102  O10   A    
C79   H95   S    
C31   H21   S    
C138  H151  S    
C1    O21   A    
C32   C35   S    
C36   C40   S    
C27   C39   S    
Cr6   O50   S    
C73   H73   S    
C55   C63   S    
Cr10  O10   S    
C52   H48   S    
C131  H145  S    
C10   C118  S    
C81   C93   S    
C122  H137  S    
C83   C95   S    
C82   H100  S    
C143  H155  S    
Cr9   O13   S    
C50   C66   S    
N3    H165  S    
C100  O52   A    
C77   H89   S    
C28   H20   S    
C24   H8    S    
C59   C75   S    
C126  H141  S    
C60   H64   S    
C74   H74   S    
C142  H154  S    
C110  C114  S    
C58   H66   S    
C112  N4    S    
C30   C33   S    
C34   C38   S    
C83   H97   S    
C47   O35   A    
C4    O28   A    
C118  H10   S    
Cr5   O25   S    
C90   O38   A    
Cr6   O30   S    
C109  C113  S    
C86   H103  S    
Cr1   O21   S    
Cr2   O18   S    
Cr10  O14   S    
C3    C10   S    
C146  H162  S    
Cr11  O19   S    
C136  C137  A    
Cr12  O20   S    
Cr6   O26   S    
C141  C142  A    
C31   C39   S    
C32   C40   S    
C143  C144  A    
C55   H79   S    
C79   C80   S    
C27   H15   S    
C27   C28   S    
C111  C115  S    
C135  C136  A    
C13   C113  S    
