data_mof_unit_36506.cif
_audit_creation_date              2012-12-11T16:12:55-0500
_audit_creation_method            fapswitch 2.2
_symmetry_space_group_name_H-M    P1
_symmetry_Int_Tables_number       1
_space_group_crystal_system       triclinic
_cell_length_a                    7.101681
_cell_length_b                    21.040299
_cell_length_c                    23.768176
_cell_angle_alpha                 89.999969
_cell_angle_beta                  89.998227
_cell_angle_gamma                 89.999272
_cell_volume                      3551.47630956

loop_
_atom_site_label
_atom_site_type_symbol
_atom_type_description
_atom_site_fract_x
_atom_site_fract_y
_atom_site_fract_z
_atom_type_partial_charge
O1    O     O_R   0.615270 0.806540 0.192260 -0.531281
O2    O     O_R   0.384730 0.193460 0.807740 -0.531273
O3    O     O_R   0.384730 0.193460 0.692260 -0.531286
O4    O     O_R   0.615270 0.806540 0.307740 -0.531255
O5    O     O_R   0.115270 0.693460 0.307740 -0.531271
O6    O     O_R   0.884730 0.306540 0.692260 -0.531276
O7    O     O_R   0.884730 0.306540 0.807740 -0.531270
O8    O     O_R   0.115270 0.693460 0.192260 -0.531296
O9    O     O_R   0.285500 0.813970 0.307340 -0.531241
O10   O     O_R   0.714500 0.186030 0.692660 -0.531253
O11   O     O_R   0.714500 0.186030 0.807340 -0.531241
O12   O     O_R   0.285500 0.813970 0.192660 -0.531247
O13   O     O_R   0.785500 0.686030 0.192660 -0.531249
O14   O     O_R   0.214500 0.313970 0.807340 -0.531237
O15   O     O_R   0.214500 0.313970 0.692660 -0.531251
O16   O     O_R   0.785500 0.686030 0.307340 -0.531245
C1    C     C_R   0.453418 0.828927 0.326398 0.711661
C2    C     C_R   0.546582 0.171073 0.673603 0.711670
C3    C     C_R   0.546578 0.171073 0.826397 0.711690
C4    C     C_R   0.453422 0.828927 0.173603 0.711643
C5    C     C_R   0.953424 0.671072 0.173603 0.711666
C6    C     C_R   0.046576 0.328928 0.826397 0.711664
C7    C     C_R   0.046580 0.328927 0.673603 0.711638
C8    C     C_R   0.953419 0.671073 0.326397 0.711687
O17   O     O_3   0.448760 0.710460 0.250000 -0.368902
O18   O     O_3   0.551240 0.289540 0.750000 -0.368892
O19   O     O_3   0.948760 0.789540 0.250000 -0.368886
O20   O     O_3   0.051240 0.210460 0.750000 -0.368896
V1    V     V_3+5 0.173900 0.757330 0.250000 1.629375
V2    V     V_3+5 0.826100 0.242670 0.750000 1.629374
V3    V     V_3+5 0.673900 0.742670 0.250000 1.629374
V4    V     V_3+5 0.326100 0.257330 0.750000 1.629372
C9    C     C_3   0.094222 0.528226 0.541722 0.329122
C10   C     C_3   0.905776 0.471775 0.458279 0.329163
C11   C     C_3   0.905775 0.471773 0.041726 0.329129
C12   C     C_3   0.094204 0.528225 0.958275 0.329172
C13   C     C_3   0.594223 0.971775 0.958276 0.329109
C14   C     C_3   0.405772 0.028224 0.041724 0.329163
C15   C     C_3   0.405786 0.028223 0.458280 0.329114
C16   C     C_3   0.594249 0.971773 0.541721 0.329106
C17   C     C_3   0.903830 0.551147 0.517765 0.348394
C18   C     C_3   0.096170 0.448855 0.482236 0.348386
C19   C     C_3   0.096158 0.448853 0.017759 0.348510
C20   C     C_3   0.903819 0.551148 0.982241 0.348253
C21   C     C_3   0.403834 0.948853 0.982237 0.348356
C22   C     C_3   0.596163 0.051146 0.017762 0.348397
C23   C     C_3   0.596183 0.051146 0.482234 0.348203
C24   C     C_3   0.403853 0.948855 0.517766 0.348560
C25   C     C_1   0.958741 0.625169 0.371834 -0.045330
C26   C     C_1   0.041258 0.374831 0.628166 -0.045337
C27   C     C_1   0.041241 0.374832 0.871832 -0.045297
C28   C     C_1   0.958756 0.625168 0.128168 -0.045409
C29   C     C_1   0.458750 0.874831 0.128166 -0.045339
C30   C     C_1   0.541250 0.125169 0.871833 -0.045326
C31   C     C_1   0.541266 0.125169 0.628166 -0.045386
C32   C     C_1   0.458738 0.874830 0.371834 -0.045257
C33   C     C_3   0.169600 0.518359 0.481168 -0.354277
C34   C     C_3   0.830399 0.481643 0.518833 -0.354278
C35   C     C_3   0.830379 0.481644 0.981174 -0.354392
C36   C     C_3   0.169590 0.518355 0.018826 -0.354096
C37   C     C_3   0.669600 0.981643 0.018829 -0.354252
C38   C     C_3   0.330395 0.018357 0.981171 -0.354268
C39   C     C_3   0.330424 0.018358 0.518835 -0.354093
C40   C     C_3   0.669623 0.981641 0.481165 -0.354459
C41   C     C_3   0.978626 0.541104 0.457333 -0.182480
C42   C     C_3   0.021373 0.458897 0.542668 -0.182469
C43   C     C_3   0.021345 0.458897 0.957331 -0.182485
C44   C     C_3   0.978627 0.541102 0.042669 -0.182462
C45   C     C_3   0.478631 0.958896 0.042667 -0.182474
C46   C     C_3   0.521365 0.041104 0.957332 -0.182468
C47   C     C_3   0.521399 0.041103 0.542667 -0.182457
C48   C     C_3   0.478644 0.958895 0.457333 -0.182476
C49   C     C_1   0.963310 0.587085 0.410172 0.264551
C50   C     C_1   0.036689 0.412916 0.589829 0.264539
C51   C     C_1   0.036662 0.412917 0.910169 0.264617
C52   C     C_1   0.963327 0.587082 0.089831 0.264444
C53   C     C_1   0.463320 0.912915 0.089829 0.264537
C54   C     C_1   0.536678 0.087084 0.910171 0.264546
C55   C     C_1   0.536705 0.087084 0.589828 0.264446
C56   C     C_1   0.463312 0.912915 0.410172 0.264651
S1    S     S_3+6 0.792030 0.622883 0.540969 0.121504
O21   O     O_2   0.937470 0.674405 0.546182 -0.262805
O22   O     O_2   0.645750 0.644234 0.499499 -0.307212
O23   O     O_3   0.692412 0.610003 0.604060 -0.416426
H1    H     H_    0.681443 0.652587 0.621517 0.396635
S2    S     S_3+6 0.207971 0.377121 0.459028 0.121538
O24   O     O_2   0.354276 0.355772 0.500492 -0.307214
O25   O     O_2   0.062532 0.325595 0.453824 -0.262667
O26   O     O_3   0.307557 0.390001 0.395933 -0.416530
H2    H     H_    0.318333 0.347427 0.378449 0.396586
S3    S     S_3+6 0.208002 0.377121 0.040952 0.121615
O27   O     O_2   0.062589 0.325589 0.046164 -0.262774
O28   O     O_2   0.354287 0.355787 0.999474 -0.307177
O29   O     O_3   0.307628 0.389997 0.104041 -0.416362
H3    H     H_    0.318578 0.347414 0.121499 0.396666
S4    S     S_3+6 0.792064 0.622891 0.959035 0.121464
O30   O     O_2   0.645833 0.644270 0.000512 -0.307258
O31   O     O_2   0.937547 0.674398 0.953803 -0.262638
O32   O     O_3   0.692395 0.610007 0.895953 -0.416625
H4    H     H_    0.681776 0.652570 0.878443 0.396579
S5    S     S_3+6 0.292046 0.877116 0.959034 0.121570
O33   O     O_2   0.437497 0.825596 0.953813 -0.262727
O34   O     O_2   0.145781 0.855759 0.000509 -0.307217
O35   O     O_3   0.192412 0.889997 0.895948 -0.416418
H5    H     H_    0.181428 0.847414 0.878492 0.396686
S6    S     S_3+6 0.707956 0.122881 0.040967 0.121538
O36   O     O_2   0.854244 0.144234 0.999497 -0.307213
O37   O     O_2   0.562509 0.174404 0.046180 -0.262704
O38   O     O_3   0.807563 0.110001 0.104058 -0.416486
H6    H     H_    0.818438 0.152580 0.121529 0.396598
S7    S     S_3+6 0.707921 0.122888 0.459018 0.121490
O39   O     O_2   0.562433 0.174395 0.453793 -0.262718
O40   O     O_2   0.854170 0.144267 0.500487 -0.307250
O41   O     O_3   0.807560 0.110004 0.395931 -0.416498
H7    H     H_    0.818533 0.152585 0.378472 0.396667
S8    S     S_3+6 0.292005 0.877127 0.540967 0.121617
O42   O     O_2   0.145667 0.855808 0.499502 -0.307200
O43   O     O_2   0.437402 0.825586 0.546159 -0.262830
O44   O     O_3   0.192445 0.890000 0.604067 -0.416244
H8    H     H_    0.181083 0.847394 0.621464 0.396681
S9    S     S_3+6 0.212042 0.565641 0.599282 0.125900
O45   O     O_2   0.073241 0.576916 0.645960 -0.259070
O46   O     O_2   0.366948 0.523728 0.620674 -0.276955
O47   O     O_3   0.302211 0.635370 0.577703 -0.429067
H9    H     H_    0.313565 0.661462 0.612220 0.399347
S10   S     S_3+6 0.787961 0.434362 0.400717 0.125911
O48   O     O_2   0.633011 0.476265 0.379341 -0.277031
O49   O     O_2   0.926747 0.423110 0.354033 -0.259033
O50   O     O_3   0.697862 0.364619 0.422284 -0.428984
H10   H     H_    0.685967 0.338612 0.387739 0.399366
S11   S     S_3+6 0.788016 0.434341 0.099290 0.126017
O51   O     O_2   0.926865 0.423051 0.145949 -0.259059
O52   O     O_2   0.633136 0.476245 0.120712 -0.276784
O53   O     O_3   0.697827 0.364619 0.077705 -0.429058
H11   H     H_    0.686459 0.338523 0.112219 0.399340
S12   S     S_3+6 0.212040 0.565629 0.900710 0.125848
O54   O     O_2   0.366987 0.523718 0.879338 -0.277103
O55   O     O_2   0.073264 0.576879 0.854025 -0.259055
O56   O     O_3   0.302152 0.635371 0.922271 -0.428984
H12   H     H_    0.314158 0.661361 0.887716 0.399380
S13   S     S_3+6 0.712043 0.934360 0.900713 0.125927
O57   O     O_2   0.573240 0.923084 0.854039 -0.259037
O58   O     O_2   0.866945 0.976273 0.879318 -0.276935
O59   O     O_3   0.802219 0.864632 0.922291 -0.429074
H13   H     H_    0.813594 0.838542 0.887773 0.399358
S14   S     S_3+6 0.287953 0.065639 0.099286 0.125918
O60   O     O_2   0.133023 0.023733 0.120673 -0.276981
O61   O     O_2   0.426745 0.076900 0.145965 -0.259048
O62   O     O_3   0.197822 0.135376 0.077716 -0.428994
H14   H     H_    0.186119 0.161414 0.112259 0.399324
S15   S     S_3+6 0.287898 0.065620 0.400723 0.125790
O63   O     O_2   0.426644 0.076876 0.354028 -0.259067
O64   O     O_2   0.132961 0.023700 0.379363 -0.277118
O65   O     O_3   0.197757 0.135357 0.422292 -0.429075
H15   H     H_    0.186365 0.161437 0.387769 0.399373
S16   S     S_3+6 0.712034 0.934343 0.599280 0.126010
O66   O     O_2   0.866933 0.976245 0.620689 -0.276792
O67   O     O_2   0.573206 0.923062 0.645949 -0.259017
O68   O     O_3   0.802206 0.864618 0.577694 -0.429101
H16   H     H_    0.813224 0.838476 0.612198 0.399282
C57   C     C_2   0.648830 0.456064 0.541025 0.683045
H17   H     H_    0.529723 0.451745 0.513524 0.062307
O69   O     O_2   0.635435 0.438499 0.589764 -0.476708
C58   C     C_2   0.351164 0.543941 0.458978 0.683036
H18   H     H_    0.470264 0.548264 0.486480 0.062345
O70   O     O_2   0.364562 0.561507 0.410239 -0.476708
C59   C     C_2   0.351127 0.543941 0.041023 0.682267
H19   H     H_    0.470133 0.548376 0.013500 0.062689
O71   O     O_2   0.364615 0.561359 0.089794 -0.476575
C60   C     C_2   0.648783 0.456073 0.959000 0.683431
H20   H     H_    0.529655 0.451815 0.986499 0.062151
O72   O     O_2   0.635392 0.438435 0.910284 -0.476765
C61   C     C_2   0.148826 0.043936 0.958983 0.682998
H21   H     H_    0.029729 0.048261 0.986487 0.062339
O73   O     O_2   0.135420 0.061496 0.910245 -0.476699
C62   C     C_2   0.851165 0.956059 0.041014 0.682916
H22   H     H_    0.970246 0.951722 0.013504 0.062391
O74   O     O_2   0.864582 0.938512 0.089757 -0.476685
C63   C     C_2   0.851226 0.956069 0.458986 0.683799
H23   H     H_    0.970420 0.951864 0.486469 0.061968
O75   O     O_2   0.864547 0.938358 0.410282 -0.476833
C64   C     C_2   0.148892 0.043950 0.541038 0.682373
H24   H     H_    0.029854 0.048372 0.513521 0.062637
O76   O     O_2   0.135450 0.061396 0.589811 -0.476591

loop_
_geom_bond_atom_site_label_1
_geom_bond_atom_site_label_2
_ccdc_geom_bond_type
O17   V3    S    
O18   V4    S    
S10   O48   D    
C16   C47   S    
O12   V1    S    
C46   C54   S    
C45   C53   S    
S7    O39   D    
C10   C18   S    
S11   O53   S    
C47   C55   S    
S1    O21   D    
C12   C43   S    
O15   V4    S    
C59   O71   D    
C61   H21   S    
O16   V3    S    
C33   C58   S    
O11   C3    A    
S5    O33   D    
C13   S13   S    
O8    V1    S    
C11   C35   S    
C58   H18   S    
C27   C51   T    
C17   C34   S    
S14   O60   D    
S13   O58   D    
S2    O25   D    
C6    C27   S    
O19   V1    S    
S6    O36   D    
C20   C35   S    
C42   C50   S    
S4    O32   S    
C15   S15   S    
C21   C38   S    
O1    V3    S    
C41   C49   S    
S8    O42   D    
C10   C41   S    
O3    C2    A    
O2    V4    S    
S15   O65   S    
C64   H24   S    
C14   S14   S    
S9    O47   S    
C35   C43   S    
S13   O57   D    
C34   C42   S    
O32   H4    S    
O11   V2    S    
S4    O31   D    
C9    C33   S    
C15   C48   S    
C18   S2    S    
C35   C60   S    
C11   C19   S    
S14   O61   D    
O9    V1    S    
C24   S8    S    
O15   C7    A    
C62   O74   D    
C14   C45   S    
O16   C8    A    
O7    V2    S    
C13   C46   S    
C9    S9    S    
C38   C46   S    
O3    V4    S    
C37   C62   S    
C24   C48   S    
S12   O56   S    
C12   S12   S    
C18   C33   S    
O35   H5    S    
C57   O69   D    
C59   H19   S    
C9    C42   S    
C57   H17   S    
O5    V1    S    
C61   O73   D    
O17   V1    S    
C36   C59   S    
C22   C46   S    
C22   C37   S    
O19   V3    S    
O20   V4    S    
C18   C42   S    
O23   H1    S    
S12   O55   D    
S13   O59   S    
O14   V4    S    
S3    O27   D    
C40   C63   S    
S2    O24   D    
S12   O54   D    
C7    C26   S    
C17   C41   S    
S10   O50   S    
C12   C36   S    
C38   C61   S    
C21   C45   S    
C19   S3    S    
C24   C39   S    
C14   C38   S    
C29   C53   T    
C19   C43   S    
C20   S4    S    
S3    O28   D    
S14   O62   S    
C31   C55   T    
O10   V2    S    
O68   H16   S    
C10   S10   S    
C17   S1    S    
S4    O30   D    
O12   C4    A    
O8    C5    A    
O65   H15   S    
O13   C5    A    
S7    O40   D    
O44   H8    S    
C1    C32   S    
C23   C47   S    
S9    O45   D    
C21   S5    S    
C2    C31   S    
O4    C1    A    
C19   C36   S    
C3    C30   S    
O9    C1    A    
C62   H22   S    
O6    V2    S    
C39   C47   S    
O18   V2    S    
S5    O35   S    
C28   C52   T    
C25   C49   T    
C12   C20   S    
C43   C51   S    
C13   C21   S    
S11   O51   D    
C11   S11   S    
C23   C40   S    
S1    O23   S    
C15   C23   S    
O50   H10   S    
C37   C45   S    
C8    C25   S    
C16   C24   S    
S16   O66   D    
O1    C4    A    
S10   O49   D    
O2    C3    A    
O13   V3    S    
S16   O68   S    
C33   C41   S    
C4    C29   S    
S11   O52   D    
S2    O26   S    
C16   C40   S    
S1    O22   D    
C13   C37   S    
O56   H12   S    
O41   H7    S    
O53   H11   S    
S9    O46   D    
C44   C52   S    
O7    C6    A    
C15   C39   S    
C32   C56   T    
S8    O44   S    
O59   H13   S    
C9    C17   S    
O14   C6    A    
C58   O70   D    
O20   V2    S    
C48   C56   S    
O62   H14   S    
S3    O29   S    
C26   C50   T    
O5    C8    A    
S6    O37   D    
C11   C44   S    
O10   C2    A    
C23   S7    S    
O6    C7    A    
C22   S6    S    
S16   O67   D    
C39   C64   S    
S8    O43   D    
S7    O41   S    
S15   O64   D    
O29   H3    S    
C64   O76   D    
C14   C22   S    
O4    V3    S    
C20   C44   S    
C63   H23   S    
C36   C44   S    
S5    O34   D    
C60   H20   S    
C10   C34   S    
C16   S16   S    
C60   O72   D    
C30   C54   T    
O26   H2    S    
O38   H6    S    
C34   C57   S    
S15   O63   D    
C5    C28   S    
C40   C48   S    
O47   H9    S    
C63   O75   D    
S6    O38   S    
