data_mof_unit_59052.cif
_audit_creation_date              2012-12-10T20:41:50-0500
_audit_creation_method            fapswitch 2.2
_symmetry_space_group_name_H-M    P1
_symmetry_Int_Tables_number       1
_space_group_crystal_system       triclinic
_cell_length_a                    15.098003
_cell_length_b                    15.393927
_cell_length_c                    9.918991
_cell_angle_alpha                 89.996553
_cell_angle_beta                  89.228276
_cell_angle_gamma                 89.998119
_cell_volume                      2305.13852929

loop_
_atom_site_label
_atom_site_type_symbol
_atom_type_description
_atom_site_fract_x
_atom_site_fract_y
_atom_site_fract_z
_atom_type_partial_charge
C1    C     C_R   0.377768 0.881710 0.499591 0.843366
C2    C     C_R   0.378923 0.118730 0.499912 0.855177
C3    C     C_R   0.878940 0.381254 0.499914 0.855084
C4    C     C_R   0.877720 0.618248 0.499588 0.843429
C5    C     C_3   0.288785 0.215969 0.752788 -0.283738
C6    C     C_3   0.264677 0.795228 0.746490 -0.283218
C7    C     C_3   0.764826 0.704881 0.746499 -0.283414
C8    C     C_3   0.788805 0.283979 0.752795 -0.283691
C9    C     C_R   0.427978 0.029256 0.073303 0.225777
C10   C     C_R   0.928011 0.470669 0.073309 0.225693
C11   C     C_R   0.574289 0.982599 0.073250 -0.217864
C12   C     C_R   0.074264 0.517500 0.073243 -0.218097
C13   C     C_R   0.576826 0.985513 0.930051 -0.004883
C14   C     C_R   0.076800 0.514588 0.930048 -0.005070
C15   C     C_R   0.427124 0.026688 0.930820 0.273197
C16   C     C_R   0.927149 0.473256 0.930824 0.273337
C17   C     C_3   0.340544 0.981430 0.935878 -0.560369
C18   C     C_3   0.840546 0.518479 0.935921 -0.560352
C19   C     C_3   0.337772 0.992460 0.086840 -0.494319
C20   C     C_3   0.837770 0.507376 0.086866 -0.494491
C21   C     C_R   0.617610 0.122293 0.499991 0.919777
C22   C     C_R   0.615163 0.875836 0.498903 0.917756
C23   C     C_R   0.115172 0.624156 0.498894 0.917728
C24   C     C_R   0.117601 0.377698 0.499996 0.919682
C25   C     C_R   0.257918 0.194726 0.614707 -0.000963
C26   C     C_R   0.244355 0.815909 0.604113 0.007399
C27   C     C_R   0.744328 0.684080 0.604234 0.007428
C28   C     C_R   0.757962 0.305219 0.614699 -0.000949
C29   C     C_R   0.305198 0.176669 0.497255 -0.058015
C30   C     C_R   0.301406 0.825448 0.493800 -0.053138
C31   C     C_R   0.801267 0.674420 0.493800 -0.053523
C32   C     C_R   0.805247 0.323280 0.497258 -0.058064
C33   C     C_R   0.277801 0.212921 0.375100 -0.197668
C34   C     C_R   0.280117 0.783822 0.372627 -0.190133
C35   C     C_R   0.779838 0.715919 0.372575 -0.190112
C36   C     C_R   0.777869 0.287021 0.375103 -0.197652
C37   C     C_R   0.713266 0.777923 0.372009 -0.202804
C38   C     C_R   0.713611 0.223048 0.376434 -0.214153
C39   C     C_R   0.213552 0.276903 0.376435 -0.214137
C40   C     C_R   0.213515 0.721854 0.372040 -0.202454
C41   C     C_R   0.667100 0.797643 0.492396 -0.066808
C42   C     C_R   0.674495 0.196954 0.499246 -0.074948
C43   C     C_R   0.174460 0.303013 0.499254 -0.074952
C44   C     C_R   0.167177 0.702301 0.492345 -0.066752
C45   C     C_R   0.673807 0.741339 0.602502 0.057506
C46   C     C_R   0.689800 0.245995 0.616491 0.087408
C47   C     C_R   0.189763 0.253965 0.616507 0.087490
C48   C     C_R   0.173786 0.758717 0.602321 0.057188
C49   C     C_3   0.683264 0.761629 0.750076 -0.257404
C50   C     C_3   0.711283 0.220813 0.760226 -0.257427
C51   C     C_3   0.211284 0.279161 0.760215 -0.257489
C52   C     C_3   0.183041 0.738587 0.749978 -0.257420
H1    H     H_    0.310349 0.197203 0.280165 0.165275
H2    H     H_    0.319449 0.793092 0.281638 0.162487
H3    H     H_    0.819060 0.706545 0.281506 0.162379
H4    H     H_    0.810424 0.302738 0.280174 0.165262
H5    H     H_    0.288881 0.041828 0.121850 0.201786
H6    H     H_    0.335757 0.929822 0.142412 0.226633
H7    H     H_    0.835683 0.569982 0.142496 0.226510
H8    H     H_    0.788933 0.457942 0.121823 0.201829
H9    H     H_    0.704195 0.815568 0.280917 0.169123
H10   H     H_    0.699926 0.189932 0.282825 0.166832
H11   H     H_    0.199869 0.310024 0.282826 0.166840
H12   H     H_    0.204535 0.684117 0.281022 0.169316
H13   H     H_    0.697804 0.830556 0.768465 0.215187
H14   H     H_    0.732099 0.152129 0.769513 0.223137
H15   H     H_    0.232126 0.347842 0.769435 0.223159
H16   H     H_    0.197459 0.669667 0.768579 0.215055
H17   H     H_    0.283961 0.159332 0.821770 0.141220
H18   H     H_    0.257177 0.853062 0.809687 0.139735
H19   H     H_    0.757339 0.647113 0.809840 0.139761
H20   H     H_    0.783987 0.340620 0.821756 0.141240
H21   H     H_    0.633000 0.968830 0.130765 0.203776
H22   H     H_    0.132967 0.531329 0.130743 0.203759
H23   H     H_    0.286643 0.015106 0.881785 0.196674
H24   H     H_    0.353645 0.913295 0.910470 0.245860
H25   H     H_    0.853630 0.586633 0.910596 0.245616
H26   H     H_    0.786660 0.484824 0.881782 0.196740
N1    N     N_R   0.499140 0.000000 0.142800 -0.127390
N2    N     N_R   0.999140 0.500000 0.142800 -0.127416
N3    N     N_R   0.499160 0.000000 0.857150 -0.123308
N4    N     N_R   0.999160 0.500000 0.857150 -0.123259
O1    O     O_R   0.408400 0.908380 0.614690 -0.611446
O2    O     O_R   0.408400 0.091620 0.614690 -0.610622
O3    O     O_R   0.908400 0.408380 0.614690 -0.610633
O4    O     O_R   0.908400 0.591620 0.614690 -0.611123
O5    O     O_R   0.408370 0.908370 0.385350 -0.634745
O6    O     O_R   0.408370 0.091630 0.385350 -0.635404
O7    O     O_R   0.908370 0.408370 0.385350 -0.635420
O8    O     O_R   0.908370 0.591630 0.385350 -0.634745
O9    O     O_R   0.591610 0.091610 0.614650 -0.553639
O10   O     O_R   0.591610 0.908390 0.614650 -0.577793
O11   O     O_R   0.091610 0.591610 0.614650 -0.577809
O12   O     O_R   0.091610 0.408390 0.614650 -0.553640
O13   O     O_R   0.591590 0.091600 0.385310 -0.649250
O14   O     O_R   0.591590 0.908400 0.385310 -0.641219
O15   O     O_R   0.091590 0.591600 0.385310 -0.641154
O16   O     O_R   0.091590 0.408400 0.385310 -0.649289
Zn1   Zn    Zn3+2 0.500010 0.000000 0.653130 1.027127
Zn2   Zn    Zn3+2 0.000010 0.500000 0.653130 1.027250
Zn3   Zn    Zn3+2 0.499980 0.000000 0.346870 0.933690
Zn4   Zn    Zn3+2 0.999980 0.500000 0.346870 0.933641
C53   C     C_R   0.613907 0.723643 0.845832 0.192437
C54   C     C_R   0.569533 0.645566 0.816750 -0.135920
C55   C     C_R   0.511987 0.608128 0.911924 -0.133422
C56   C     C_R   0.500226 0.646247 0.038620 -0.054589
C57   C     C_R   0.546366 0.721893 0.070544 -0.102436
C58   C     C_R   0.603386 0.759827 0.975222 -0.127661
H27   H     H_    0.579055 0.613522 0.720533 0.114342
H28   H     H_    0.475005 0.550636 0.885875 0.119693
H29   H     H_    0.455448 0.617196 0.111853 0.128018
H30   H     H_    0.538546 0.750837 0.169478 0.135299
H31   H     H_    0.641365 0.815856 0.004235 0.149906
C59   C     C_R   0.644065 0.249145 0.866881 0.200036
C60   C     C_R   0.602909 0.331373 0.862998 -0.125648
C61   C     C_R   0.546343 0.357765 0.968132 -0.103323
C62   C     C_R   0.529274 0.302635 0.076996 -0.072299
C63   C     C_R   0.570424 0.221720 0.082577 -0.141510
C64   C     C_R   0.629172 0.196086 0.979999 -0.133262
H32   H     H_    0.615170 0.375410 0.779743 0.106203
H33   H     H_    0.514841 0.420459 0.964901 0.117144
H34   H     H_    0.484560 0.322782 0.157287 0.125474
H35   H     H_    0.557699 0.179431 0.167502 0.161858
H36   H     H_    0.664902 0.135888 0.990663 0.117306
C65   C     C_R   0.144080 0.250886 0.866930 0.200153
C66   C     C_R   0.102965 0.168635 0.863235 -0.125648
C67   C     C_R   0.046443 0.142298 0.968461 -0.103397
C68   C     C_R   0.029352 0.197515 0.077202 -0.072344
C69   C     C_R   0.070447 0.278457 0.082580 -0.141703
C70   C     C_R   0.129169 0.304032 0.979934 -0.133050
H37   H     H_    0.115242 0.124535 0.780073 0.106197
H38   H     H_    0.015006 0.079572 0.965430 0.117222
H39   H     H_    0.984672 0.177408 0.157562 0.125514
H40   H     H_    0.057711 0.320810 0.167415 0.161945
H41   H     H_    0.164875 0.364250 0.990460 0.117155
C71   C     C_R   0.113602 0.776750 0.845411 0.192780
C72   C     C_R   0.069449 0.854910 0.816050 -0.136666
C73   C     C_R   0.011725 0.892441 0.910872 -0.134011
C74   C     C_R   0.999623 0.854373 0.037549 -0.055593
C75   C     C_R   0.045574 0.778663 0.069784 -0.101933
C76   C     C_R   0.102723 0.740597 0.974767 -0.126058
H42   H     H_    0.079242 0.886916 0.719852 0.114477
H43   H     H_    0.974882 0.949974 0.884549 0.120259
H44   H     H_    0.954720 0.883509 0.110522 0.128280
H45   H     H_    0.037484 0.749753 0.168704 0.135079
H46   H     H_    0.140501 0.684473 0.003981 0.149547
C77   C     C_2   0.378092 0.259245 0.753662 0.958274
O17   O     O_2   0.437234 0.226850 0.819483 -0.630053
O18   O     O_R   0.394020 0.333873 0.676520 -0.804678
H47   H     H_    0.457255 0.355231 0.683232 0.327608
C78   C     C_2   0.348834 0.743628 0.758005 0.964901
O19   O     O_2   0.406420 0.767171 0.834874 -0.638588
O20   O     O_R   0.361081 0.670445 0.675974 -0.803772
H48   H     H_    0.422099 0.644287 0.681778 0.332613
C79   C     C_2   0.849086 0.756346 0.757577 0.964906
O21   O     O_2   0.906895 0.732580 0.833897 -0.638374
O22   O     O_R   0.861228 0.829558 0.675563 -0.803780
H49   H     H_    0.922449 0.855348 0.680481 0.332722
C80   C     C_2   0.878104 0.240677 0.753710 0.958213
O23   O     O_2   0.937261 0.273095 0.819460 -0.630052
O24   O     O_R   0.894007 0.165988 0.676712 -0.804632
H50   H     H_    0.957234 0.144609 0.683479 0.327597
C81   C     C_2   0.667974 0.977757 0.870597 0.827468
O25   O     O_2   0.685323 0.001858 0.756991 -0.575689
O26   O     O_R   0.737433 0.946935 0.949893 -0.874666
H51   H     H_    0.796545 0.946219 0.900117 0.355575
C82   C     C_2   0.167925 0.522448 0.870583 0.827760
O27   O     O_2   0.185343 0.498120 0.757115 -0.575829
O28   O     O_R   0.237287 0.553614 0.949742 -0.874524
H52   H     H_    0.296412 0.554344 0.900000 0.355606

loop_
_geom_bond_atom_site_label_1
_geom_bond_atom_site_label_2
_ccdc_geom_bond_type
C1    O5    A    
C55   H28   S    
O26   H51   S    
C5    C77   S    
C12   H22   S    
O7    Zn4   S    
C79   O22   S    
C57   H30   S    
C55   C56   A    
C2    O2    A    
C77   O17   D    
C72   H42   S    
C68   C69   A    
O24   H50   S    
C15   N3    A    
C64   H36   S    
C19   H5    S    
C81   O26   S    
C28   C46   A    
C66   C67   A    
C49   H13   S    
C2    C29   S    
C34   C40   A    
C32   C36   A    
C35   C37   A    
C38   C42   A    
C73   H43   S    
C7    H19   S    
C54   H27   S    
C22   C41   S    
C3    O3    A    
C56   C57   A    
C60   C61   A    
C13   N3    A    
C7    C27   S    
C61   C62   A    
C15   C17   S    
C9    N1    A    
C67   H38   S    
O8    Zn4   S    
C5    H17   S    
O5    Zn3   S    
C65   C70   A    
C9    C19   S    
O22   H49   S    
C81   O25   D    
C29   C33   A    
C10   C20   S    
C17   H24   S    
C78   O19   D    
C80   O24   S    
C2    O6    A    
C53   C58   A    
O12   Zn2   S    
C20   H8    S    
O4    Zn2   S    
C25   C47   A    
C40   C44   A    
C18   C20   S    
O15   Zn4   S    
C52   H16   S    
C26   C48   A    
C27   C45   A    
O20   H48   S    
O1    Zn1   S    
O14   Zn3   S    
C63   C64   A    
C25   C29   A    
N4    Zn2   S    
C54   C55   A    
C13   C81   S    
C4    O8    A    
C56   H29   S    
C19   H6    S    
C33   H1    S    
C8    H20   S    
C61   H33   S    
C30   C34   A    
C27   C31   A    
C51   C65   S    
O28   H52   S    
C28   C32   A    
C75   C76   A    
C7    C49   S    
C82   O28   S    
C11   H21   S    
C5    C51   S    
C82   O27   D    
C10   N2    A    
C47   C51   S    
C21   O13   A    
O16   Zn4   S    
C35   H3    S    
C23   C44   S    
C23   O11   A    
N2    Zn4   S    
C50   C59   S    
C58   H31   S    
C62   H34   S    
C68   H39   S    
C71   C76   A    
C36   H4    S    
C24   O12   A    
C33   C39   A    
C74   H44   S    
C80   O23   D    
C45   C49   S    
C57   C58   A    
C16   N4    A    
C51   H15   S    
C20   H7    S    
C50   H14   S    
O11   Zn2   S    
C11   N1    A    
C76   H46   S    
C5    C25   S    
C6    C78   S    
C18   H26   S    
C23   O15   A    
C70   H41   S    
C12   C14   A    
C34   H2    S    
C42   C46   A    
C65   C66   A    
C8    C28   S    
C24   O16   A    
C14   N4    A    
C67   C68   A    
C8    C50   S    
C79   O21   D    
C4    O4    A    
C69   C70   A    
C21   O9    A    
C6    H18   S    
C22   O10   A    
C21   C42   S    
C77   O18   S    
O2    Zn1   S    
C22   O14   A    
O6    Zn3   S    
C59   C64   A    
C71   C72   A    
C75   H45   S    
C49   C53   S    
C37   H9    S    
C74   C75   A    
C59   C60   A    
C1    O1    A    
C39   H11   S    
C72   C73   A    
C46   C50   S    
C40   H12   S    
N3    Zn1   S    
C3    O7    A    
C6    C52   S    
C36   C38   A    
C9    C15   A    
O3    Zn2   S    
C10   C16   A    
O18   H47   S    
C11   C13   A    
C6    C26   S    
C66   H37   S    
C18   H25   S    
C52   C71   S    
C12   N2    A    
C1    C30   S    
C17   C19   S    
C31   C35   A    
C63   H35   S    
C78   O20   S    
C37   C41   A    
C3    C32   S    
C4    C31   S    
C73   C74   A    
C69   H40   S    
C44   C48   A    
C48   C52   S    
C7    C79   S    
C39   C43   A    
C16   C18   S    
C60   H32   S    
C53   C54   A    
C17   H23   S    
C24   C43   S    
C41   C45   A    
N1    Zn3   S    
O9    Zn1   S    
C14   C82   S    
C62   C63   A    
C8    C80   S    
C43   C47   A    
O13   Zn3   S    
O10   Zn1   S    
C38   H10   S    
C26   C30   A    
