data_mof_unit_50272.cif
_audit_creation_date              2012-12-10T17:02:31-0500
_audit_creation_method            fapswitch 2.2
_symmetry_space_group_name_H-M    P1
_symmetry_Int_Tables_number       1
_space_group_crystal_system       triclinic
_cell_length_a                    10.878189
_cell_length_b                    11.133518
_cell_length_c                    9.897917
_cell_angle_alpha                 111.627245
_cell_angle_beta                  100.350532
_cell_angle_gamma                 90.975109
_cell_volume                      1091.6854599

loop_
_atom_site_label
_atom_site_type_symbol
_atom_type_description
_atom_site_fract_x
_atom_site_fract_y
_atom_site_fract_z
_atom_type_partial_charge
C1    C     C_R   0.490997 0.253771 0.439470 0.800678
C2    C     C_R   0.509014 0.746231 0.560530 0.800622
C3    C     C_2   0.486458 0.113370 0.401612 -0.206483
C4    C     C_2   0.513585 0.886634 0.598372 -0.206691
C5    C     C_2   0.494375 0.068504 0.511445 -0.173750
C6    C     C_2   0.505482 0.931474 0.488511 -0.174162
C7    C     C_2   0.513390 0.505866 0.081307 0.529481
C8    C     C_2   0.486894 0.493748 0.918567 0.528668
C9    C     C_R   0.262587 0.512673 0.500935 0.802887
C10   C     C_R   0.737436 0.487420 0.499094 0.803085
C11   C     C_R   0.163313 0.653277 0.768598 -0.198164
C12   C     C_R   0.836801 0.347146 0.231436 -0.197425
C13   C     C_R   0.128235 0.678812 0.904248 -0.215209
C14   C     C_R   0.871807 0.321916 0.095804 -0.215164
C15   C     C_R   0.016507 0.620387 0.908991 0.732518
C16   C     C_R   0.983453 0.380545 0.091158 0.732882
C17   C     C_R   0.935575 0.543809 0.777404 -0.102294
C18   C     C_R   0.064424 0.456975 0.222805 -0.102262
C19   C     C_R   0.962711 0.528860 0.637464 -0.030707
C20   C     C_R   0.037329 0.471623 0.362666 -0.031023
C21   C     C_R   0.085269 0.569521 0.634415 0.091852
C22   C     C_R   0.914803 0.430860 0.365679 0.091641
C23   C     C_R   0.873244 0.473616 0.501647 -0.145829
C24   C     C_R   0.126815 0.526689 0.498451 -0.145899
Cu1   Cu    Cu3+1 0.521920 0.521810 0.644910 1.055860
Cu2   Cu    Cu3+1 0.478080 0.478190 0.355090 1.055872
H1    H     H_    0.250775 0.701659 0.769583 0.183961
H2    H     H_    0.749422 0.298596 0.230375 0.184132
H3    H     H_    0.189138 0.741080 0.006186 0.191922
H4    H     H_    0.810908 0.259730 0.993816 0.191684
H5    H     H_    0.855245 0.492550 0.788179 0.199641
H6    H     H_    0.144777 0.508351 0.212201 0.199651
H7    H     H_    0.504160 0.863244 0.376799 0.240626
H8    H     H_    0.495524 0.136707 0.623139 0.240593
N1    N     N_2   0.445130 0.445420 0.137360 -0.311929
N2    N     N_2   0.554870 0.554580 0.862640 -0.311872
O1    O     O_R   0.511700 0.332340 0.577400 -0.538835
O2    O     O_R   0.488300 0.667660 0.422600 -0.539278
O3    O     O_R   0.474680 0.295500 0.332650 -0.575238
O4    O     O_R   0.525320 0.704500 0.667350 -0.574809
O5    O     O_R   0.338170 0.518410 0.622370 -0.523401
O6    O     O_R   0.661830 0.481590 0.377630 -0.523068
O7    O     O_R   0.301150 0.481570 0.377630 -0.589339
O8    O     O_R   0.698850 0.518430 0.622370 -0.589270
F1    F     F_    0.014521 0.361543 0.958591 -0.646286
F2    F     F_    0.985363 0.639678 0.041592 -0.646405
C25   C     C_2   0.528038 0.972650 0.757130 0.910500
O9    O     O_2   0.464740 0.946415 0.834603 -0.571240
O10   O     O_R   0.618360 0.078965 0.819791 -0.745865
H9    H     H_    0.621797 0.126244 0.929851 0.359123
C26   C     C_2   0.472288 0.027391 0.242856 0.909748
O11   O     O_2   0.535849 0.053663 0.165605 -0.571043
O12   O     O_R   0.381936 0.921084 0.179922 -0.746071
H10   H     H_    0.378686 0.873846 0.069878 0.358961
F3    F     F_    0.387728 0.412888 0.823198 -0.633292
F4    F     F_    0.612928 0.586223 0.176470 -0.633011
C27   C     C_2   0.632553 0.670427 0.955238 1.050621
O13   O     O_2   0.729644 0.694907 0.921188 -0.556704
O14   O     O_R   0.592805 0.762247 0.075586 -0.743685
H11   H     H_    0.657419 0.839359 0.131874 0.359009
C28   C     C_2   0.367210 0.329769 0.044763 1.051257
O15   O     O_2   0.269430 0.306177 0.077951 -0.557136
O16   O     O_R   0.407341 0.237248 0.925288 -0.743577
H12   H     H_    0.342508 0.160371 0.868730 0.358943

loop_
_geom_bond_atom_site_label_1
_geom_bond_atom_site_label_2
_ccdc_geom_bond_type
C16   F1    S    
C19   C23   A    
C9    C24   S    
C2    O4    A    
C10   C23   S    
C10   O6    A    
C2    O2    A    
C9    O5    A    
C25   O9    D    
C6    H7    S    
C11   H1    S    
Cu1   O1    S    
C5    H8    S    
C20   C24   A    
C28   O16   S    
C7    C8    S    
C25   O10   S    
C16   C18   A    
O12   H10   S    
C11   C13   A    
C27   O13   D    
C28   O15   D    
C7    F4    S    
C14   H4    S    
C2    C4    S    
C8    F3    S    
C13   H3    S    
C19   C21   A    
C12   C14   A    
Cu2   O7    S    
O10   H9    S    
C18   C20   A    
C13   C15   A    
Cu1   O4    S    
Cu1   O8    S    
C5    C6    S    
C17   H5    S    
C14   C16   A    
Cu2   O3    S    
C9    O7    A    
C27   O14   S    
C1    O3    A    
Cu1   N2    S    
C10   O8    A    
O16   H12   S    
C12   C22   A    
Cu2   N1    S    
O14   H11   S    
C18   H6    S    
C26   O12   S    
Cu2   O6    S    
C4    C6    D    
N2    C27   S    
C8    N2    D    
C21   C24   A    
Cu1   O5    S    
C1    C3    S    
C15   C17   A    
C3    C26   S    
C22   C23   A    
C17   C19   A    
C15   F2    S    
C12   H2    S    
Cu1   Cu2   S    
N1    C28   S    
C7    N1    D    
C11   C21   A    
Cu2   O2    S    
C26   O11   D    
C20   C22   A    
C1    O1    A    
C3    C5    D    
C4    C25   S    
