data_mof_unit_35684.cif
_audit_creation_date              2012-12-10T17:09:54-0500
_audit_creation_method            fapswitch 2.2
_symmetry_space_group_name_H-M    P1
_symmetry_Int_Tables_number       1
_space_group_crystal_system       triclinic
_cell_length_a                    10.885849
_cell_length_b                    13.035372
_cell_length_c                    11.856499
_cell_angle_alpha                 98.766492
_cell_angle_beta                  96.342484
_cell_angle_gamma                 94.207288
_cell_volume                      1645.63497247

loop_
_atom_site_label
_atom_site_type_symbol
_atom_type_description
_atom_site_fract_x
_atom_site_fract_y
_atom_site_fract_z
_atom_type_partial_charge
C1    C     C_R   0.502787 0.299504 0.480164 0.902322
C2    C     C_R   0.079165 0.553548 0.599329 -0.076344
C3    C     C_R   0.128554 0.519785 0.495588 -0.106302
C4    C     C_R   0.045375 0.481941 0.395495 0.372834
C5    C     C_R   0.919504 0.469839 0.402084 -0.237122
C6    C     C_R   0.872729 0.486832 0.507809 -0.102275
C7    C     C_R   0.504985 0.812301 0.534983 -0.163731
C8    C     C_R   0.502673 0.185490 0.472206 -0.301150
C9    C     C_R   0.410747 0.017525 0.369694 0.339631
C10   C     C_R   0.455368 0.120814 0.368464 0.310599
C11   C     C_R   0.545157 0.138773 0.567911 0.330809
C12   C     C_R   0.262828 0.507698 0.498374 0.906730
C13   C     C_R   0.537004 0.029315 0.556142 -0.154958
C14   C     C_R   0.454542 0.969795 0.463651 -0.182422
C15   C     C_R   0.427136 0.862661 0.463937 0.415372
C16   C     C_R   0.593709 0.869244 0.619143 -0.349697
C17   C     C_R   0.609363 0.976942 0.632303 0.516604
C18   C     C_R   0.390101 0.392299 0.020161 0.339170
C19   C     C_R   0.396152 0.406113 0.140853 0.435036
C20   C     C_R   0.553776 0.546025 0.159357 0.610502
C21   C     C_R   0.544022 0.541532 0.035084 -0.257973
C22   C     C_R   0.459148 0.463174 0.964973 -0.313415
C23   C     C_R   0.499446 0.699691 0.520938 0.905113
C24   C     C_R   0.447591 0.456596 0.841952 0.572576
C25   C     C_R   0.608626 0.592322 0.855632 0.425256
C26   C     C_R   0.616620 0.611338 0.978533 0.381548
C27   C     C_R   0.737567 0.493738 0.502449 0.812864
C28   C     C_R   0.145309 0.624617 0.691775 0.402482
C29   C     C_R   0.105227 0.635385 0.799890 -0.389684
C30   C     C_R   0.999590 0.574131 0.819700 0.455989
C31   C     C_R   0.928348 0.511367 0.723926 0.427566
C32   C     C_R   0.957369 0.515771 0.610677 -0.115289
Cu1   Cu    Cu3+1 0.509250 0.507730 0.615930 1.116108
Cu2   Cu    Cu3+1 0.490750 0.492270 0.384070 1.057902
H1    H     H_    0.159854 0.690751 0.867120 0.167605
H2    H     H_    0.857627 0.446511 0.322648 0.204673
H3    H     H_    0.653417 0.830002 0.674433 0.215686
N1    N     N_R   0.523180 0.519350 0.790130 -0.238949
N2    N     N_R   0.476820 0.480650 0.209890 -0.293517
O1    O     O_R   0.506570 0.354460 0.582000 -0.494979
O2    O     O_R   0.490940 0.341410 0.386200 -0.523051
O3    O     O_R   0.327470 0.506530 0.597920 -0.541146
O4    O     O_R   0.311840 0.493480 0.402120 -0.503517
O5    O     O_R   0.509060 0.658590 0.613800 -0.519873
O6    O     O_R   0.493430 0.645540 0.418000 -0.592241
O7    O     O_R   0.688160 0.506520 0.597880 -0.498839
O8    O     O_R   0.672530 0.493470 0.402080 -0.581639
Cl1   Cl    Cl    0.088632 0.454773 0.256852 -0.561366
O9    O     O_3   0.701243 0.028508 0.715810 -0.529070
C33   C     C_3   0.815258 0.030810 0.669244 0.063964
H4    H     H_    0.809624 0.070866 0.592429 0.149032
H5    H     H_    0.842495 0.950439 0.644773 0.132439
C34   C     C_3   0.916150 0.090623 0.759250 -0.629066
H6    H     H_    0.925157 0.051919 0.836635 0.229074
H7    H     H_    0.006343 0.092772 0.723664 0.193820
H8    H     H_    0.892737 0.171811 0.784370 0.301889
O10   O     O_3   0.456544 0.156490 0.264679 -0.531052
C35   C     C_3   0.560612 0.122342 0.212047 0.091515
H9    H     H_    0.527376 0.081607 0.123535 0.163776
H10   H     H_    0.613262 0.065997 0.255893 0.110621
C36   C     C_3   0.650469 0.215764 0.205008 -0.745520
H11   H     H_    0.602211 0.272588 0.159569 0.238208
H12   H     H_    0.689767 0.254630 0.292836 0.237673
H13   H     H_    0.727686 0.189425 0.157271 0.216582
Cl2   Cl    Cl    0.604247 0.214580 0.702939 -0.502633
Cl3   Cl    Cl    0.333745 0.368689 0.751832 -0.532753
Cl4   Cl    Cl    0.714046 0.657850 0.782992 -0.661165
O11   O     O_3   0.313305 0.308798 0.957707 -0.491206
C37   C     C_3   0.381047 0.220014 0.945510 0.131918
H14   H     H_    0.409069 0.197224 0.030320 0.161153
H15   H     H_    0.465639 0.234580 0.903313 0.195178
C38   C     C_3   0.299808 0.128740 0.872078 -0.660016
H16   H     H_    0.271550 0.147354 0.785161 0.274394
H17   H     H_    0.352250 0.058594 0.863098 0.203213
H18   H     H_    0.215461 0.111486 0.913247 0.241460
O12   O     O_3   0.699837 0.691266 0.044657 -0.569382
C39   C     C_3   0.704999 0.787825 0.001048 0.113817
H19   H     H_    0.617239 0.798504 0.947836 0.164301
H20   H     H_    0.785720 0.792362 0.952220 0.228294
C40   C     C_3   0.735261 0.883163 0.094998 -0.930809
H21   H     H_    0.820248 0.874992 0.152714 0.243733
H22   H     H_    0.753254 0.953420 0.054576 0.237195
H23   H     H_    0.656683 0.897401 0.144828 0.242474
Cl5   Cl    Cl    0.301522 0.319107 0.200552 -0.468651
O13   O     O_3   0.654438 0.603460 0.228341 -0.554041
C41   C     C_3   0.639037 0.710843 0.263228 0.179655
H24   H     H_    0.656857 0.729998 0.357793 0.123272
H25   H     H_    0.718906 0.757395 0.242043 0.181882
C42   C     C_3   0.516534 0.752169 0.217740 -0.785522
H26   H     H_    0.434369 0.705716 0.236431 0.286630
H27   H     H_    0.515995 0.834113 0.258505 0.235987
H28   H     H_    0.506717 0.750414 0.123712 0.238991
Cl6   Cl    Cl    0.260811 0.719040 0.671191 -0.607001
O14   O     O_3   0.957550 0.574330 0.927364 -0.508107
C43   C     C_3   0.032436 0.640760 0.018599 0.092131
H29   H     H_    0.038674 0.722579 0.001922 0.123506
H30   H     H_    0.126459 0.612680 0.030761 0.168935
C44   C     C_3   0.975060 0.641126 0.130154 -0.590756
H31   H     H_    0.922945 0.564887 0.131238 0.304179
H32   H     H_    0.048953 0.658601 0.204584 0.230700
H33   H     H_    0.911441 0.703237 0.140670 0.234722
Cl7   Cl    Cl    0.826905 0.409133 0.752070 -0.484130
Cl8   Cl    Cl    0.288431 0.793235 0.389039 -0.607525
O15   O     O_3   0.347936 0.958690 0.270068 -0.556821
C45   C     C_3   0.229733 0.994834 0.247564 0.182250
H34   H     H_    0.237477 0.073891 0.223215 0.199240
H35   H     H_    0.177748 0.996614 0.323690 0.153825
C46   C     C_3   0.155164 0.921306 0.147600 -0.797495
H36   H     H_    0.144265 0.841833 0.169913 0.269492
H37   H     H_    0.061786 0.948396 0.129012 0.198639
H38   H     H_    0.203575 0.918748 0.069638 0.247462

loop_
_geom_bond_atom_site_label_1
_geom_bond_atom_site_label_2
_ccdc_geom_bond_type
C6    C32   A    
C21   C26   A    
C23   O6    A    
C36   H13   S    
C1    C8    S    
C43   H29   S    
C25   Cl4   S    
C43   C44   S    
C39   H19   S    
C45   H35   S    
Cu1   O3    S    
C28   C29   A    
C12   O4    A    
C40   H23   S    
C30   C31   A    
C40   H21   S    
C41   H25   S    
C39   C40   S    
C16   C17   A    
C35   H10   S    
C5    H2    S    
C19   Cl5   S    
C46   H36   S    
C2    C32   A    
C18   C19   A    
C37   H15   S    
C12   O3    A    
C3    C12   S    
C1    O1    A    
C6    C27   S    
O11   C37   S    
C33   H5    S    
C42   H27   S    
C9    C10   A    
C36   H11   S    
C24   Cl3   S    
C16   H3    S    
C35   C36   S    
C39   H20   S    
C21   C22   A    
Cu1   O7    S    
C37   H14   S    
Cu2   O2    S    
C38   H18   S    
O15   C45   S    
Cu1   Cu2   S    
C26   O12   S    
C34   H7    S    
C45   C46   S    
Cu1   O1    S    
Cu2   N2    S    
C33   C34   S    
C31   Cl7   S    
C10   O10   S    
O12   C39   S    
C38   H17   S    
C17   O9    S    
C20   N2    A    
C41   H24   S    
C38   H16   S    
C35   H9    S    
O13   C41   S    
C23   O5    A    
C28   Cl6   S    
C37   C38   S    
C9    C14   A    
C29   C30   A    
C25   N1    A    
C24   N1    A    
C31   C32   A    
C8    C11   A    
C20   O13   S    
C36   H12   S    
C33   H4    S    
Cu2   O6    S    
C42   H28   S    
C19   N2    A    
C27   O7    A    
C1    O2    A    
C7    C16   A    
C44   H31   S    
C44   H32   S    
C22   C24   A    
C3    C4    A    
C4    Cl1   S    
C34   H8    S    
C27   O8    A    
C18   C22   A    
Cu1   O5    S    
Cu2   O4    S    
C4    C5    A    
C41   C42   S    
C43   H30   S    
C34   H6    S    
C44   H33   S    
C45   H34   S    
C29   H1    S    
Cu1   N1    S    
C46   H38   S    
C13   C17   A    
C2    C3    A    
C25   C26   A    
C30   O14   S    
C11   C13   A    
O10   C35   S    
C5    C6    A    
C9    O15   S    
C7    C23   S    
C7    C15   A    
C40   H22   S    
C46   H37   S    
O14   C43   S    
C20   C21   A    
C8    C10   A    
O9    C33   S    
C14   C15   A    
C2    C28   A    
Cu2   O8    S    
C15   Cl8   S    
C42   H26   S    
C13   C14   A    
C18   O11   S    
C11   Cl2   S    
