data_mof_unit_44337.cif
_audit_creation_date              2012-12-10T19:46:46-0500
_audit_creation_method            fapswitch 2.2
_symmetry_space_group_name_H-M    P1
_symmetry_Int_Tables_number       1
_space_group_crystal_system       triclinic
_cell_length_a                    28.280166
_cell_length_b                    18.235618
_cell_length_c                    21.818543
_cell_angle_alpha                 90.001157
_cell_angle_beta                  139.826839
_cell_angle_gamma                 89.999128
_cell_volume                      7258.6376242

loop_
_atom_site_label
_atom_site_type_symbol
_atom_type_description
_atom_site_fract_x
_atom_site_fract_y
_atom_site_fract_z
_atom_type_partial_charge
C1    C     C_R   0.858739 0.500080 0.857266 0.979272
C2    C     C_R   0.141261 0.500080 0.142732 0.979288
C3    C     C_R   0.358739 0.000080 0.857265 0.979287
C4    C     C_R   0.641261 0.000080 0.142731 0.979289
C5    C     C_R   0.056103 0.525595 0.838753 0.376026
C6    C     C_R   0.943912 0.525619 0.161263 0.376043
C7    C     C_R   0.556107 0.025589 0.838757 0.376026
C8    C     C_R   0.443928 0.025647 0.161280 0.376056
C9    C     C_R   0.052360 0.534665 0.771832 0.174826
C10   C     C_R   0.947654 0.534686 0.228183 0.174844
C11   C     C_R   0.552364 0.034660 0.771837 0.174842
C12   C     C_R   0.447673 0.034713 0.228203 0.174823
C13   C     C_R   0.997617 0.497685 0.684613 -0.169260
C14   C     C_R   0.002379 0.497684 0.315385 -0.169239
C15   C     C_R   0.497617 0.997686 0.684613 -0.169287
C16   C     C_R   0.502377 0.997682 0.315384 -0.169172
C17   C     C_1   0.782214 0.500418 0.780860 -0.068644
C18   C     C_1   0.217786 0.500419 0.219138 -0.068658
C19   C     C_1   0.282214 0.000418 0.780859 -0.068666
C20   C     C_1   0.717786 0.000419 0.219137 -0.068645
C21   C     C_1   0.717374 0.500668 0.716520 -0.093842
C22   C     C_1   0.282626 0.500668 0.283479 -0.093849
C23   C     C_1   0.217374 0.000667 0.716519 -0.093856
C24   C     C_1   0.782626 0.000669 0.283478 -0.093902
C25   C     C_R   0.000000 0.641305 0.500000 0.912853
C26   C     C_R   1.000000 0.358706 0.500000 1.050343
C27   C     C_R   0.500000 0.141304 0.500000 0.912863
C28   C     C_R   0.499999 0.858707 0.500002 1.050379
C29   C     C_R   0.999406 0.500380 0.619942 0.957139
C30   C     C_R   0.000593 0.500380 0.380058 0.957138
C31   C     C_R   0.499406 0.000380 0.619942 0.957117
C32   C     C_R   0.500593 0.000380 0.380058 0.957154
C33   C     C_R   0.499998 0.640833 0.499999 0.890056
C34   C     C_R   0.500000 0.359169 0.500000 0.880075
C35   C     C_R   0.999999 0.140833 0.500000 0.890086
C36   C     C_R   0.000000 0.859169 0.500000 0.880090
C37   C     C_R   0.640845 0.500405 0.640580 0.884850
C38   C     C_R   0.359155 0.500405 0.359420 0.884870
C39   C     C_R   0.140845 0.000405 0.640580 0.884865
C40   C     C_R   0.859155 0.000406 0.359420 0.884867
C41   C     C_1   0.000000 0.717814 0.499999 -0.109915
C42   C     C_1   0.999999 0.282157 0.500001 -0.038022
C43   C     C_1   0.500000 0.217814 0.499999 -0.109900
C44   C     C_1   0.499997 0.782157 0.500002 -0.037835
C45   C     C_R   0.994552 0.499282 0.874608 0.971958
C46   C     C_R   0.005456 0.499283 0.125399 0.971976
C47   C     C_R   0.494553 0.999282 0.874609 0.971962
C48   C     C_R   0.505460 0.999283 0.125405 0.971965
C49   C     C_1   0.500000 0.282656 0.499999 -0.125715
C50   C     C_1   0.499996 0.717330 0.500000 -0.137437
C51   C     C_1   0.000000 0.782656 0.499999 -0.125730
C52   C     C_1   0.999999 0.217330 0.500000 -0.137417
C53   C     C_R   0.870843 0.433040 0.681625 0.125212
C54   C     C_R   0.129157 0.433018 0.318387 0.125292
C55   C     C_R   0.370841 0.933049 0.681627 0.125203
C56   C     C_R   0.629141 0.932969 0.318383 0.125401
C57   C     C_R   0.806175 0.427464 0.582071 0.300185
C58   C     C_R   0.193808 0.427404 0.417942 0.300212
C59   C     C_R   0.306168 0.927485 0.582072 0.300118
C60   C     C_R   0.693777 0.927307 0.417937 0.300328
C61   C     C_R   0.813998 0.423505 0.525444 0.233023
C62   C     C_R   0.185957 0.423400 0.474537 0.233043
C63   C     C_R   0.313983 0.923542 0.525435 0.233000
C64   C     C_R   0.685904 0.923264 0.474508 0.233097
C65   C     C_R   0.885216 0.421451 0.572237 0.334560
C66   C     C_R   0.114726 0.421378 0.427711 0.334479
C67   C     C_R   0.385199 0.921474 0.572222 0.334620
C68   C     C_R   0.614663 0.921291 0.427655 0.334311
C69   C     C_R   0.939765 0.461007 0.657988 -0.124927
C70   C     C_R   0.060215 0.460980 0.341995 -0.124962
C71   C     C_R   0.439760 0.961015 0.657984 -0.124927
C72   C     C_R   0.560193 0.960947 0.341977 -0.124961
C73   C     C_R   0.935251 0.463590 0.717660 -0.121106
C74   C     C_R   0.064745 0.463575 0.282341 -0.121054
C75   C     C_R   0.435249 0.963595 0.717659 -0.121105
C76   C     C_R   0.564735 0.963548 0.282335 -0.121048
C77   C     C_R   0.994984 0.495747 0.809220 -0.186127
C78   C     C_R   0.005024 0.495752 0.190789 -0.186144
C79   C     C_R   0.494986 0.995747 0.809222 -0.186113
C80   C     C_R   0.505028 0.995753 0.190795 -0.186172
O1    O     O_R   0.892670 0.439420 0.892670 -0.577329
O2    O     O_R   0.107330 0.560580 0.107330 -0.605136
O3    O     O_R   0.107330 0.439420 0.107330 -0.577336
O4    O     O_R   0.892670 0.560580 0.892670 -0.605116
O5    O     O_R   0.392670 0.939420 0.892670 -0.577337
O6    O     O_R   0.607330 0.060580 0.107330 -0.605136
O7    O     O_R   0.607330 0.939420 0.107330 -0.577343
O8    O     O_R   0.392670 0.060580 0.892670 -0.605109
O9    O     O_R   0.999990 0.439420 0.908380 -0.560326
O10   O     O_R   0.000010 0.560580 0.091620 -0.597510
O11   O     O_R   0.000010 0.439420 0.091620 -0.560326
O12   O     O_R   0.999990 0.560580 0.908380 -0.597587
O13   O     O_R   0.499990 0.939420 0.908380 -0.560329
O14   O     O_R   0.500010 0.060580 0.091620 -0.597489
O15   O     O_R   0.500010 0.939420 0.091620 -0.560338
O16   O     O_R   0.499990 0.060580 0.908380 -0.597572
O17   O     O_R   0.060590 0.607350 0.560620 -0.607109
O18   O     O_R   0.939410 0.392650 0.439380 -0.573507
O19   O     O_R   0.939410 0.607350 0.439380 -0.607102
O20   O     O_R   0.060590 0.392650 0.560620 -0.573449
O21   O     O_R   0.560590 0.107350 0.560620 -0.607089
O22   O     O_R   0.439410 0.892650 0.439380 -0.573522
O23   O     O_R   0.439410 0.107350 0.439380 -0.607117
O24   O     O_R   0.560590 0.892650 0.560620 -0.573432
O25   O     O_R   0.060610 0.500000 0.652240 -0.577446
O26   O     O_R   0.939390 0.500000 0.347760 -0.577426
O27   O     O_R   0.560610 0.000000 0.652240 -0.577455
O28   O     O_R   0.439390 1.000000 0.347760 -0.577399
O29   O     O_R   0.939430 0.500000 0.531050 -0.617061
O30   O     O_R   0.060570 0.500000 0.468950 -0.617129
O31   O     O_R   0.439430 0.000000 0.531050 -0.617038
O32   O     O_R   0.560570 0.000000 0.468950 -0.617225
O33   O     O_R   0.500010 0.607330 0.448300 -0.590691
O34   O     O_R   0.499990 0.392670 0.551700 -0.604861
O35   O     O_R   0.499990 0.607330 0.551700 -0.590644
O36   O     O_R   0.500010 0.392670 0.448300 -0.604843
O37   O     O_R   0.000010 0.107330 0.448300 -0.590663
O38   O     O_R   0.999990 0.892670 0.551700 -0.604878
O39   O     O_R   0.999990 0.107330 0.551700 -0.590673
O40   O     O_R   0.000010 0.892670 0.448300 -0.604830
O41   O     O_R   0.607330 0.500000 0.555630 -0.578114
O42   O     O_R   0.392670 0.500000 0.444370 -0.578104
O43   O     O_R   0.107330 1.000000 0.555630 -0.578080
O44   O     O_R   0.892670 0.000000 0.444370 -0.578152
O45   O     O_R   0.607340 0.500000 0.659080 -0.609163
O46   O     O_R   0.392660 0.500000 0.340920 -0.609153
O47   O     O_R   0.107340 1.000000 0.659080 -0.609194
O48   O     O_R   0.892660 0.000000 0.340920 -0.609135
Zn1   Zn    Zn3+2 1.000000 0.419100 0.000000 1.184687
Zn2   Zn    Zn3+2 1.000000 0.580900 0.000000 1.142800
Zn3   Zn    Zn3+2 0.500000 0.919100 0.000000 1.184648
Zn4   Zn    Zn3+2 0.500000 0.080900 0.000000 1.142841
Zn5   Zn    Zn3+2 0.080920 0.500000 0.580940 1.174907
Zn6   Zn    Zn3+2 0.919080 0.500000 0.419060 1.174932
Zn7   Zn    Zn3+2 0.580920 0.000000 0.580940 1.174930
Zn8   Zn    Zn3+2 0.419080 0.000000 0.419060 1.174913
Zn9   Zn    Zn3+2 0.500000 0.500000 0.430940 1.131111
Zn10  Zn    Zn3+2 0.500000 0.500000 0.569060 1.131052
Zn11  Zn    Zn3+2 0.000000 0.000000 0.430940 1.131183
Zn12  Zn    Zn3+2 0.000000 1.000000 0.569060 1.130882
S1    S     S_3+6 0.140170 0.542466 0.961488 0.083187
O49   O     O_2   0.203850 0.548455 0.981106 -0.219044
O50   O     O_2   0.134427 0.611992 0.992438 -0.240430
O51   O     O_3   0.156123 0.471530 0.024622 -0.576751
H1    H     H_    0.210164 0.467101 0.080427 0.381263
S2    S     S_3+6 0.859850 0.542514 0.038533 0.083229
O52   O     O_2   0.796171 0.548517 0.018918 -0.219077
O53   O     O_2   0.865611 0.612040 0.007606 -0.240293
O54   O     O_3   0.843879 0.471583 0.975378 -0.576784
H2    H     H_    0.789837 0.467158 0.919582 0.381261
S3    S     S_3+6 0.640175 0.042453 0.961494 0.083197
O55   O     O_2   0.703856 0.048438 0.981113 -0.219032
O56   O     O_2   0.634437 0.111979 0.992449 -0.240400
O57   O     O_3   0.656122 0.971515 0.024621 -0.576756
H3    H     H_    0.710163 0.967084 0.080428 0.381265
S4    S     S_3+6 0.359871 0.042572 0.038557 0.083238
O58   O     O_2   0.296196 0.048594 0.018948 -0.219102
O59   O     O_2   0.365653 0.112099 0.007655 -0.240268
O60   O     O_3   0.343876 0.971650 0.975375 -0.576813
H4    H     H_    0.289832 0.967233 0.919589 0.381256
Br1   Br    Br    0.879514 0.357489 0.751503 -0.294494
Br2   Br    Br    0.120505 0.357507 0.248489 -0.294805
Br3   Br    Br    0.379515 0.857488 0.751499 -0.294624
Br4   Br    Br    0.620487 0.857488 0.248458 -0.294757
S5    S     S_3+6 0.719077 0.417945 0.532045 0.122754
O61   O     O_2   0.676769 0.487957 0.482037 -0.215443
O62   O     O_2   0.677185 0.355939 0.461688 -0.212344
O63   O     O_3   0.726538 0.401525 0.614924 -0.541525
H5    H     H_    0.680254 0.376781 0.580742 0.380505
S6    S     S_3+6 0.280917 0.417872 0.468001 0.122659
O64   O     O_2   0.323294 0.487823 0.518190 -0.215365
O65   O     O_2   0.322725 0.355764 0.538206 -0.212634
O66   O     O_3   0.273476 0.401610 0.385117 -0.541563
H6    H     H_    0.319710 0.376779 0.419242 0.380521
S7    S     S_3+6 0.219072 0.917966 0.532052 0.122861
O67   O     O_2   0.176778 0.987991 0.482081 -0.215373
O68   O     O_2   0.177167 0.855982 0.461663 -0.212120
O69   O     O_3   0.226539 0.901511 0.614929 -0.541567
H7    H     H_    0.180256 0.876760 0.580743 0.380489
S8    S     S_3+6 0.780889 0.917725 0.468013 0.122375
O70   O     O_2   0.823377 0.987588 0.518436 -0.215472
O71   O     O_2   0.822579 0.855483 0.538016 -0.213236
O72   O     O_3   0.773454 0.901653 0.385108 -0.541514
H8    H     H_    0.819661 0.876792 0.419177 0.380551
S9    S     S_3+6 0.739522 0.413259 0.400034 0.145810
O73   O     O_2   0.763241 0.435926 0.360313 -0.251538
O74   O     O_2   0.716291 0.334191 0.375753 -0.198738
O75   O     O_3   0.668039 0.465770 0.350041 -0.460203
H9    H     H_    0.628252 0.452610 0.281772 0.394552
S10   S     S_3+6 0.260407 0.413041 0.599934 0.145797
O76   O     O_2   0.236684 0.435655 0.639665 -0.251171
O77   O     O_2   0.283571 0.333951 0.624085 -0.199124
O78   O     O_3   0.331941 0.465519 0.650047 -0.460218
H10   H     H_    0.371838 0.451972 0.718191 0.394601
S11   S     S_3+6 0.239498 0.913346 0.400016 0.145776
O79   O     O_2   0.263239 0.936023 0.360323 -0.251982
O80   O     O_2   0.216222 0.834293 0.375674 -0.198348
O81   O     O_3   0.168042 0.965889 0.350058 -0.460213
H11   H     H_    0.128428 0.953161 0.281662 0.394491
S12   S     S_3+6 0.760333 0.912750 0.599885 0.145870
O82   O     O_2   0.736641 0.935304 0.639668 -0.250104
O83   O     O_2   0.783389 0.833626 0.623848 -0.200086
O84   O     O_3   0.831938 0.965167 0.650133 -0.460234
H12   H     H_    0.872208 0.950571 0.717910 0.394782
S13   S     S_3+6 0.912055 0.337259 0.564990 0.082725
O85   O     O_2   0.992402 0.337643 0.629501 -0.327358
O86   O     O_2   0.897715 0.277248 0.596505 -0.231914
O87   O     O_3   0.862768 0.319970 0.452745 -0.485384
H13   H     H_    0.866343 0.266277 0.450114 0.375991
S14   S     S_3+6 0.087812 0.337192 0.434850 0.082710
O88   O     O_2   0.007466 0.337639 0.370345 -0.327246
O89   O     O_2   0.102092 0.277194 0.403248 -0.231969
O90   O     O_3   0.137085 0.319816 0.547073 -0.485502
H14   H     H_    0.133560 0.266108 0.549675 0.376060
S15   S     S_3+6 0.412015 0.837279 0.564946 0.082717
O91   O     O_2   0.492364 0.837641 0.629461 -0.327373
O92   O     O_2   0.397654 0.777265 0.596433 -0.231955
O93   O     O_3   0.362726 0.820016 0.452695 -0.485361
H15   H     H_    0.366297 0.766325 0.450046 0.375979
S16   S     S_3+6 0.587658 0.837112 0.434671 0.082694
O94   O     O_2   0.507314 0.837639 0.370178 -0.327159
O95   O     O_2   0.601860 0.777131 0.402960 -0.231929
O96   O     O_3   0.636917 0.819632 0.546868 -0.485656
H16   H     H_    0.633422 0.765909 0.549420 0.376123
Br5   Br    Br    0.113738 0.607491 0.792976 -0.317170
Br6   Br    Br    0.886297 0.607527 0.207066 -0.317095
Br7   Br    Br    0.613749 0.107480 0.792988 -0.317077
Br8   Br    Br    0.386344 0.107574 0.207117 -0.317155

loop_
_geom_bond_atom_site_label_1
_geom_bond_atom_site_label_2
_ccdc_geom_bond_type
C58   C62   A    
O84   H12   S    
O46   Zn9   S    
S10   O76   D    
C56   C76   A    
O24   Zn7   S    
C55   C59   A    
C2    C18   S    
C67   S15   S    
O96   H16   S    
C16   C72   A    
O17   Zn5   S    
C72   C76   A    
C53   Br1   S    
S16   O95   D    
O69   H7    S    
O93   H15   S    
O9    Zn1   S    
C62   S10   S    
C4    O7    A    
O66   H6    S    
S8    O70   D    
C1    O4    A    
C7    C11   A    
S5    O61   D    
C48   O14   A    
C30   O30   A    
C2    O2    A    
O39   Zn12  S    
C64   C68   A    
C13   C29   S    
S4    O58   D    
C58   S6    S    
O48   Zn11  S    
O3    Zn1   S    
C59   S7    S    
S15   O92   D    
C11   Br7   S    
O54   H2    S    
C6    S2    S    
C23   C39   S    
O31   Zn8   S    
S9    O74   D    
C67   C71   A    
C3    O5    A    
S6    O64   D    
C1    O1    A    
C22   C38   S    
O43   Zn11  S    
C8    S4    S    
C39   O43   A    
S6    O66   S    
S3    O57   S    
O41   Zn9   S    
C45   O12   A    
C9    C13   A    
C16   C32   S    
O27   Zn7   S    
S10   O78   S    
C54   C74   A    
C11   C15   A    
S4    O59   D    
C25   O19   A    
C20   C24   T    
O87   H13   S    
C46   O10   A    
C70   C74   A    
S3    O55   D    
C3    C19   S    
O81   H11   S    
C47   C79   S    
C66   S14   S    
C45   O9    A    
C48   O15   A    
C37   O45   A    
S8    O72   S    
C8    C12   A    
O16   Zn4   S    
S11   O81   S    
C55   C75   A    
O21   Zn7   S    
O29   Zn6   S    
S5    O62   D    
C30   O26   A    
S3    O56   D    
O15   Zn3   S    
C14   C70   A    
C29   O25   A    
C2    O3    A    
O37   Zn11  S    
C31   O27   A    
C14   C30   S    
O38   Zn12  S    
S16   O94   D    
C38   O46   A    
O22   Zn8   S    
S8    O71   D    
C10   Br6   S    
S7    O69   S    
S2    O53   D    
S13   O86   D    
C40   O44   A    
C63   C67   A    
C33   O35   A    
C39   O47   A    
S2    O52   D    
C12   C16   A    
O42   Zn10  S    
S7    O68   D    
C10   C14   A    
S15   O93   S    
C25   C41   S    
C46   C78   S    
C62   C66   A    
C43   C49   T    
S9    O75   S    
C46   O11   A    
C33   C50   S    
O90   H14   S    
C15   C31   S    
C27   O21   A    
C47   O16   A    
O14   Zn4   S    
C56   C60   A    
O19   Zn6   S    
O75   H9    S    
C4    C20   S    
C19   C23   T    
O23   Zn8   S    
O72   H8    S    
C5    C9    A    
C28   O22   A    
S2    O54   S    
C28   O24   A    
C5    S1    S    
O60   H4    S    
O35   Zn10  S    
C68   C72   A    
C35   O39   A    
C61   S9    S    
C47   O13   A    
C21   C37   S    
O40   Zn11  S    
S12   O82   D    
C54   Br2   S    
C69   C73   A    
O57   H3    S    
C38   O42   A    
C36   C51   S    
O7    Zn3   S    
C26   O18   A    
C37   O41   A    
C25   O17   A    
O63   H5    S    
S14   O88   D    
S5    O63   S    
S14   O89   D    
C64   S12   S    
C32   O28   A    
O1    Zn1   S    
C7    S3    S    
C35   O37   A    
O2    Zn2   S    
O47   Zn12  S    
O8    Zn4   S    
O32   Zn7   S    
C5    C77   A    
C36   O38   A    
O20   Zn5   S    
C26   C42   S    
C7    C79   A    
O36   Zn9   S    
C54   C58   A    
S13   O87   S    
C29   O29   A    
C27   C43   S    
S13   O85   D    
C34   C49   S    
S10   O77   D    
C32   O32   A    
C68   S16   S    
C3    O8    A    
C18   C22   T    
O25   Zn5   S    
C59   C63   A    
O44   Zn12  S    
S4    O60   S    
C53   C73   A    
C60   S8    S    
C76   C80   A    
O51   H1    S    
O30   Zn5   S    
C53   C57   A    
O18   Zn6   S    
C6    C10   A    
C9    Br5   S    
C57   C61   A    
S1    O51   S    
O45   Zn10  S    
C34   O34   A    
S14   O90   S    
C15   C71   A    
C56   Br4   S    
C33   O33   A    
O28   Zn8   S    
C60   C64   A    
C65   S13   S    
C48   C80   S    
S1    O50   D    
C55   Br3   S    
S7    O67   D    
S1    O49   D    
O5    Zn3   S    
C71   C75   A    
O6    Zn4   S    
S9    O73   D    
C66   C70   A    
C34   O36   A    
C13   C69   A    
O11   Zn1   S    
S12   O84   S    
C65   C69   A    
O33   Zn9   S    
O4    Zn2   S    
C24   C40   S    
C28   C44   S    
C31   O31   A    
C63   S11   S    
O34   Zn10  S    
S15   O91   D    
C36   O40   A    
C17   C21   T    
C6    C78   A    
S11   O79   D    
O10   Zn2   S    
C61   C65   A    
O26   Zn6   S    
C4    O6    A    
C1    C17   S    
C44   C50   T    
S12   O83   D    
O78   H10   S    
C74   C78   A    
C26   O20   A    
C35   C52   S    
C8    C80   A    
C73   C77   A    
O12   Zn2   S    
C57   S5    S    
C45   C77   S    
S6    O65   D    
O13   Zn3   S    
C75   C79   A    
C27   O23   A    
C41   C51   T    
S16   O96   S    
C42   C52   T    
S11   O80   D    
C12   Br8   S    
C40   O48   A    
