data_mof_unit_11491.cif
_audit_creation_date              2012-12-11T16:51:04-0500
_audit_creation_method            fapswitch 2.2
_symmetry_space_group_name_H-M    P1
_symmetry_Int_Tables_number       1
_space_group_crystal_system       triclinic
_cell_length_a                    6.926314
_cell_length_b                    28.805718
_cell_length_c                    32.131089
_cell_angle_alpha                 100.78831
_cell_angle_beta                  89.502395
_cell_angle_gamma                 90.210026
_cell_volume                      6297.15540834

loop_
_atom_site_label
_atom_site_type_symbol
_atom_type_description
_atom_site_fract_x
_atom_site_fract_y
_atom_site_fract_z
_atom_type_partial_charge
O1    O     O_R   0.494350 0.453170 0.452520 -0.535551
O2    O     O_R   0.820980 0.455850 0.538220 -0.537570
O3    O     O_R   0.994300 0.546830 0.547480 -0.544578
C1    C     C_R   0.651543 0.445761 0.551708 0.716053
O4    O     O_R   0.823860 0.447590 0.452270 -0.514471
O5    O     O_R   0.997200 0.538510 0.460920 -0.541640
C2    C     C_R   0.655508 0.434100 0.436955 0.743384
O6    O     O_R   0.491440 0.461490 0.539080 -0.537871
O7    O     O_3   0.661790 0.529840 0.502940 -0.376518
V1    V     V_3+5 0.935470 0.494460 0.499450 1.484109
O8    O     O_R   0.327090 0.544150 0.461780 -0.541156
C3    C     C_R   0.158873 0.554285 0.448313 0.726465
O9    O     O_R   0.324210 0.552410 0.547730 -0.545787
C4    C     C_R   0.154575 0.565278 0.563412 0.685741
V2    V     V_3+5 0.435840 0.505540 0.500550 1.452368
O10   O     O_3   0.159650 0.470160 0.497060 -0.345074
C5    C     C_R   0.212864 0.893423 0.868908 0.158603
C6    C     C_R   0.215744 0.857425 0.832674 -0.129270
H1    H     H_    0.343011 0.853103 0.812491 0.116434
C7    C     C_R   0.058740 0.826611 0.822332 0.068716
C8    C     C_R   0.896415 0.832102 0.849272 -0.130938
H2    H     H_    0.771648 0.809379 0.841944 0.121691
C9    C     C_R   0.891662 0.867376 0.885749 -0.201896
H3    H     H_    0.764171 0.870155 0.905793 0.137766
C10   C     C_R   0.048746 0.898383 0.896526 -0.066813
C11   C     C_R   0.990253 0.743661 0.783517 -0.135060
H4    H     H_    0.923014 0.735406 0.811799 0.126773
C12   C     C_R   0.004870 0.708029 0.747426 -0.197153
H5    H     H_    0.946878 0.673309 0.748571 0.132658
C13   C     C_R   0.097007 0.716623 0.710458 0.006996
C14   C     C_R   0.170225 0.762276 0.709872 0.292985
C15   C     C_R   0.154358 0.797836 0.746029 -0.166861
H6    H     H_    0.209138 0.832761 0.744606 0.151763
C16   C     C_R   0.066464 0.788946 0.783435 0.037711
C17   C     C_R   0.294350 0.662830 0.655593 -0.079983
H7    H     H_    0.425057 0.679328 0.669647 0.127099
C18   C     C_R   0.308513 0.626394 0.620064 -0.149387
H8    H     H_    0.450313 0.615839 0.607374 0.120657
C19   C     C_R   0.141472 0.603951 0.601263 -0.054112
C20   C     C_R   0.960315 0.618685 0.619216 -0.151065
H9    H     H_    0.828466 0.602158 0.605846 0.120679
C21   C     C_R   0.946509 0.655050 0.654701 -0.114194
H10   H     H_    0.805321 0.665808 0.667694 0.114773
C22   C     C_R   0.113088 0.677809 0.672952 0.122694
C23   C     C_R   0.143512 0.656372 0.282699 0.585541
N1    N     N_R   0.128694 0.676250 0.324938 -0.547235
C24   C     C_R   0.111796 0.724168 0.337750 0.681951
C25   C     C_R   0.094823 0.753759 0.307843 -0.040928
C26   C     C_R   0.112202 0.734270 0.264300 -0.039506
C27   C     C_R   0.142372 0.685040 0.251017 -0.036025
C28   C     C_R   0.060423 0.802439 0.320662 -0.107734
C29   C     C_R   0.040864 0.831534 0.290793 -0.112993
C30   C     C_R   0.060887 0.812975 0.247371 -0.037546
C31   C     C_R   0.099918 0.764403 0.234139 -0.016444
C32   C     C_R   0.126870 0.746121 0.190832 -0.076763
C33   C     C_R   0.162565 0.697742 0.177698 -0.104007
C34   C     C_R   0.168989 0.666864 0.206792 0.119078
C35   C     C_R   0.043460 0.841911 0.216757 0.683881
N2    N     N_R   0.074445 0.823727 0.174649 -0.539372
C36   C     C_R   0.118269 0.776844 0.161457 0.693618
O11   O     O_2   0.156739 0.609009 0.271726 -0.526902
O12   O     O_2   0.111436 0.743219 0.379452 -0.475830
H11   H     H_    0.045647 0.818175 0.353890 0.183553
H12   H     H_    0.012043 0.868739 0.301909 0.180256
O13   O     O_2   0.996329 0.887875 0.229010 -0.483605
O14   O     O_2   0.153456 0.759965 0.120030 -0.485007
H13   H     H_    0.183881 0.683656 0.144274 0.176911
C37   C     C_R   0.906878 0.850676 0.115365 0.319283
C38   C     C_R   0.895612 0.880874 0.085901 -0.211020
H14   H     H_    0.774446 0.877581 0.064453 0.168158
C39   C     C_R   0.041335 0.914317 0.083392 -0.155164
C40   C     C_R   0.197342 0.917601 0.111459 -0.220603
H15   H     H_    0.310554 0.943402 0.110352 0.163116
C41   C     C_R   0.207418 0.888538 0.141771 0.312716
C42   C     C_R   0.062724 0.854430 0.143853 0.252351
C43   C     C_R   0.974854 0.642500 0.383359 0.310050
C44   C     C_R   0.983371 0.612471 0.413015 -0.214942
H16   H     H_    0.859181 0.610021 0.433222 0.163227
C45   C     C_R   0.150798 0.586208 0.416997 -0.108483
C46   C     C_R   0.309122 0.590032 0.390207 -0.176802
H17   H     H_    0.439315 0.569835 0.392094 0.141919
C47   C     C_R   0.299474 0.619067 0.359900 -0.070456
H18   H     H_    0.421254 0.620491 0.338866 0.175554
C48   C     C_R   0.134115 0.646097 0.356390 0.315563
C49   C     C_R   0.725952 0.205627 0.824302 0.655556
N3    N     N_R   0.571298 0.175855 0.824848 -0.545466
C50   C     C_R   0.424973 0.174081 0.796077 0.633126
C51   C     C_R   0.430264 0.203118 0.765294 -0.040830
C52   C     C_R   0.587053 0.234294 0.764688 -0.018764
C53   C     C_R   0.736389 0.235666 0.794404 -0.049898
C54   C     C_R   0.283051 0.201775 0.735208 -0.144156
C55   C     C_R   0.292416 0.230613 0.704712 -0.139660
C56   C     C_R   0.447835 0.262015 0.703913 -0.029499
C57   C     C_R   0.594517 0.264185 0.734305 -0.013125
C58   C     C_R   0.748791 0.296155 0.734353 -0.028041
C59   C     C_R   0.897195 0.297165 0.764124 -0.144692
C60   C     C_R   0.891710 0.267074 0.793597 -0.122979
C61   C     C_R   0.460865 0.291291 0.673382 0.580255
N4    N     N_R   0.608069 0.323629 0.674777 -0.552197
C62   C     C_R   0.750070 0.326549 0.704706 0.571992
O15   O     O_2   0.868648 0.206340 0.852728 -0.475094
O16   O     O_2   0.274828 0.144384 0.797279 -0.508049
H19   H     H_    0.160284 0.178342 0.735039 0.169957
H20   H     H_    0.176552 0.228501 0.682006 0.170609
O17   O     O_2   0.328248 0.287158 0.642393 -0.524291
O18   O     O_2   0.891207 0.359113 0.706109 -0.538102
H21   H     H_    0.018716 0.321032 0.764609 0.171146
H22   H     H_    0.009135 0.268695 0.815876 0.190014
C63   C     C_R   0.480032 0.391235 0.644678 0.157475
C64   C     C_R   0.490967 0.420035 0.613823 -0.183954
H23   H     H_    0.385907 0.447917 0.614243 0.123092
C65   C     C_R   0.639778 0.414241 0.583302 -0.090321
C66   C     C_R   0.778200 0.378859 0.583801 -0.186011
H24   H     H_    0.894988 0.373778 0.560772 0.161823
C67   C     C_R   0.765146 0.349049 0.613505 -0.115379
H25   H     H_    0.871997 0.321583 0.612951 0.159687
C68   C     C_R   0.616120 0.354543 0.643989 0.368671
C69   C     C_R   0.649556 0.101510 0.847698 -0.134146
H26   H     H_    0.720882 0.090179 0.817349 0.156516
C70   C     C_R   0.642366 0.071147 0.877102 0.084347
C71   C     C_R   0.549919 0.086187 0.917021 -0.090878
C72   C     C_R   0.465575 0.132074 0.926357 -0.006520
C73   C     C_R   0.469232 0.161201 0.895383 0.329433
C74   C     C_R   0.562575 0.145957 0.856254 0.256920
C75   C     C_R   0.722764 0.119341 0.119682 -0.144059
H27   H     H_    0.856227 0.102943 0.106802 0.122366
C76   C     C_R   0.731362 0.155578 0.155386 -0.110760
H28   H     H_    0.870526 0.166341 0.169094 0.116005
C77   C     C_R   0.562185 0.177998 0.173132 0.123879
C78   C     C_R   0.383743 0.162991 0.154859 -0.073021
H29   H     H_    0.251015 0.179142 0.168473 0.128727
C79   C     C_R   0.374817 0.126722 0.119151 -0.150451
H30   H     H_    0.234823 0.116079 0.105878 0.122026
C80   C     C_R   0.544318 0.104390 0.101035 -0.057790
C81   C     C_R   0.499587 0.261741 0.211985 0.290967
C82   C     C_R   0.513103 0.296507 0.248826 -0.161381
H31   H     H_    0.460380 0.331687 0.248140 0.151218
C83   C     C_R   0.598595 0.286612 0.285782 0.045093
C84   C     C_R   0.670811 0.240864 0.284972 -0.127477
H32   H     H_    0.734936 0.231625 0.312918 0.136610
C85   C     C_R   0.658601 0.206118 0.248281 -0.189901
H33   H     H_    0.715027 0.171191 0.248733 0.142460
C86   C     C_R   0.572362 0.215904 0.211485 0.004359
C87   C     C_R   0.778103 0.326803 0.350724 -0.148530
H34   H     H_    0.895436 0.301993 0.342331 0.144893
C88   C     C_R   0.794415 0.361594 0.387482 0.257088
C89   C     C_R   0.645431 0.395406 0.398874 -0.115099
C90   C     C_R   0.481485 0.392210 0.372840 -0.149348
H35   H     H_    0.364349 0.417262 0.380407 0.154936
C91   C     C_R   0.465844 0.357056 0.336523 -0.106411
H36   H     H_    0.335884 0.355553 0.317830 0.130483
C92   C     C_R   0.614332 0.323981 0.324802 0.053303
O19   O     O_R   0.699170 0.038480 0.960880 -0.531919
O20   O     O_R   0.366800 0.052460 0.047690 -0.545524
O21   O     O_R   0.193520 0.961530 0.039110 -0.536503
C93   C     C_R   0.535229 0.065500 0.063290 0.694212
O22   O     O_R   0.369630 0.044100 0.961740 -0.537835
O23   O     O_R   0.196370 0.953120 0.952550 -0.534327
C94   C     C_R   0.539008 0.054071 0.948236 0.730877
O24   O     O_R   0.696320 0.046890 0.047450 -0.537957
O25   O     O_3   0.528890 0.970170 0.997080 -0.368991
V3    V     V_3+5 0.255190 0.005530 0.000540 1.421652
O26   O     O_R   0.866460 0.947530 0.952310 -0.548254
C95   C     C_R   0.036236 0.935579 0.935852 0.703705
O27   O     O_R   0.863630 0.955880 0.038270 -0.538681
C96   C     C_R   0.031932 0.945865 0.051804 0.748191
V4    V     V_3+5 0.754830 0.994440 0.999470 1.420484
O28   O     O_3   0.031000 0.029830 0.002920 -0.364583
C97   C     C_3   0.384566 0.926326 0.876120 -0.757119
H37   H     H_    0.336107 0.963566 0.879520 0.206037
H38   H     H_    0.463518 0.921265 0.904822 0.218047
H39   H     H_    0.488899 0.919626 0.849217 0.197872
C98   C     C_3   0.207983 0.615359 0.189092 -0.626002
H40   H     H_    0.340525 0.603812 0.203432 0.233750
H41   H     H_    0.082245 0.593526 0.195214 0.240416
H42   H     H_    0.231894 0.608672 0.154251 0.187825
Br1   Br    Br    0.706541 0.804574 0.115699 -0.436032
Br2   Br    Br    0.421799 0.896651 0.179855 -0.439209
Br3   Br    Br    0.741300 0.677045 0.380130 -0.511486
C99   C     C_3   0.328004 0.401081 0.678874 -0.687319
H43   H     H_    0.226024 0.371044 0.675810 0.268623
H44   H     H_    0.396956 0.406391 0.710485 0.208802
H45   H     H_    0.243629 0.433294 0.676861 0.199762
C100  C     C_3   0.731386 0.022804 0.863622 -0.744115
H46   H     H_    0.702898 0.998593 0.885938 0.201036
H47   H     H_    0.671410 0.005622 0.832572 0.211576
H48   H     H_    0.890086 0.026462 0.860183 0.219108
C101  C     C_3   0.376403 0.151539 0.969246 -0.626556
H49   H     H_    0.400749 0.129195 0.993216 0.176343
H50   H     H_    0.441545 0.186433 0.982347 0.240871
H51   H     H_    0.218425 0.155846 0.965852 0.233440
Br4   Br    Br    0.348787 0.222602 0.906019 -0.432861
Br5   Br    Br    0.391353 0.279668 0.162534 -0.489069
Br6   Br    Br    0.020137 0.358514 0.421253 -0.546634
Br7   Br    Br    0.284141 0.778755 0.659911 -0.478930

loop_
_geom_bond_atom_site_label_1
_geom_bond_atom_site_label_2
_ccdc_geom_bond_type
C75   C80   A    
C32   C33   A    
O27   C96   A    
C97   H37   S    
C78   C79   A    
C58   C59   A    
C1    O6    A    
C43   Br3   S    
C43   C48   A    
C24   O12   S    
O25   V3    S    
C63   C68   A    
C73   C74   A    
C98   H40   S    
C29   C30   A    
C37   C42   A    
C32   C36   A    
C11   H4    S    
C56   C57   A    
C61   O17   S    
C101  H51   S    
C12   H5    S    
C17   C18   A    
C90   C91   A    
C66   H24   S    
C85   C86   A    
O5    C3    A    
C13   C14   A    
C46   H17   S    
C5    C97   S    
C81   Br5   S    
O21   C96   A    
V2    O10   S    
C3    C45   S    
C37   Br1   S    
C100  H46   S    
C101  H50   S    
C6    H1    S    
N1    C24   A    
O24   V4    S    
C23   O11   S    
C52   C57   A    
C38   C39   A    
C64   H23   S    
C4    C19   S    
C69   H26   S    
C60   H22   S    
O8    V2    S    
C11   C16   A    
C25   C28   A    
C80   C93   S    
C89   C90   A    
C37   C38   A    
C67   C68   A    
C39   C96   S    
C9    H3    S    
O1    V2    S    
C88   Br6   S    
O7    V1    S    
C53   C60   A    
O20   C93   A    
C99   H45   S    
C44   H16   S    
C7    C16   S    
C81   C86   A    
C1    C65   S    
C36   O14   S    
N2    C36   A    
O27   V4    S    
C26   C31   A    
O1    C2    A    
O9    C4    A    
O19   V4    S    
C97   H38   S    
C13   C22   S    
C57   C58   A    
C21   C22   A    
C65   C66   A    
C99   H44   S    
C2    C89   S    
C72   C73   A    
C98   H41   S    
O21   V3    S    
C49   C53   A    
C41   C42   A    
C88   C89   A    
C28   C29   A    
C24   C25   A    
C81   C82   A    
C28   H11   S    
C43   C44   A    
C87   C88   A    
C29   H12   S    
V4    O28   S    
O4    C2    A    
C55   H20   S    
C58   C62   A    
C79   H30   S    
C83   C92   S    
C35   N2    A    
C49   N3    A    
C47   H18   S    
C101  H49   S    
C17   H7    S    
C15   C16   A    
O19   C94   A    
O2    C1    A    
C76   C77   A    
C18   H8    S    
C91   C92   A    
N4    C68   S    
C50   O16   S    
C35   O13   S    
C72   C101  S    
N4    C62   A    
C41   Br2   S    
C51   C54   A    
C93   O24   A    
O26   V4    S    
C84   H32   S    
C59   C60   A    
C7    C8    A    
C5    C6    A    
C44   C45   A    
C69   C74   A    
C90   H35   S    
C17   C22   A    
C70   C100  S    
C71   C72   A    
O25   V4    S    
O3    C4    A    
C34   C98   S    
C69   C70   A    
C40   C41   A    
C25   C26   A    
C59   H21   S    
C26   C27   A    
O6    V2    S    
C47   C48   A    
O9    V2    S    
N3    C74   S    
C75   H27   S    
C97   H39   S    
V3    O28   S    
C21   H10   S    
C76   H28   S    
O2    V1    S    
N2    C42   S    
C54   C55   A    
C49   O15   S    
C70   C71   A    
C82   C83   A    
C77   C78   A    
C98   H42   S    
C33   C34   A    
C31   C32   A    
C20   H9    S    
N3    C50   A    
C27   C34   A    
C62   O18   S    
O20   V3    S    
C14   C15   A    
C54   H19   S    
C40   H15   S    
O5    V1    S    
O22   C94   A    
C30   C35   A    
C30   C31   A    
C77   C86   S    
O23   C95   A    
C33   H13   S    
C11   C12   A    
C100  H48   S    
C87   H34   S    
C5    C10   A    
C15   H6    S    
C8    C9    A    
C78   H29   S    
C73   Br4   S    
C12   C13   A    
C18   C19   A    
O3    V1    S    
V1    O10   S    
C85   H33   S    
C14   Br7   S    
C84   C85   A    
C63   C99   S    
C67   H25   S    
C23   C27   A    
C56   C61   A    
C20   C21   A    
C55   C56   A    
C46   C47   A    
C100  H47   S    
N1    C48   S    
C6    C7    A    
C9    C10   A    
O7    V2    S    
C38   H14   S    
C64   C65   A    
O26   C95   A    
C83   C84   A    
O23   V3    S    
C45   C46   A    
C19   C20   A    
C23   N1    A    
O4    V1    S    
C39   C40   A    
C51   C52   A    
C50   C51   A    
C79   C80   A    
C61   N4    A    
C71   C94   S    
C63   C64   A    
C75   C76   A    
C91   H36   S    
C82   H31   S    
C10   C95   S    
C52   C53   A    
C8    H2    S    
O22   V3    S    
C99   H43   S    
C87   C92   A    
O8    C3    A    
C66   C67   A    
