data_mof_unit_18310.cif
_audit_creation_date              2013-03-05T15:49:57-0500
_audit_creation_method            fapswitch 2.2
_symmetry_space_group_name_H-M    P1
_symmetry_Int_Tables_number       1
_space_group_crystal_system       triclinic
_cell_length_a                    12.071744
_cell_length_b                    12.908901
_cell_length_c                    14.920446
_cell_angle_alpha                 90.27073
_cell_angle_beta                  87.764087
_cell_angle_gamma                 94.335726
_cell_volume                      2316.67429185

loop_
_atom_site_label
_atom_site_type_symbol
_atom_site_description
_atom_site_fract_x
_atom_site_fract_y
_atom_site_fract_z
_atom_type_partial_charge
O1    O     O_R   0.421700 0.658830 0.504450 -0.609581
O2    O     O_R   0.578300 0.341170 0.495550 -0.600707
O3    O     O_R   0.609310 0.646410 0.493750 -0.592388
O4    O     O_R   0.390690 0.353590 0.506250 -0.552174
C1    C     C_R   0.522654 0.700369 0.494253 0.894857
C2    C     C_R   0.477105 0.300294 0.502933 0.925575
O5    O     O_R   0.406180 0.506230 0.637500 -0.640688
O6    O     O_R   0.593820 0.493770 0.362500 -0.646513
O7    O     O_R   0.593800 0.493820 0.626800 -0.583658
O8    O     O_R   0.406200 0.506180 0.373200 -0.573805
C3    C     C_R   0.501620 0.500625 0.672823 0.869070
C4    C     C_R   0.498844 0.499375 0.327094 0.862713
Zn1   Zn    Zn3+2 0.374730 0.508290 0.507150 1.017024
Zn2   Zn    Zn3+2 0.625270 0.491710 0.492850 0.986414
C5    C     C_R   0.567742 0.434433 0.183818 -0.253049
C6    C     C_R   0.434565 0.566027 0.816027 -0.241897
C7    C     C_R   0.498171 0.498454 0.231418 -0.062504
C8    C     C_R   0.505253 0.503448 0.768226 -0.083231
C9    C     C_R   0.433736 0.565680 0.187960 -0.198837
C10   C     C_R   0.577777 0.442884 0.811115 -0.142747
C11   C     C_R   0.434077 0.566788 0.095405 0.067465
C12   C     C_R   0.576978 0.441288 0.903870 0.050485
C13   C     C_R   0.503781 0.502203 0.046330 -0.005524
C14   C     C_R   0.505304 0.504049 0.953075 -0.015311
C15   C     C_R   0.571918 0.435940 0.090732 0.019567
C16   C     C_R   0.434874 0.568338 0.908873 0.019396
C17   C     C_R   0.366048 0.631625 0.051609 -0.317089
C18   C     C_R   0.645649 0.377151 0.947862 -0.286625
C19   C     C_R   0.366456 0.633426 0.958210 0.530632
C20   C     C_R   0.641931 0.372345 0.041334 0.514210
H1    H     H_    0.618209 0.383750 0.219802 0.181655
H2    H     H_    0.380485 0.613531 0.780329 0.183764
H3    H     H_    0.386032 0.619012 0.226199 0.137825
H4    H     H_    0.631948 0.394753 0.772274 0.186383
H5    H     H_    0.311718 0.680182 0.089714 0.159655
H6    H     H_    0.701374 0.329855 0.909872 0.176863
C21   C     C_R   0.460349 0.189114 0.503020 -0.329223
C22   C     C_R   0.537128 0.813030 0.489576 -0.336511
C23   C     C_R   0.626527 0.967817 0.553435 0.461768
C24   C     C_R   0.363425 0.034395 0.447031 0.438689
C25   C     C_R   0.630947 0.865336 0.525453 0.402175
C26   C     C_R   0.376388 0.141798 0.451700 0.400850
C27   C     C_R   0.451065 0.868600 0.457713 -0.085739
C28   C     C_R   0.534086 0.131002 0.548170 -0.082479
C29   C     C_R   0.449571 0.975264 0.476953 -0.166464
C30   C     C_R   0.536750 0.024698 0.528108 -0.167069
N1    N     N_R   0.207800 0.519350 0.516680 -0.160250
N2    N     N_R   0.792200 0.480650 0.483320 -0.160483
C31   C     C_R   0.952184 0.441563 0.391823 0.496468
C32   C     C_R   0.047263 0.540464 0.614517 0.496777
C33   C     C_R   0.836222 0.442978 0.406201 -0.201332
C34   C     C_R   0.163191 0.542371 0.598401 -0.208186
C35   C     C_R   0.857824 0.510580 0.553356 0.643944
C36   C     C_R   0.141023 0.491006 0.447108 0.688797
C37   C     C_R   0.975762 0.510997 0.543635 -0.264968
C38   C     C_R   0.023068 0.481194 0.460027 -0.273875
H7    H     H_    0.218306 0.559452 0.652445 0.178293
H8    H     H_    0.779968 0.412350 0.356453 0.171476
O9    O     O_3   0.997715 0.392480 0.317130 -0.553739
C39   C     C_3   0.944874 0.414931 0.237362 -0.268045
H9    H     H_    0.003273 0.402645 0.179708 0.203234
H10   H     H_    0.922975 0.497142 0.234390 0.130936
H11   H     H_    0.870261 0.360483 0.228917 0.198073
O10   O     O_3   0.003087 0.554504 0.700886 -0.560053
C40   C     C_3   0.054519 0.643119 0.742730 -0.307343
H12   H     H_    0.997098 0.668979 0.796737 0.194481
H13   H     H_    0.072152 0.709553 0.695556 0.137338
H14   H     H_    0.131452 0.623465 0.775178 0.203606
O11   O     O_3   0.294838 0.693930 0.915542 -0.622997
C41   C     C_3   0.343871 0.796450 0.910144 -0.353774
H15   H     H_    0.425653 0.799749 0.872603 0.158042
H16   H     H_    0.353319 0.831514 0.977960 0.178585
H17   H     H_    0.288474 0.844182 0.872878 0.199248
O12   O     O_3   0.711979 0.310442 0.084201 -0.623565
C42   C     C_3   0.662587 0.207937 0.086683 -0.338862
H18   H     H_    0.655010 0.174874 0.017978 0.174881
H19   H     H_    0.579820 0.203836 0.122759 0.157396
H20   H     H_    0.716705 0.158918 0.123946 0.203339
C43   C     C_2   0.603490 0.182969 0.617901 1.019430
O13   O     O_2   0.564599 0.191298 0.694237 -0.688519
O14   O     O_R   0.711277 0.224730 0.595507 -0.725976
H21   H     H_    0.749019 0.259699 0.648412 0.339851
C44   C     C_2   0.371854 0.816841 0.395198 1.041965
O15   O     O_2   0.281924 0.778020 0.423790 -0.648048
O16   O     O_R   0.398842 0.817365 0.303323 -0.826188
H22   H     H_    0.335199 0.787320 0.266593 0.315590
O17   O     O_3   0.302559 0.200369 0.409145 -0.563716
C45   C     C_3   0.341826 0.217684 0.319767 -0.162274
H23   H     H_    0.341968 0.143569 0.281400 0.163515
H24   H     H_    0.426336 0.258867 0.316612 0.102504
H25   H     H_    0.285115 0.268031 0.286707 0.216894
O18   O     O_3   0.726262 0.815395 0.538034 -0.630313
C46   C     C_3   0.796577 0.830387 0.460713 -0.258501
H26   H     H_    0.823138 0.914097 0.450481 0.189156
H27   H     H_    0.756057 0.797531 0.399966 0.166310
H28   H     H_    0.872538 0.788890 0.469707 0.159222
O19   O     O_3   0.716830 0.014527 0.596509 -0.572473
C47   C     C_3   0.713351 0.979913 0.686378 -0.263492
H29   H     H_    0.736368 0.898443 0.690726 0.178120
H30   H     H_    0.630457 0.987470 0.720302 0.147728
H31   H     H_    0.775181 0.029161 0.723796 0.192777
O20   O     O_3   0.270672 0.989733 0.405985 -0.592119
C48   C     C_3   0.180294 0.984115 0.469203 -0.187880
H32   H     H_    0.156052 0.062791 0.488671 0.188468
H33   H     H_    0.198999 0.939627 0.529903 0.146759
H34   H     H_    0.107699 0.942406 0.438126 0.184166
O21   O     O_3   0.189670 0.469511 0.364699 -0.537998
C49   C     C_3   0.182784 0.556369 0.308509 -0.231583
H35   H     H_    0.204290 0.533526 0.238646 0.180415
H36   H     H_    0.242177 0.620726 0.328952 0.181055
H37   H     H_    0.098174 0.585061 0.308109 0.131155
O22   O     O_3   0.807800 0.529366 0.636098 -0.567717
C50   C     C_3   0.801432 0.637140 0.649346 -0.128553
H38   H     H_    0.718739 0.659422 0.631430 0.212373
H39   H     H_    0.868271 0.686559 0.613013 0.133330
H40   H     H_    0.808297 0.654056 0.721934 0.163900

loop_
_geom_bond_atom_site_label_1
_geom_bond_atom_site_label_2
_geom_bond_distance
_ccdc_geom_bond_type
O17   C45   1.410855 S    
C3    C8    1.426038 S    
C46   H26   1.113189 S    
C17   C19   1.393669 A    
C32   O10   1.391654 S    
C37   C38   1.415416 A    
C31   C33   1.409375 A    
O19   C47   1.413434 S    
C23   C25   1.389591 A    
O16   H22   1.013325 S    
O5    C3    1.292576 A    
C36   O21   1.377966 S    
C39   H11   1.110613 S    
O1    C1    1.297458 A    
C9    C11   1.380955 A    
C14   C16   1.414977 A    
N1    C36   1.370523 A    
C20   O12   1.382711 S    
C5    C15   1.388009 A    
O4    Zn1   2.020656 S    
C27   C44   1.482525 S    
C49   H35   1.108370 S    
C39   H10   1.114410 S    
C21   C26   1.396149 A    
C42   H19   1.114049 S    
N2    C33   1.352401 A    
C40   H13   1.114718 S    
C4    C7    1.427857 S    
C32   C34   1.409080 A    
O21   C49   1.412588 S    
C41   H15   1.113974 S    
C50   H40   1.108865 S    
C10   H4    1.085339 S    
C24   C26   1.385185 A    
C11   C17   1.397463 A    
O9    C39   1.413451 S    
C46   H27   1.113665 S    
C12   C18   1.398173 A    
C1    C22   1.453293 S    
O2    C2    1.294398 A    
O22   C50   1.411718 S    
C28   C30   1.405629 A    
O14   H21   1.013929 S    
C19   O11   1.382932 S    
C35   C37   1.425051 A    
C6    C16   1.385621 A    
C24   C29   1.422287 A    
C36   C38   1.425589 A    
O12   C42   1.409706 S    
O20   C48   1.411970 S    
C22   C25   1.397654 A    
O4    C2    1.291574 A    
C9    H3    1.077831 S    
C43   O14   1.398938 S    
O7    Zn2   2.020210 S    
Zn2   N2    2.030352 S    
C17   H5    1.084429 S    
C29   C30   1.433135 A    
C39   H9    1.109241 S    
C42   H18   1.112961 S    
O7    C3    1.293102 A    
C44   O15   1.222824 D    
C45   H25   1.109528 S    
O6    C4    1.288018 A    
C40   H14   1.110468 S    
C41   H17   1.109313 S    
C2    C21   1.434177 S    
C48   H33   1.114237 S    
C33   H8    1.079069 S    
C27   C29   1.406499 A    
O3    Zn2   2.020656 S    
O8    C4    1.298452 A    
C23   C30   1.418241 A    
C35   O22   1.381567 S    
C44   O16   1.396515 S    
C10   C12   1.383849 A    
C47   H29   1.110724 S    
C46   H28   1.109221 S    
C47   H30   1.114384 S    
C11   C13   1.411205 A    
C12   C14   1.412375 A    
O1    Zn1   1.982906 S    
C47   H31   1.109230 S    
Zn1   N1    2.030352 S    
C50   H38   1.102567 S    
C15   C20   1.407864 A    
C5    C7    1.394848 A    
O6    Zn2   1.996756 S    
C28   C43   1.486909 S    
C45   H24   1.113606 S    
O3    C1    1.299637 A    
O8    Zn1   2.020210 S    
C5    H1    1.084705 S    
N1    C34   1.354454 A    
N2    C35   1.372343 A    
C6    H2    1.084755 S    
C31   C38   1.423500 A    
C32   C37   1.423368 A    
C31   O9    1.394188 S    
C49   H37   1.112721 S    
O10   C40   1.414193 S    
C21   C28   1.400507 A    
C18   C20   1.395141 A    
C22   C27   1.405142 A    
O18   C46   1.410587 S    
C7    C9    1.387548 A    
C49   H36   1.105397 S    
C48   H34   1.109445 S    
C8    C10   1.392545 A    
C13   C15   1.414714 A    
O11   C41   1.409662 S    
O2    Zn2   1.982905 S    
C42   H20   1.109277 S    
C23   O19   1.384411 S    
C34   H7    1.076801 S    
C13   C14   1.391099 A    
C24   O20   1.383378 S    
C43   O13   1.222287 D    
O5    Zn1   1.996755 S    
C25   O18   1.380192 S    
C45   H23   1.112678 S    
C18   H6    1.084276 S    
C16   C19   1.407708 A    
C6    C8    1.393104 A    
C40   H12   1.109104 S    
C48   H32   1.112211 S    
C41   H16   1.112923 S    
C26   O17   1.385531 S    
C50   H39   1.114974 S    
