data_mof_unit_32227.cif
_audit_creation_date              2012-12-10T16:48:44-0500
_audit_creation_method            fapswitch 2.2
_symmetry_space_group_name_H-M    P1
_symmetry_Int_Tables_number       1
_space_group_crystal_system       triclinic
_cell_length_a                    17.309928
_cell_length_b                    8.672733
_cell_length_c                    7.448989
_cell_angle_alpha                 102.898647
_cell_angle_beta                  89.80243
_cell_angle_gamma                 92.914883
_cell_volume                      1088.61064359

loop_
_atom_site_label
_atom_site_type_symbol
_atom_type_description
_atom_site_fract_x
_atom_site_fract_y
_atom_site_fract_z
_atom_type_partial_charge
C1    C     C_R   0.497431 0.199818 0.453754 0.878353
C2    C     C_R   0.502569 0.800182 0.546246 0.878352
C3    C     C_2   0.496273 0.031895 0.427682 -0.374646
C4    C     C_2   0.503726 0.968104 0.572318 -0.374638
C5    C     C_R   0.351906 0.503244 0.526914 0.819022
C6    C     C_R   0.648093 0.496757 0.473087 0.819030
C7    C     C_R   0.268967 0.513443 0.545819 -0.026453
C8    C     C_R   0.731032 0.486557 0.454182 -0.026465
C9    C     C_R   0.220967 0.374842 0.490856 0.114779
C10   C     C_R   0.779033 0.625148 0.509212 0.114786
C11   C     C_R   0.141434 0.388372 0.477272 -0.135144
C12   C     C_R   0.858565 0.611605 0.522796 -0.135159
C13   C     C_R   0.109605 0.537795 0.520009 0.092073
C14   C     C_R   0.890392 0.462183 0.479998 0.092064
C15   C     C_R   0.157470 0.674173 0.579893 -0.161417
C16   C     C_R   0.842526 0.325818 0.420052 -0.161419
C17   C     C_R   0.237302 0.663778 0.593389 0.126255
C18   C     C_R   0.762695 0.336222 0.406552 0.126259
C19   C     C_2   0.026982 0.556596 0.493952 -0.198127
C20   C     C_2   0.973013 0.443372 0.506051 -0.198128
Cu1   Cu    Cu3+1 0.508700 0.517250 0.683000 0.949974
Cu2   Cu    Cu3+1 0.491300 0.482750 0.317000 0.949974
H1    H     H_    0.989255 0.332194 0.535211 0.142053
H2    H     H_    0.010737 0.667770 0.464788 0.142057
H3    H     H_    0.132482 0.789190 0.612262 0.132771
H4    H     H_    0.867513 0.210803 0.387635 0.132782
H5    H     H_    0.894732 0.717515 0.574714 0.131434
H6    H     H_    0.105269 0.282448 0.425401 0.131423
H7    H     H_    0.489387 0.960446 0.288233 0.181986
H8    H     H_    0.510612 0.039554 0.711767 0.181986
H9    H     H_    0.439376 0.379291 0.958567 0.227108
H10   H     H_    0.560624 0.620709 0.041433 0.227107
N1    N     N_2   0.478180 0.456750 0.041980 -0.216709
N2    N     N_2   0.521820 0.543250 0.958020 -0.216710
O1    O     O_R   0.505650 0.286040 0.618880 -0.584521
O2    O     O_R   0.494350 0.713960 0.381120 -0.584523
O3    O     O_R   0.490960 0.256910 0.309800 -0.587684
O4    O     O_R   0.509040 0.743090 0.690200 -0.587685
O5    O     O_R   0.394600 0.516230 0.672450 -0.589542
O6    O     O_R   0.605400 0.483770 0.327550 -0.589544
O7    O     O_R   0.379910 0.487100 0.363380 -0.578380
O8    O     O_R   0.620090 0.512900 0.636620 -0.578381
C21   C     C_3   0.254103 0.213166 0.441717 -0.883648
H11   H     H_    0.208049 0.117006 0.408240 0.231874
H12   H     H_    0.292217 0.204446 0.320068 0.243377
H13   H     H_    0.288354 0.193636 0.559748 0.226595
C22   C     C_3   0.745903 0.786829 0.558414 -0.883620
H14   H     H_    0.791958 0.882982 0.591944 0.231868
H15   H     H_    0.711659 0.806411 0.440401 0.226586
H16   H     H_    0.707784 0.795523 0.680051 0.243380
C23   C     C_3   0.711950 0.186527 0.349933 -0.865543
H17   H     H_    0.672541 0.173878 0.464255 0.232345
H18   H     H_    0.677107 0.191179 0.226574 0.242999
H19   H     H_    0.746520 0.079537 0.315541 0.228816
C24   C     C_3   0.288048 0.813476 0.649948 -0.865566
H20   H     H_    0.327450 0.826090 0.535604 0.232365
H21   H     H_    0.253477 0.920466 0.684311 0.228830
H22   H     H_    0.322896 0.808849 0.773309 0.242990

loop_
_geom_bond_atom_site_label_1
_geom_bond_atom_site_label_2
_ccdc_geom_bond_type
C1    C3    S    
C2    C4    S    
C21   H11   S    
H9    N1    S    
Cu1   O1    S    
C14   C20   S    
C8    C18   A    
C11   C13   A    
C2    O4    A    
C19   C20   D    
Cu1   O5    S    
C20   H1    S    
C1    O3    A    
C9    C11   A    
C23   H19   S    
Cu2   O6    S    
C24   H20   S    
C24   H21   S    
N1    N2    D    
C3    C4    D    
C23   H17   S    
C22   H15   S    
Cu1   Cu2   S    
C21   H12   S    
C3    H7    S    
C10   C12   A    
C11   H6    S    
C6    C8    S    
C16   C18   A    
C12   C14   A    
C18   C23   S    
C19   H2    S    
C22   H16   S    
C6    O6    A    
C5    O5    A    
C13   C15   A    
C16   H4    S    
C21   H13   S    
C14   C16   A    
C9    C21   S    
Cu2   O7    S    
C15   H3    S    
C13   C19   S    
C12   H5    S    
Cu1   O8    S    
C7    C9    A    
Cu2   O2    S    
C1    O1    A    
C15   C17   A    
C6    O8    A    
C24   H22   S    
C2    O2    A    
C10   C22   S    
C5    C7    S    
Cu2   N1    S    
C17   C24   S    
C5    O7    A    
Cu1   N2    S    
C7    C17   A    
Cu2   O3    S    
C8    C10   A    
C4    H8    S    
Cu1   O4    S    
C22   H14   S    
C23   H18   S    
H10   N2    S    
