data_mof_unit_33695.cif
_audit_creation_date              2012-12-10T18:12:33-0500
_audit_creation_method            fapswitch 2.2
_symmetry_space_group_name_H-M    P1
_symmetry_Int_Tables_number       1
_space_group_crystal_system       triclinic
_cell_length_a                    12.635214
_cell_length_b                    13.125357
_cell_length_c                    15.710275
_cell_angle_alpha                 92.30404
_cell_angle_beta                  103.453816
_cell_angle_gamma                 80.562365
_cell_volume                      2499.61697759

loop_
_atom_site_label
_atom_site_type_symbol
_atom_type_description
_atom_site_fract_x
_atom_site_fract_y
_atom_site_fract_z
_atom_type_partial_charge
C1    C     C_R   0.438031 0.691049 0.483899 0.852041
C2    C     C_R   0.599911 0.195710 0.518046 -0.162997
C3    C     C_R   0.293659 0.842392 0.479175 -0.200661
C4    C     C_R   0.501783 0.500695 0.661935 0.899463
C5    C     C_R   0.269236 0.945760 0.499859 -0.079215
C6    C     C_R   0.351085 0.008724 0.513570 -0.027101
C7    C     C_R   0.453484 0.970953 0.489451 0.017444
C8    C     C_R   0.473287 0.868087 0.460080 0.026484
C9    C     C_R   0.539324 0.029875 0.496670 0.069189
C10   C     C_R   0.648119 0.982581 0.497755 0.022177
C11   C     C_R   0.662331 0.884725 0.459372 -0.176246
C12   C     C_3   0.504149 0.504787 0.917909 0.152641
C13   C     C_R   0.571488 0.833655 0.430094 -0.011433
C14   C     C_R   0.517086 0.135514 0.490506 -0.262336
C15   C     C_R   0.709945 0.145919 0.550096 -0.023389
C16   C     C_R   0.562328 0.307950 0.512534 0.874438
C17   C     C_R   0.398507 0.801390 0.467644 -0.140893
C18   C     C_R   0.079543 0.392363 0.344117 -0.261178
C19   C     C_R   0.803488 0.625133 0.609418 0.024267
C20   C     C_R   0.901461 0.667751 0.621460 -0.161606
C21   C     C_R   0.971804 0.638419 0.564299 0.003070
C22   C     C_R   0.953538 0.553975 0.506982 -0.004600
C23   C     C_3   0.413680 0.461702 0.008261 -0.154168
C24   C     C_R   0.850540 0.517810 0.492291 0.090267
C25   C     C_R   0.034936 0.502291 0.464052 0.038859
C26   C     C_R   0.001771 0.444893 0.387442 0.118178
C27   C     C_R   0.892934 0.430879 0.360450 -0.221120
C28   C     C_R   0.498211 0.499435 0.338075 0.910637
C29   C     C_R   0.826657 0.447580 0.420886 0.019626
C30   C     C_R   0.148860 0.499029 0.497883 0.044453
C31   C     C_R   0.190454 0.393088 0.379897 0.051674
C32   C     C_3   0.490038 0.601660 0.029764 -0.001479
C33   C     C_3   0.586449 0.547275 0.992305 -0.034044
C34   C     C_3   0.496889 0.504487 0.082687 0.163564
C35   C     C_1   0.505461 0.502503 0.751669 -0.162578
C36   C     C_1   0.494214 0.500148 0.248380 -0.101226
C37   C     C_3   0.406593 0.559833 0.953988 -0.228835
C38   C     C_2   0.683118 0.594027 0.982026 0.389645
C39   C     C_2   0.331960 0.105301 0.564529 0.385215
C40   C     C_2   0.576367 0.751318 0.362752 0.533898
C41   C     C_2   0.728249 0.659236 0.667392 0.486195
C42   C     C_2   0.477821 0.711390 0.061060 0.440777
C43   C     C_2   0.047101 0.709582 0.551059 0.347449
C44   C     C_2   0.927215 0.745003 0.692278 0.344264
C45   C     C_3   0.511147 0.406850 0.970521 -0.152492
C46   C     C_2   0.775865 0.357059 0.426899 0.520796
C47   C     C_2   0.789544 0.199392 0.614706 0.402073
C48   C     C_2   0.851841 0.988993 0.534695 0.526493
C49   C     C_3   0.594536 0.449612 0.046519 -0.259191
C50   C     C_1   0.506170 0.503799 0.827228 -0.009536
C51   C     C_1   0.494013 0.501866 0.173035 0.029369
C52   C     C_R   0.736042 0.039762 0.527829 -0.023350
H1    H     H_    0.190299 0.972923 0.515630 0.217239
H2    H     H_    0.180515 0.538949 0.557496 0.124375
H3    H     H_    0.730435 0.612268 0.723190 0.080797
H4    H     H_    0.473571 0.773243 0.016055 0.099882
H5    H     H_    0.088670 0.753589 0.604548 0.137365
H6    H     H_    0.861908 0.801175 0.708753 0.126933
H7    H     H_    0.802907 0.312561 0.486423 0.057459
H8    H     H_    0.671330 0.404926 0.086029 0.161506
H9    H     H_    0.519804 0.326871 0.944275 0.156539
H10   H     H_    0.342663 0.426451 0.016621 0.154948
H11   H     H_    0.330072 0.605009 0.914554 0.171531
H12   H     H_    0.765682 0.561381 0.016671 0.077337
H13   H     H_    0.767132 0.278861 0.633179 0.068102
H14   H     H_    0.740552 0.852439 0.444631 0.175095
H15   H     H_    0.876488 0.908250 0.552843 0.022628
H16   H     H_    0.432926 0.170308 0.462874 0.177789
H17   H     H_    0.234396 0.792562 0.481459 0.221498
H18   H     H_    0.400738 0.136496 0.605751 0.081614
H19   H     H_    0.501707 0.722600 0.329486 0.042891
H20   H     H_    0.251607 0.355501 0.345967 0.135414
H21   H     H_    0.870277 0.382084 0.303729 0.176444
H22   H     H_    0.055037 0.348838 0.284680 0.150460
N1    N     N_R   0.222180 0.444680 0.455580 -0.112232
N2    N     N_R   0.776980 0.554790 0.543960 -0.157599
O1    O     O_R   0.366730 0.627160 0.478790 -0.602198
O2    O     O_2   0.238682 0.150195 0.562316 -0.534303
O3    O     O_2   0.662958 0.715855 0.342831 -0.539122
O4    O     O_2   0.667720 0.742534 0.655955 -0.569106
O5    O     O_2   0.472616 0.731830 0.136556 -0.569525
O6    O     O_2   0.059356 0.723218 0.477764 -0.574214
O7    O     O_2   0.021194 0.743659 0.735487 -0.566845
O8    O     O_2   0.713772 0.325054 0.363538 -0.586018
O9    O     O_2   0.879044 0.153897 0.653077 -0.512656
O10   O     O_2   0.919656 0.035944 0.516872 -0.505918
O11   O     O_R   0.544830 0.662520 0.507160 -0.580022
O12   O     O_R   0.410960 0.482330 0.609040 -0.609013
O13   O     O_R   0.589060 0.517690 0.637410 -0.638712
O14   O     O_R   0.455170 0.337480 0.492840 -0.609315
O15   O     O_R   0.633270 0.372840 0.521210 -0.659078
O16   O     O_R   0.410940 0.482310 0.362590 -0.628738
O17   O     O_R   0.589040 0.517670 0.390960 -0.581931
O18   O     O_2   0.669356 0.669102 0.935047 -0.554193
Zn1   Zn    Zn3+2 0.381080 0.476390 0.481050 0.973662
Zn2   Zn    Zn3+2 0.618920 0.523610 0.518950 0.974265

loop_
_geom_bond_atom_site_label_1
_geom_bond_atom_site_label_2
_ccdc_geom_bond_type
C1    O11   A    
C16   O14   A    
C8    C13   A    
C23   C45   S    
C40   H19   S    
C46   H7    S    
C27   C29   A    
C1    O1    A    
C19   C20   A    
C18   C26   A    
C15   C47   S    
C44   O7    D    
C10   C52   A    
C41   O4    D    
N1    Zn1   S    
C7    C8    A    
C30   H2    S    
C34   C51   S    
C49   H8    S    
C47   O9    D    
C5    H1    S    
C19   N2    A    
C3    H17   S    
C5    C6    A    
C33   C49   S    
C12   C37   S    
C24   C29   A    
C41   H3    S    
C13   C40   S    
C42   H4    S    
O15   Zn2   S    
C21   C43   S    
C23   H10   S    
C44   H6    S    
C22   C25   A    
C2    C16   S    
C9    C10   A    
C11   H14   S    
O12   Zn1   S    
C18   H22   S    
C21   C22   A    
C42   O5    D    
C37   H11   S    
C38   H12   S    
C39   O2    D    
O14   Zn1   S    
C24   N2    A    
C25   C26   A    
C32   C37   S    
O1    Zn1   S    
O16   Zn1   S    
C28   O17   A    
C32   C34   S    
C9    C14   A    
C31   N1    A    
C45   C49   S    
C23   C34   S    
O11   Zn2   S    
C38   O18   D    
C35   C50   T    
C26   C27   A    
C40   O3    D    
C28   O16   A    
C15   C52   A    
C2    C15   A    
C36   C51   T    
C46   O8    D    
C31   H20   S    
C20   C44   S    
O17   Zn2   S    
C22   C24   A    
C4    O13   A    
C25   C30   A    
C7    C9    A    
C34   C49   S    
C32   C42   S    
C33   C38   S    
C12   C45   S    
C3    C5    A    
C12   C50   S    
C6    C7    A    
C4    O12   A    
C1    C17   S    
C8    C17   A    
C29   C46   S    
C32   C33   S    
O13   Zn2   S    
C23   C37   S    
N2    Zn2   S    
C30   N1    A    
C11   C13   A    
C45   H9    S    
C39   H18   S    
C3    C17   A    
C48   O10   D    
C48   H15   S    
C2    C14   A    
C4    C35   S    
C10   C11   A    
C43   H5    S    
C48   C52   S    
C20   C21   A    
C28   C36   S    
C16   O15   A    
C43   O6    D    
C14   H16   S    
C6    C39   S    
C18   C31   A    
C12   C33   S    
C27   H21   S    
C47   H13   S    
C19   C41   S    
