data_mof_unit_49583.cif
_audit_creation_date              2013-03-05T15:58:05-0500
_audit_creation_method            fapswitch 2.2
_symmetry_space_group_name_H-M    P1
_symmetry_Int_Tables_number       1
_space_group_crystal_system       triclinic
_cell_length_a                    12.798422
_cell_length_b                    13.184767
_cell_length_c                    14.894233
_cell_angle_alpha                 93.433002
_cell_angle_beta                  103.043287
_cell_angle_gamma                 81.441394
_cell_volume                      2420.30379277

loop_
_atom_site_label
_atom_site_type_symbol
_atom_site_description
_atom_site_fract_x
_atom_site_fract_y
_atom_site_fract_z
_atom_type_partial_charge
O1    O     O_R   0.366740 0.627160 0.477250 -0.582819
O2    O     O_R   0.544830 0.662520 0.507680 -0.680996
C1    C     C_R   0.439330 0.690865 0.484416 0.882417
O3    O     O_R   0.410940 0.482340 0.616930 -0.642867
O4    O     O_R   0.589030 0.517700 0.647360 -0.596021
C2    C     C_R   0.501944 0.499632 0.672499 0.913545
Zn1   Zn    Zn3+2 0.381090 0.476390 0.479680 0.966712
Zn2   Zn    Zn3+2 0.618910 0.523610 0.520320 1.018327
O5    O     O_R   0.455170 0.337480 0.492320 -0.682047
O6    O     O_R   0.633260 0.372840 0.522750 -0.469664
O7    O     O_R   0.410970 0.482300 0.352640 -0.625454
O8    O     O_R   0.589060 0.517660 0.383070 -0.554804
C3    C     C_R   0.561200 0.309034 0.510012 0.963246
C4    C     C_R   0.498015 0.499838 0.327348 0.930441
C5    C     C_R   0.475905 0.410006 0.176281 0.370533
C6    C     C_R   0.491237 0.500181 0.230000 -0.195935
C7    C     C_R   0.493384 0.593336 0.191172 0.361249
C8    C     C_R   0.474695 0.599545 0.094849 -0.174576
C9    C     C_R   0.468452 0.507685 0.040950 -0.141731
C10   C     C_R   0.460202 0.414639 0.080335 -0.057668
C11   C     C_R   0.467300 0.693736 0.051175 0.408673
C12   C     C_R   0.479058 0.693367 0.960666 0.477764
C13   C     C_R   0.477638 0.601033 0.906587 -0.061412
C14   C     C_R   0.474715 0.507777 0.948265 -0.022086
C15   C     C_R   0.483857 0.413240 0.898576 -0.053554
C16   C     C_R   0.456484 0.325092 0.932178 0.351157
C17   C     C_R   0.440356 0.327214 0.022430 0.407048
C18   C     C_R   0.475298 0.598280 0.811440 -0.092251
C19   C     C_R   0.504100 0.503126 0.769214 -0.123832
C20   C     C_R   0.518278 0.410429 0.815449 -0.007687
C21   C     C_R   0.730816 0.050489 0.500767 -0.248593
H1    H     H_    0.810873 0.017871 0.492017 0.201614
C22   C     C_R   0.599773 0.199256 0.515749 -0.051550
C23   C     C_R   0.299500 0.845628 0.482781 0.331587
C24   C     C_R   0.284209 0.945501 0.522524 -0.088137
C25   C     C_R   0.375378 0.998508 0.551492 -0.093912
C26   C     C_R   0.468149 0.966520 0.513093 -0.028042
C27   C     C_R   0.482339 0.866875 0.474988 -0.027724
C28   C     C_R   0.547901 0.029726 0.511727 0.016005
C29   C     C_R   0.649189 0.988052 0.492039 0.091506
C30   C     C_R   0.663439 0.887974 0.456347 0.420822
C31   C     C_R   0.576064 0.832478 0.440168 -0.245614
C32   C     C_R   0.522937 0.135383 0.516739 -0.336526
C33   C     C_R   0.707576 0.156725 0.515333 0.444631
C34   C     C_R   0.404256 0.802061 0.475285 -0.096769
H2    H     H_    0.440148 0.168495 0.515549 0.185206
H3    H     H_    0.583157 0.761090 0.401358 0.218744
C35   C     C_R   0.086508 0.360062 0.352987 0.408166
H4    H     H_    0.888324 0.318864 0.333718 0.176133
N1    N     N_R   0.222190 0.444670 0.452360 -0.215348
C36   C     C_R   0.808909 0.612599 0.625668 0.002798
C37   C     C_R   0.918404 0.606967 0.668051 -0.140282
C38   C     C_R   0.996222 0.549648 0.627795 0.488330
C39   C     C_R   0.965772 0.509875 0.536435 -0.132844
C40   C     C_R   0.854236 0.499467 0.503359 0.113534
C41   C     C_R   0.042417 0.471964 0.480976 -0.034115
C42   C     C_R   0.011946 0.404545 0.405396 -0.019305
C43   C     C_R   0.908708 0.378680 0.384932 -0.331060
C44   C     C_R   0.829945 0.424916 0.430696 0.532328
C45   C     C_R   0.147618 0.500425 0.495186 -0.017513
C46   C     C_R   0.193618 0.376659 0.381506 0.011223
N2    N     N_R   0.776970 0.554790 0.547140 -0.155092
H5    H     H_    0.943473 0.643198 0.735219 0.213492
O9    O     O_3   0.485841 0.315364 0.215741 -0.716990
H6    H     H_    0.518340 0.318806 0.282514 0.313470
O10   O     O_3   0.759468 0.848813 0.431219 -0.752467
H7    H     H_    0.756234 0.776727 0.408799 0.341830
O11   O     O_3   0.215884 0.788189 0.452585 -0.714857
H8    H     H_    0.146415 0.834379 0.436960 0.346171
C47   C     C_2   0.384113 0.070534 0.633915 0.486802
H9    H     H_    0.460446 0.097998 0.664217 0.087573
O12   O     O_2   0.309410 0.095719 0.672651 -0.477424
C48   C     C_2   0.175974 0.990236 0.537994 0.529572
H10   H     H_    0.123353 0.941754 0.556976 0.086982
O13   O     O_2   0.143284 0.081427 0.526719 -0.523236
C49   C     C_2   0.272030 0.328296 0.327413 0.617615
H11   H     H_    0.344729 0.279742 0.359394 0.057960
O14   O     O_2   0.253468 0.339744 0.244291 -0.524187
O15   O     O_3   0.058066 0.297959 0.275851 -0.713436
H12   H     H_    0.988984 0.331383 0.238049 0.341563
O16   O     O_3   0.520703 0.674728 0.249955 -0.791356
H13   H     H_    0.573282 0.707695 0.226018 0.365864
C50   C     C_2   0.173357 0.598122 0.543374 0.624484
H14   H     H_    0.253256 0.605199 0.583585 0.112676
O17   O     O_2   0.104104 0.673361 0.537797 -0.550063
C51   C     C_2   0.730082 0.673265 0.673485 0.473146
H15   H     H_    0.658796 0.718927 0.635771 0.083353
O18   O     O_2   0.746574 0.676070 0.757574 -0.581359
O19   O     O_3   0.098415 0.527036 0.683050 -0.743504
H16   H     H_    0.132820 0.460710 0.661053 0.340247
O20   O     O_3   0.734386 0.386058 0.410720 -0.697840
H17   H     H_    0.727663 0.339726 0.355270 0.314293
O21   O     O_3   0.449282 0.788097 0.094539 -0.671776
H18   H     H_    0.399426 0.782492 0.135611 0.371499
O22   O     O_3   0.498163 0.783961 0.929766 -0.642196
H19   H     H_    0.554380 0.766708 0.893044 0.334772
C52   C     C_2   0.434752 0.690546 0.753422 0.438265
H20   H     H_    0.469306 0.701691 0.695192 0.017911
O23   O     O_2   0.358858 0.752372 0.767806 -0.484789
C53   C     C_2   0.578522 0.313526 0.783918 0.463981
H21   H     H_    0.602809 0.247928 0.828152 0.124388
O24   O     O_2   0.607939 0.306789 0.711273 -0.593627
O25   O     O_3   0.435475 0.242299 0.872374 -0.749659
H22   H     H_    0.423231 0.184157 0.905925 0.409841
O26   O     O_3   0.403111 0.244413 0.051138 -0.685802
H23   H     H_    0.349527 0.271480 0.088503 0.406219
O27   O     O_3   0.786984 0.219307 0.524595 -0.703823
H24   H     H_    0.856931 0.176689 0.521659 0.348509

loop_
_geom_bond_atom_site_label_1
_geom_bond_atom_site_label_2
_geom_bond_distance
_ccdc_geom_bond_type
C18   C52   1.493822 S    
C30   C31   1.394555 A    
O21   H18   0.991203 S    
C40   C44   1.430305 A    
C8    C11   1.417168 A    
C12   O22   1.379088 S    
C24   C25   1.419663 A    
C52   H20   1.084940 S    
C42   C43   1.376547 A    
C35   C42   1.406690 A    
C38   C39   1.419331 A    
C21   C29   1.402800 A    
Zn1   O7    2.021320 S    
C16   C17   1.403347 A    
C19   C20   1.406870 A    
C35   O15   1.382083 S    
C18   C19   1.406377 A    
C49   O14   1.221026 D    
C27   C31   1.415706 A    
O4    C2    1.310452 A    
O7    C4    1.308808 A    
C51   O18   1.221467 D    
C17   O26   1.380108 S    
C5    C6    1.406012 A    
C40   N2    1.398055 A    
C20   C53   1.498598 S    
C41   C42   1.412309 A    
C23   C24   1.415932 A    
C48   H10   1.085269 S    
O5    C3    1.323079 A    
C27   C34   1.409115 A    
C24   C48   1.484742 S    
C21   H1    1.083584 S    
O11   H8    0.988915 S    
C5    O9    1.387635 S    
O6    C3    1.314195 A    
C47   H9    1.084403 S    
O10   H7    0.991974 S    
C11   C12   1.389430 A    
C48   O13   1.221306 D    
C36   N2    1.373392 A    
O3    Zn1   1.992034 S    
C36   C51   1.476714 S    
C52   O23   1.221149 D    
C25   C47   1.500484 S    
O16   H13   0.991354 S    
C46   C49   1.475050 S    
C5    C10   1.401231 A    
C39   C41   1.436908 A    
C21   C33   1.402228 A    
C36   C37   1.393985 A    
C22   C32   1.389597 A    
C14   C15   1.414308 A    
O3    C2    1.309525 A    
C23   O11   1.379935 S    
O20   H17   0.992879 S    
C51   H15   1.075204 S    
C8    C9    1.414613 A    
C28   C32   1.383512 A    
C15   C16   1.412072 A    
C1    C34   1.473056 S    
H4    C43   1.082246 S    
C41   C45   1.417988 A    
O1    C1    1.325425 A    
C3    C22   1.459134 S    
C26   C27   1.402613 A    
C16   O25   1.385678 S    
C50   H14   1.076268 S    
Zn2   O8    1.992034 S    
C53   O24   1.217671 D    
C7    C8    1.405533 A    
C23   C34   1.403781 A    
C44   O20   1.360420 S    
C13   C18   1.409077 A    
C49   H11   1.077778 S    
C29   C30   1.394659 A    
C50   O17   1.221269 D    
O8    C4    1.312785 A    
C38   O19   1.379957 S    
C4    C6    1.433082 S    
O27   H24   0.991995 S    
C28   C29   1.417257 A    
C37   C38   1.383393 A    
C33   O27   1.380361 S    
C15   C20   1.401504 A    
Zn1   O5    1.931996 S    
C39   C40   1.425497 A    
C25   C26   1.429432 A    
O1    Zn1   1.970687 S    
C22   C33   1.411127 A    
O2    Zn2   1.931997 S    
Zn1   N1    2.082197 S    
C37   H5    1.084195 S    
O4    Zn2   2.021320 S    
C30   O10   1.383023 S    
C10   C17   1.416404 A    
O26   H23   0.991478 S    
N1    C45   1.366728 A    
O9    H6    0.988769 S    
C9    C10   1.418784 A    
O2    C1    1.317954 A    
C43   C44   1.389201 A    
C26   C28   1.414681 A    
C35   C46   1.386653 A    
C6    C7    1.394998 A    
C11   O21   1.379780 S    
C53   H21   1.083755 S    
C45   C50   1.480444 S    
C9    C14   1.400825 A    
C7    O16   1.378917 S    
C31   H3    1.077669 S    
C32   H2    1.080919 S    
C13   C14   1.419199 A    
O15   H12   0.990943 S    
C2    C19   1.432619 S    
Zn2   O6    1.970688 S    
O25   H22   0.989398 S    
N1    C46   1.364400 A    
C12   C13   1.419057 A    
C47   O12   1.220142 D    
O19   H16   0.991035 S    
O22   H19   0.991250 S    
Zn2   N2    2.069755 S    
