data_mof_unit_46285.cif
_audit_creation_date              2012-10-26T17:10:30-0400
_audit_creation_method            fapswitch 2.2
_symmetry_space_group_name_H-M    P1
_symmetry_Int_Tables_number       1
_space_group_crystal_system       triclinic
_cell_length_a                    16.928202
_cell_length_b                    16.885228
_cell_length_c                    16.920782
_cell_angle_alpha                 68.130512
_cell_angle_beta                  67.535146
_cell_angle_gamma                 67.942599
_cell_volume                      3991.60704006

loop_
_atom_site_label
_atom_site_type_symbol
_atom_type_description
_atom_site_fract_x
_atom_site_fract_y
_atom_site_fract_z
_atom_type_partial_charge
C1    C     C_R   0.599666 0.007467 0.606085 -0.008440
C2    C     C_R   0.169135 0.431520 0.981782 0.576239
C3    C     C_R   0.564657 0.029684 0.829176 0.561340
C4    C     C_R   0.430892 0.982542 0.168804 0.581307
C5    C     C_R   0.434213 0.170362 0.974874 0.563792
C6    C     C_R   0.567342 0.829952 0.020922 0.571406
C7    C     C_R   0.976785 0.433548 0.170204 0.553733
C8    C     C_R   0.019762 0.567493 0.830213 0.585566
C9    C     C_R   0.170525 0.971856 0.434775 0.563625
C10   C     C_R   0.830588 0.019704 0.568585 0.595588
C11   C     C_R   0.550091 0.994974 0.555637 0.054934
C12   C     C_R   0.399723 0.978541 0.403993 -0.010298
C13   C     C_R   0.452025 0.982972 0.456846 0.055209
C14   C     C_R   0.028953 0.543325 0.538992 0.115113
C15   C     C_R   0.009915 0.448545 0.444570 0.119716
C16   C     C_R   0.549086 0.545378 0.008156 0.118257
C17   C     C_R   0.451777 0.449479 0.995591 0.122058
C18   C     C_R   0.587949 0.994477 0.465671 -0.109424
C19   C     C_R   0.412645 0.989326 0.544993 -0.115565
C20   C     C_R   0.103954 0.499978 0.482072 -0.071630
C21   C     C_R   0.935218 0.491523 0.501784 -0.090054
C22   C     C_R   0.555269 0.540317 0.925087 -0.082397
C23   C     C_R   0.036793 0.592150 0.591118 -0.006049
C24   C     C_R   0.448607 0.451563 0.078891 -0.079182
C25   C     C_R   0.542701 0.980721 0.420222 -0.110817
C26   C     C_R   0.462917 0.986166 0.595381 -0.116040
C27   C     C_R   0.505081 0.494653 0.918705 -0.078412
C28   C     C_R   0.495171 0.501063 0.084998 -0.085953
C29   C     C_R   0.094238 0.454360 0.433618 -0.086631
C30   C     C_R   0.944465 0.540474 0.546837 -0.108145
C31   C     C_R   0.554361 0.040594 0.682109 0.182734
C32   C     C_R   0.427307 0.002885 0.309607 0.174732
C33   C     C_R   0.044018 0.679438 0.551235 0.174944
C34   C     C_R   0.998915 0.398589 0.395653 -0.007725
C35   C     C_R   0.004856 0.307802 0.432080 0.177159
C36   C     C_R   0.683176 0.553047 0.030292 0.174754
C37   C     C_R   0.308461 0.432042 0.002765 0.176973
C38   C     C_R   0.320278 0.951149 0.446182 0.178001
C39   C     C_R   0.693858 0.987478 0.578875 0.175503
C40   C     C_R   0.445304 0.317412 0.967460 0.173631
C41   C     C_R   0.563781 0.687965 0.006024 0.179931
C42   C     C_R   0.980717 0.442647 0.313594 0.168150
C43   C     C_R   0.028479 0.554355 0.682405 0.181524
C44   C     C_R   0.603074 0.042105 0.732587 -0.006577
C45   C     C_R   0.599400 0.596313 0.015221 -0.006605
C46   C     C_R   0.387742 0.981959 0.262611 -0.021430
C47   C     C_R   0.028433 0.734045 0.605138 -0.028036
C48   C     C_R   0.984206 0.262444 0.389834 -0.022823
C49   C     C_R   0.732460 0.602556 0.034481 -0.033406
C50   C     C_R   0.262494 0.389493 0.983381 -0.028902
C51   C     C_R   0.266323 0.961324 0.395218 -0.011423
C52   C     C_R   0.736644 0.020643 0.612073 -0.010110
C53   C     C_R   0.395463 0.265866 0.967922 -0.025592
C54   C     C_R   0.606582 0.734381 0.024507 -0.027163
C55   C     C_R   0.973972 0.394114 0.264702 -0.026950
C56   C     C_R   0.400914 0.398871 0.988517 -0.003576
C57   C     C_R   0.022661 0.606204 0.735034 -0.023556
C58   C     C_R   0.691011 0.047269 0.691352 0.163070
C59   C     C_R   0.303287 0.966776 0.304598 0.162966
C60   C     C_R   0.013223 0.697777 0.697596 0.160373
C61   C     C_R   0.971687 0.305067 0.304358 0.167200
C62   C     C_R   0.689621 0.689796 0.042157 0.156091
C63   C     C_R   0.305437 0.304151 0.969586 0.168215
C64   C     C_3   0.439042 0.164593 0.675545 -0.098469
C65   C     C_3   0.448772 0.139855 0.242846 -0.104165
C66   C     C_3   0.148808 0.709381 0.420168 -0.076892
C67   C     C_R   0.022034 0.829884 0.566813 0.564780
C68   C     C_3   0.117663 0.222584 0.494208 -0.083557
C69   C     C_3   0.708863 0.414412 0.123443 -0.081274
C70   C     C_3   0.220388 0.487081 0.121509 -0.072871
C71   C     C_3   0.326337 0.821412 0.553603 -0.108922
C72   C     C_3   0.763367 0.846886 0.567515 -0.110477
C73   C     C_3   0.579073 0.291866 0.863612 -0.080856
C74   C     C_3   0.501677 0.770891 0.892586 -0.075287
C75   C     C_3   0.886595 0.581511 0.293906 -0.085163
C76   C     C_3   0.943983 0.455217 0.755109 -0.069958
C77   C     C_3   0.774387 0.046969 0.774796 -0.030369
C78   C     C_R   0.981468 0.169230 0.431836 0.582712
C79   C     C_3   0.214442 0.024098 0.208816 -0.047914
C80   C     C_3   0.895344 0.779293 0.782575 -0.070594
C81   C     C_3   0.023576 0.209313 0.214955 -0.051084
C82   C     C_3   0.709102 0.713358 0.155897 -0.084295
C83   C     C_3   0.209124 0.215157 0.025287 -0.045961
C84   C     C_R   0.829149 0.565762 0.025334 0.557694
Cu1   Cu    Cu3+1 0.995180 0.995180 0.424630 0.972595
Cu2   Cu    Cu3+1 0.004820 0.004820 0.575370 0.983973
Cu3   Cu    Cu3+1 0.995180 0.424630 0.995180 0.941408
Cu4   Cu    Cu3+1 0.004820 0.575370 0.004820 1.025872
Cu5   Cu    Cu3+1 0.424630 0.995180 0.995180 0.966962
Cu6   Cu    Cu3+1 0.575370 0.004820 0.004820 0.970936
H1    H     H_    0.431098 0.977953 0.665425 0.177255
H2    H     H_    0.598445 0.572088 0.865253 0.084108
H3    H     H_    0.869732 0.487507 0.511154 0.093057
H4    H     H_    0.169704 0.501052 0.475435 0.093739
H5    H     H_    0.463790 0.185428 0.601796 0.109799
H6    H     H_    0.463532 0.195958 0.705656 0.126624
H7    H     H_    0.365523 0.189207 0.693994 0.155273
H8    H     H_    0.409365 0.161773 0.304485 0.095993
H9    H     H_    0.405716 0.157871 0.199409 0.102806
H10   H     H_    0.500152 0.176513 0.206125 0.159743
H11   H     H_    0.192111 0.640724 0.436374 0.084617
H12   H     H_    0.580125 0.969594 0.355746 0.178113
H13   H     H_    0.168503 0.753858 0.439516 0.128375
H14   H     H_    0.160782 0.732311 0.347104 0.158874
H15   H     H_    0.157707 0.271106 0.458901 0.086392
H16   H     H_    0.138089 0.174203 0.455159 0.110430
H17   H     H_    0.133484 0.185166 0.558261 0.152662
H18   H     H_    0.637786 0.424124 0.162177 0.091185
H19   H     H_    0.744834 0.431105 0.155442 0.126651
H20   H     H_    0.737704 0.342972 0.126006 0.151566
H21   H     H_    0.265443 0.438071 0.161686 0.063888
H22   H     H_    0.164334 0.460450 0.135068 0.137593
H23   H     H_    0.885816 0.574499 0.589724 0.078251
H24   H     H_    0.192395 0.548021 0.144723 0.167690
H25   H     H_    0.400180 0.800125 0.529427 0.108216
H26   H     H_    0.296462 0.795260 0.523587 0.111595
H27   H     H_    0.307021 0.791769 0.626392 0.151741
H28   H     H_    0.803732 0.806012 0.519939 0.160099
H29   H     H_    0.701364 0.825592 0.605536 0.097709
H30   H     H_    0.803050 0.833551 0.612725 0.092763
H31   H     H_    0.559158 0.360239 0.821377 0.086884
H32   H     H_    0.566066 0.245017 0.841265 0.142255
H33   H     H_    0.651808 0.273982 0.852777 0.146134
H34   H     H_    0.152414 0.422908 0.388352 0.078498
H35   H     H_    0.533510 0.721014 0.853964 0.085442
H36   H     H_    0.543986 0.816580 0.869770 0.111091
H37   H     H_    0.437740 0.810885 0.877232 0.153823
H38   H     H_    0.852652 0.573595 0.365848 0.096548
H39   H     H_    0.849983 0.563271 0.263898 0.105367
H40   H     H_    0.883495 0.652752 0.262392 0.142000
H41   H     H_    0.929345 0.431170 0.710946 0.127394
H42   H     H_    0.890888 0.516322 0.768665 0.083838
H43   H     H_    0.940609 0.403152 0.819139 0.163279
H44   H     H_    0.839629 0.061930 0.747352 0.145708
H45   H     H_    0.489955 0.504040 0.149695 0.089003
H46   H     H_    0.785413 0.974033 0.790727 0.101487
H47   H     H_    0.743596 0.068402 0.836896 0.138476
H48   H     H_    0.228980 0.086156 0.201114 0.056816
H49   H     H_    0.142256 0.031954 0.235182 0.123474
H50   H     H_    0.230314 0.014865 0.142444 0.129980
H51   H     H_    0.866178 0.823548 0.727157 0.084609
H52   H     H_    0.876212 0.817411 0.831169 0.150142
H53   H     H_    0.866423 0.721771 0.817380 0.097472
H54   H     H_    0.012424 0.143796 0.231057 0.129550
H55   H     H_    0.086953 0.199698 0.227619 0.055150
H56   H     H_    0.507897 0.494605 0.853789 0.091375
H57   H     H_    0.030366 0.235226 0.143207 0.123242
H58   H     H_    0.744032 0.746095 0.172835 0.134099
H59   H     H_    0.730957 0.640792 0.186441 0.082494
H60   H     H_    0.636496 0.739467 0.184944 0.112774
H61   H     H_    0.143337 0.230752 0.015463 0.130550
H62   H     H_    0.200119 0.229686 0.087755 0.052872
H63   H     H_    0.234980 0.143146 0.032878 0.123140
H64   H     H_    0.342713 0.997181 0.577139 0.179909
H65   H     H_    0.652640 0.004899 0.428487 0.181926
H66   H     H_    0.410825 0.414513 0.139170 0.082839
O1    O     O_R   0.124540 0.978640 0.385460 -0.510749
O2    O     O_R   0.124540 0.385460 0.978640 -0.497108
O3    O     O_R   0.021360 0.875460 0.614540 -0.469325
O4    O     O_R   0.978640 0.124540 0.385460 -0.502926
O5    O     O_R   0.013780 0.867370 0.487190 -0.473211
O6    O     O_R   0.986220 0.132630 0.512810 -0.470407
O7    O     O_R   0.867370 0.487190 0.013780 -0.486274
O8    O     O_R   0.132630 0.512810 0.986220 -0.471368
O9    O     O_R   0.487190 0.013780 0.867370 -0.472382
O10   O     O_R   0.512810 0.986220 0.132630 -0.466829
O11   O     O_R   0.512810 0.132630 0.986220 -0.478325
O12   O     O_R   0.875460 0.021360 0.614540 -0.519060
O13   O     O_R   0.487190 0.867370 0.013780 -0.470840
O14   O     O_R   0.986220 0.512810 0.132630 -0.488397
O15   O     O_R   0.013780 0.487190 0.867370 -0.481586
O16   O     O_R   0.132630 0.986220 0.512810 -0.481401
O17   O     O_R   0.867370 0.013780 0.487190 -0.459117
O18   O     O_3   0.462843 0.071483 0.708374 -0.569133
O19   O     O_3   0.491563 0.048189 0.262601 -0.560114
O20   O     O_3   0.057920 0.712952 0.460338 -0.536611
O21   O     O_3   0.025669 0.265431 0.511980 -0.533910
O22   O     O_3   0.718721 0.463769 0.033758 -0.541906
O23   O     O_R   0.978640 0.385460 0.124540 -0.507476
O24   O     O_3   0.265193 0.509294 0.029862 -0.532137
O25   O     O_3   0.294109 0.914416 0.536739 -0.566073
O26   O     O_3   0.744653 0.936891 0.519318 -0.559156
O27   O     O_3   0.536346 0.285693 0.954786 -0.541919
O28   O     O_3   0.483925 0.730061 0.984878 -0.528947
O29   O     O_3   0.976685 0.531992 0.278902 -0.542534
O30   O     O_3   0.031286 0.465244 0.718377 -0.535274
O31   O     O_3   0.722009 0.098625 0.715093 -0.555289
O32   O     O_3   0.261236 0.946258 0.261004 -0.521479
O33   O     O_3   0.989020 0.752239 0.751976 -0.511670
O34   O     O_R   0.021360 0.614540 0.875460 -0.460713
O35   O     O_3   0.947583 0.263288 0.263253 -0.520205
O36   O     O_3   0.731232 0.733126 0.062664 -0.519230
O37   O     O_3   0.262965 0.261776 0.947932 -0.511223
O38   O     O_R   0.385460 0.124540 0.978640 -0.499167
O39   O     O_R   0.614540 0.875460 0.021360 -0.474837
O40   O     O_R   0.614540 0.021360 0.875460 -0.533269
O41   O     O_R   0.385460 0.978640 0.124540 -0.500283
O42   O     O_R   0.875460 0.614540 0.021360 -0.474330

loop_
_geom_bond_atom_site_label_1
_geom_bond_atom_site_label_2
_ccdc_geom_bond_type
C35   O21   S    
Cu3   O7    S    
Cu3   Cu4   S    
C18   H65   S    
C11   C18   A    
C16   C28   A    
C82   H59   S    
C12   C32   A    
Cu6   O11   S    
C28   H45   S    
Cu1   O5    S    
C80   O33   S    
C71   O25   S    
C79   H49   S    
C34   C42   A    
C7    C55   S    
C10   C52   S    
C4    C46   S    
Cu1   Cu2   S    
C70   H24   S    
Cu4   O34   S    
C38   O25   S    
Cu1   O1    S    
C70   O24   S    
Cu2   O16   S    
C49   C84   S    
C5    C53   S    
C77   H47   S    
C65   H8    S    
C34   C35   A    
C40   C53   A    
C73   O27   S    
C76   H41   S    
C25   H12   S    
C74   H35   S    
C74   O28   S    
C48   C78   S    
C29   H34   S    
C68   O21   S    
C1    C31   A    
C23   C43   A    
C75   H38   S    
Cu4   O42   S    
C33   O20   S    
C19   C26   A    
C81   O35   S    
C2    C50   S    
C47   C60   A    
C37   C56   A    
C69   H19   S    
C81   H54   S    
Cu6   O39   S    
C8    O34   A    
C60   O33   S    
C40   C56   A    
C9    C51   S    
C6    O13   A    
Cu1   O17   S    
C63   O37   S    
C41   O28   S    
Cu2   O6    S    
C68   H17   S    
Cu2   O3    S    
C15   C34   S    
C8    O15   A    
C40   O27   S    
C10   O17   A    
C39   C52   A    
C53   C63   A    
C65   O19   S    
C50   C63   A    
C66   H11   S    
C66   O20   S    
C75   O29   S    
C18   C25   A    
C68   H16   S    
C6    C54   S    
C35   C48   A    
C47   C67   S    
C6    O39   A    
C69   H18   S    
C15   C29   A    
C83   H61   S    
C20   C29   A    
C32   O19   S    
C3    C44   S    
C17   C24   A    
Cu4   O14   S    
C79   O32   S    
C71   H27   S    
C7    O23   A    
C17   C27   A    
C66   H14   S    
C36   C45   A    
Cu2   O12   S    
C65   H9    S    
C31   C44   A    
C44   C58   A    
C43   C57   A    
C57   C60   A    
C62   O36   S    
C38   C51   A    
C54   C62   A    
C43   O30   S    
C23   C33   A    
C26   H1    S    
C14   C30   A    
Cu3   O23   S    
C65   H10   S    
C14   C23   S    
C83   O37   S    
C36   O22   S    
C14   C20   A    
C69   O22   S    
C69   H20   S    
C67   O5    A    
C74   H37   S    
C9    O1    A    
C2    O2    A    
C80   H53   S    
Cu3   O15   S    
C72   H30   S    
C71   H25   S    
C59   O32   S    
C41   C45   A    
C17   C56   S    
Cu5   O9    S    
C82   H60   S    
C84   O7    A    
C52   C58   A    
C42   O29   S    
C78   O4    A    
C64   H7    S    
Cu1   O4    S    
C78   O6    A    
C81   H55   S    
C22   C27   A    
C33   C47   A    
C51   C59   A    
C68   H15   S    
C2    O8    A    
C76   O30   S    
C3    O9    A    
C83   H62   S    
C19   H64   S    
C37   O24   S    
C20   H4    S    
C4    O41   A    
C16   C22   A    
C49   C62   A    
C82   O36   S    
C58   O31   S    
C32   C46   A    
C66   H13   S    
C24   C28   A    
C64   H5    S    
C13   C25   A    
C16   C45   S    
C82   H58   S    
C76   H43   S    
C75   H40   S    
C83   H63   S    
Cu5   O41   S    
C21   C30   A    
C80   H52   S    
C3    O40   A    
C11   C26   A    
Cu3   O2    S    
C84   O42   A    
C42   C55   A    
Cu5   O13   S    
Cu4   O8    S    
C37   C50   A    
C76   H42   S    
C81   H57   S    
C48   C61   A    
C74   H36   S    
C21   H3    S    
C27   H56   S    
C77   O31   S    
Cu5   O38   S    
C55   C61   A    
C72   H29   S    
C31   O18   S    
C4    O10   A    
C71   H26   S    
C79   H50   S    
C64   H6    S    
C5    O11   A    
C12   C38   A    
C70   H22   S    
C41   C54   A    
C39   O26   S    
C70   H21   S    
C1    C39   A    
C72   O26   S    
C77   H46   S    
C24   H66   S    
C15   C21   A    
C79   H48   S    
Cu6   O40   S    
C12   C13   S    
C46   C59   A    
C10   O12   A    
C73   H32   S    
C77   H44   S    
C7    O14   A    
C72   H28   S    
C61   O35   S    
C13   C19   A    
C22   H2    S    
C9    O16   A    
C67   O3    A    
C1    C11   S    
Cu5   Cu6   S    
C64   O18   S    
C80   H51   S    
C8    C57   S    
Cu6   O10   S    
C36   C49   A    
C75   H39   S    
C73   H31   S    
C5    O38   A    
C30   H23   S    
C73   H33   S    
