data_mof_unit_65428.cif
_audit_creation_date              2012-10-26T21:14:25-0400
_audit_creation_method            fapswitch 2.2
_symmetry_space_group_name_H-M    P1
_symmetry_Int_Tables_number       1
_space_group_crystal_system       triclinic
_cell_length_a                    11.107903
_cell_length_b                    19.41279
_cell_length_c                    18.153114
_cell_angle_alpha                 89.937197
_cell_angle_beta                  102.591622
_cell_angle_gamma                 90.262592
_cell_volume                      3820.26574363

loop_
_atom_site_label
_atom_site_type_symbol
_atom_type_description
_atom_site_fract_x
_atom_site_fract_y
_atom_site_fract_z
_atom_type_partial_charge
C1    C     C_R   0.500111 0.367443 0.500067 0.554136
C2    C     C_R   0.495976 0.927947 0.499258 0.004613
C3    C     C_R   0.420541 0.458094 0.710397 0.068451
C4    C     C_R   0.579427 0.541925 0.289598 0.068447
C5    C     C_R   0.418924 0.457339 0.787510 -0.130772
C6    C     C_R   0.581044 0.542680 0.212485 -0.130771
C7    C     C_R   0.499715 0.500156 0.838395 0.019826
C8    C     C_R   0.500286 0.499844 0.161605 0.019832
C9    C     C_R   0.580509 0.542985 0.808973 -0.135503
C10   C     C_R   0.419524 0.456996 0.191031 -0.135499
C11   C     C_R   0.579159 0.542096 0.731458 0.057299
C12   C     C_R   0.499903 0.632557 0.499935 0.554144
C13   C     C_R   0.420874 0.457884 0.268547 0.057301
C14   C     C_R   0.519858 0.561266 0.963939 -0.103495
C15   C     C_R   0.480145 0.438734 0.036059 -0.103493
C16   C     C_R   0.263052 0.501794 0.469708 0.573685
C17   C     C_R   0.736948 0.498206 0.530293 0.573676
C18   C     C_R   0.520047 0.561180 0.041353 -0.105969
C19   C     C_R   0.479953 0.438820 0.958645 -0.105972
C20   C     C_R   0.500193 0.499913 0.078746 0.033407
C21   C     C_R   0.499808 0.500087 0.921253 0.033401
C22   C     C_2   0.129782 0.495307 0.453231 -0.082599
C23   C     C_R   0.499011 0.708242 0.499747 0.019799
C24   C     C_2   0.870217 0.504692 0.546770 -0.082598
C25   C     C_2   0.063362 0.513753 0.503636 0.064390
C26   C     C_2   0.936638 0.486246 0.496365 0.064398
C27   C     C_R   0.498611 0.744734 0.432803 -0.113859
C28   C     C_R   0.501457 0.255260 0.567204 -0.113871
C29   C     C_R   0.497166 0.816470 0.432599 -0.080956
C30   C     C_R   0.503028 0.183524 0.567415 -0.080968
C31   C     C_R   0.495361 0.852513 0.499107 0.048530
C32   C     C_R   0.504979 0.147492 0.500921 0.048537
C33   C     C_R   0.497086 0.816477 0.566160 -0.100679
C34   C     C_R   0.501090 0.291758 0.500267 0.019786
C35   C     C_R   0.503299 0.183534 0.433878 -0.100667
C36   C     C_R   0.498433 0.744728 0.566486 -0.110498
C37   C     C_R   0.501833 0.255281 0.433545 -0.110500
C38   C     C_R   0.599088 0.962533 0.541573 -0.110423
C39   C     C_R   0.401287 0.037473 0.458446 -0.110419
C40   C     C_R   0.604254 0.034287 0.542404 0.101358
C41   C     C_R   0.396120 0.965721 0.457613 0.101343
C42   C     C_R   0.504395 0.072059 0.500761 0.004601
Cu1   Cu    Cu3+1 0.499960 0.500000 0.573360 0.979350
Cu2   Cu    Cu3+1 0.500040 0.500000 0.426640 0.979342
H1    H     H_    0.353594 0.424132 0.806835 0.100099
H2    H     H_    0.466331 0.390423 0.928346 0.109141
H3    H     H_    0.910729 0.532530 0.597820 0.121011
H4    H     H_    0.089270 0.467471 0.402179 0.121018
H5    H     H_    0.499591 0.717950 0.380636 0.131346
H6    H     H_    0.500347 0.282038 0.619357 0.131335
H7    H     H_    0.497778 0.843972 0.380719 0.138229
H8    H     H_    0.502383 0.156012 0.619285 0.138208
H9    H     H_    0.496749 0.843976 0.618014 0.125031
H10   H     H_    0.503757 0.156041 0.382036 0.125055
H11   H     H_    0.499049 0.717926 0.618923 0.138617
H12   H     H_    0.646350 0.575902 0.193159 0.100087
H13   H     H_    0.501260 0.282090 0.381118 0.138660
H14   H     H_    0.676482 0.933514 0.573171 0.145828
H15   H     H_    0.323892 0.066492 0.426850 0.145841
H16   H     H_    0.357821 0.425100 0.671822 0.131846
H17   H     H_    0.642120 0.574934 0.328171 0.131833
H18   H     H_    0.645720 0.576255 0.845646 0.097146
H19   H     H_    0.354338 0.423710 0.154363 0.097139
H20   H     H_    0.641841 0.575103 0.709522 0.122857
H21   H     H_    0.358218 0.424863 0.290486 0.122864
H22   H     H_    0.533359 0.609722 0.937241 0.111233
H23   H     H_    0.466647 0.390277 0.062756 0.111225
H24   H     H_    0.533666 0.609578 0.071649 0.109134
I1    I     I_    0.865366 0.409386 0.411587 -0.361580
I2    I     I_    0.134634 0.590612 0.588415 -0.361564
I3    I     I_    0.767914 0.081835 0.604001 -0.354166
I4    I     I_    0.232453 0.918185 0.396008 -0.354214
N1    N     N_R   0.499990 0.500020 0.683620 -0.218735
N2    N     N_R   0.500010 0.499980 0.316380 -0.218735
O1    O     O_R   0.499950 0.400180 0.561970 -0.512566
O2    O     O_R   0.500050 0.599820 0.438030 -0.512584
O3    O     O_R   0.500010 0.400190 0.438070 -0.498766
O4    O     O_R   0.499990 0.599810 0.561930 -0.498740
O5    O     O_R   0.320670 0.500000 0.539180 -0.467830
O6    O     O_R   0.679330 0.500000 0.460820 -0.467822
O7    O     O_R   0.320730 0.500010 0.415280 -0.508804
O8    O     O_R   0.679270 0.499990 0.584720 -0.508822

loop_
_geom_bond_atom_site_label_1
_geom_bond_atom_site_label_2
_ccdc_geom_bond_type
Cu1   N1    S    
C22   H4    S    
C40   I3    S    
C27   C29   A    
C34   C37   A    
C1    O3    A    
C14   C18   A    
C10   H19   S    
C19   H2    S    
C39   C41   A    
C13   H21   S    
Cu1   O4    S    
C15   C19   A    
C12   C23   S    
C8    C20   S    
C14   C21   A    
Cu2   O3    S    
C35   C37   A    
C24   C26   D    
C2    C41   A    
Cu1   O5    S    
C33   C36   A    
C17   O8    A    
Cu2   O2    S    
C38   H14   S    
C28   H6    S    
C22   C25   D    
C12   O4    A    
C31   C33   A    
C23   C27   A    
C30   C32   A    
C4    N2    A    
C3    H16   S    
C40   C42   A    
C15   H23   S    
C35   H10   S    
Cu1   O1    S    
C1    C34   S    
C39   C42   A    
C33   H9    S    
C15   C20   A    
C17   C24   S    
C9    H18   S    
C1    O1    A    
C32   C35   A    
Cu2   O6    S    
C4    C6    A    
Cu2   O7    S    
C11   N1    A    
C5    C7    A    
C6    C8    A    
C25   C26   S    
C7    C21   S    
C5    H1    S    
C4    H17   S    
C17   O6    A    
C2    C31   S    
Cu1   Cu2   S    
C2    C38   A    
C39   H15   S    
C14   H22   S    
Cu2   N2    S    
C9    C11   A    
C41   I4    S    
C11   H20   S    
C12   O2    A    
C29   H7    S    
C7    C9    A    
C30   H8    S    
C16   C22   S    
C19   C21   A    
C24   H3    S    
C6    H12   S    
C3    C5    A    
C10   C13   A    
C16   O5    A    
C28   C30   A    
C29   C31   A    
C36   H11   S    
C38   C40   A    
C16   O7    A    
C18   C20   A    
C3    N1    A    
C28   C34   A    
C27   H5    S    
C13   N2    A    
C8    C10   A    
C23   C36   A    
C26   I1    S    
C32   C42   S    
C25   I2    S    
C18   H24   S    
C37   H13   S    
Cu1   O8    S    
