data_mof_unit_46385.cif
_audit_creation_date              2012-12-10T17:48:49-0500
_audit_creation_method            fapswitch 2.2
_symmetry_space_group_name_H-M    P1
_symmetry_Int_Tables_number       1
_space_group_crystal_system       triclinic
_cell_length_a                    10.79272
_cell_length_b                    14.664491
_cell_length_c                    14.542535
_cell_angle_alpha                 64.840541
_cell_angle_beta                  103.941201
_cell_angle_gamma                 102.447981
_cell_volume                      2005.08051177

loop_
_atom_site_label
_atom_site_type_symbol
_atom_type_description
_atom_site_fract_x
_atom_site_fract_y
_atom_site_fract_z
_atom_type_partial_charge
C1    C     C_R   0.481642 0.119864 0.310913 0.800458
C2    C     C_3   0.878019 0.999299 0.494217 -0.003280
C3    C     C_3   0.936131 0.906989 0.590485 -0.013875
C4    C     C_3   0.962375 0.096999 0.510733 -0.225949
C5    C     C_R   0.468302 0.188072 0.199975 -0.083901
C6    C     C_R   0.502579 0.813758 0.796743 -0.119562
C7    C     C_R   0.444287 0.224646 0.017622 -0.197276
C8    C     C_R   0.469341 0.156290 0.120504 0.167759
C9    C     C_R   0.452841 0.289348 0.173610 -0.262760
C10   C     C_R   0.433813 0.359687 0.070516 0.084502
C11   C     C_R   0.426507 0.324896 0.992335 0.089397
C12   C     C_R   0.260505 0.002505 0.497405 0.784810
C13   C     C_R   0.426737 0.464225 0.042987 0.046134
C14   C     C_R   0.422614 0.532919 0.937753 0.048597
C15   C     C_R   0.388005 0.492013 0.859983 0.122813
C16   C     C_R   0.398406 0.389574 0.889012 -0.258496
C17   C     C_R   0.424448 0.502980 0.116699 -0.209503
C18   C     C_R   0.428701 0.606411 0.089550 -0.225156
C19   C     C_R   0.445516 0.675070 0.990558 0.145873
C20   C     C_R   0.450098 0.638838 0.915764 0.089894
C21   C     C_R   0.461704 0.779741 0.966345 -0.243378
C22   C     C_R   0.485945 0.849531 0.868842 -0.024971
C23   C     C_R   0.514711 0.880538 0.688503 0.788046
C24   C     C_R   0.492628 0.708964 0.824641 -0.245307
C25   C     C_R   0.735427 0.294162 0.652534 -0.311667
C26   C     C_R   0.694438 0.208667 0.629365 0.113956
C27   C     C_R   0.511413 0.281623 0.514759 0.014994
C28   C     C_R   0.546028 0.370067 0.536889 -0.007088
C29   C     C_R   0.662433 0.375458 0.605791 0.165461
C30   C     C_R   0.471144 0.453071 0.492546 0.041826
C31   C     C_R   0.517946 0.542185 0.513851 0.069649
C32   C     C_R   0.636740 0.544421 0.580802 -0.235715
C33   C     C_R   0.706076 0.462194 0.626810 -0.193667
C34   C     C_R   0.740027 0.999891 0.498152 0.769099
C35   C     C_R   0.349994 0.448503 0.429763 -0.279020
C36   C     C_R   0.276873 0.529432 0.384653 0.151614
C37   C     C_R   0.325825 0.620183 0.400448 0.130868
C38   C     C_R   0.444917 0.626194 0.467345 -0.057379
C39   C     C_R   0.257130 0.704808 0.352601 -0.327915
C40   C     C_R   0.303382 0.791364 0.372995 0.077103
C41   C     C_R   0.484830 0.716406 0.486263 -0.007737
C42   C     C_3   0.045296 0.012092 0.388530 -0.369356
C43   C     C_3   0.897169 0.999879 0.386988 0.173195
C44   C     C_3   0.076422 0.906466 0.582691 -0.402918
C45   C     C_3   0.105932 0.097646 0.513001 -0.440643
C46   C     C_3   0.123915 0.004763 0.495495 0.070948
Cu1   Cu    Cu3+1 0.465900 0.918260 0.475680 0.916399
Cu2   Cu    Cu3+1 0.534100 0.081740 0.524320 0.951085
H1    H     H_    0.071376 0.956243 0.366377 0.180958
H2    H     H_    0.953849 0.092614 0.587391 0.126753
H3    H     H_    0.139401 0.900080 0.657656 0.142036
H4    H     H_    0.945154 0.924856 0.659281 0.158131
H5    H     H_    0.381068 0.358927 0.830362 0.143394
H6    H     H_    0.522999 0.682634 0.776030 0.154707
H7    H     H_    0.425283 0.632993 0.147906 0.153552
H8    H     H_    0.441588 0.199875 0.956588 0.148225
H9    H     H_    0.457733 0.311932 0.235797 0.156176
H10   H     H_    0.078884 0.086690 0.329554 0.132861
H11   H     H_    0.416087 0.455429 0.195820 0.142442
H12   H     H_    0.454198 0.807067 0.023193 0.135817
H13   H     H_    0.795959 0.467203 0.678489 0.141155
H14   H     H_    0.568928 0.725246 0.540138 0.127381
H15   H     H_    0.248330 0.854862 0.337919 0.117710
H16   H     H_    0.824067 0.297027 0.706072 0.136812
H17   H     H_    0.750757 0.145860 0.664945 0.116841
H18   H     H_    0.428136 0.272471 0.459879 0.115569
H19   H     H_    0.679792 0.608739 0.599840 0.133268
H20   H     H_    0.307722 0.381080 0.415803 0.129621
H21   H     H_    0.167402 0.705541 0.299837 0.152292
H22   H     H_    0.088471 0.839736 0.570069 0.173730
H23   H     H_    0.161513 0.094948 0.589182 0.180201
H24   H     H_    0.146021 0.168819 0.453410 0.170676
N1    N     N_R   0.585360 0.204570 0.560800 -0.173413
N2    N     N_R   0.414550 0.795430 0.439160 -0.172153
O1    O     O_R   0.455060 0.022100 0.338110 -0.583968
O2    O     O_R   0.512640 0.160150 0.379180 -0.575271
O3    O     O_R   0.288900 0.930980 0.479450 -0.594573
O4    O     O_R   0.346480 0.069030 0.520520 -0.589777
O5    O     O_R   0.487360 0.839850 0.620820 -0.574098
O6    O     O_R   0.544940 0.977900 0.661890 -0.569258
O7    O     O_R   0.653520 0.930970 0.479480 -0.598781
O8    O     O_R   0.711100 0.069020 0.520550 -0.585228
C47   C     C_1   0.492462 0.956262 0.845986 0.249342
N3    N     N_1   0.497536 0.041718 0.827934 -0.302228
C48   C     C_3   0.502825 0.053652 0.140119 -0.367983
C49   C     C_3   0.381723 0.980760 0.128137 -0.822348
H25   H     H_    0.408065 0.903948 0.151078 0.235640
H26   H     H_    0.314304 0.975713 0.177363 0.252567
H27   H     H_    0.332422 0.007533 0.046576 0.244555
H28   H     H_    0.563589 0.063073 0.084037 0.199020
H29   H     H_    0.562865 0.019753 0.216651 0.214894
C50   C     C_3   0.319994 0.547268 0.749893 -0.374925
C51   C     C_3   0.201441 0.590350 0.747145 -0.814536
H30   H     H_    0.135724 0.529705 0.796113 0.249266
H31   H     H_    0.228778 0.653296 0.774153 0.256043
H32   H     H_    0.148879 0.620803 0.666739 0.231280
H33   H     H_    0.384251 0.606596 0.699581 0.200830
H34   H     H_    0.284796 0.493471 0.710819 0.197552
C52   C     C_3   0.144001 0.513609 0.323974 -0.398035
C53   C     C_3   0.145894 0.557476 0.208478 -0.824042
H35   H     H_    0.046127 0.551156 0.166192 0.252653
H36   H     H_    0.187767 0.638658 0.180493 0.244843
H37   H     H_    0.203246 0.513836 0.191635 0.256470
H38   H     H_    0.107733 0.431258 0.348414 0.216826
H39   H     H_    0.072755 0.546571 0.340573 0.201359
C54   C     C_1   0.845998 0.090690 0.300904 0.144040
N4    N     N_1   0.805842 0.160783 0.233127 -0.282651
C55   C     C_3   0.823160 0.908557 0.354987 -0.385902
C56   C     C_3   0.887741 0.812975 0.388212 -0.878656
H40   H     H_    0.954115 0.825071 0.335212 0.238972
H41   H     H_    0.941152 0.788485 0.467104 0.255687
H42   H     H_    0.812732 0.749225 0.383629 0.246009
H43   H     H_    0.726075 0.883840 0.375086 0.218533
H44   H     H_    0.802730 0.936211 0.269224 0.194711
C57   C     C_3   0.857320 0.799053 0.617855 -0.395483
C58   C     C_3   0.792877 0.766736 0.711607 -0.874358
H45   H     H_    0.866909 0.754357 0.782193 0.251904
H46   H     H_    0.737518 0.826420 0.701611 0.252404
H47   H     H_    0.727340 0.694791 0.721817 0.236622
H48   H     H_    0.783543 0.794172 0.552543 0.239348
H49   H     H_    0.920052 0.740078 0.637840 0.203997
C59   C     C_1   0.920987 0.196548 0.437626 0.292668
N5    N     N_1   0.888716 0.274600 0.381252 -0.278631

loop_
_geom_bond_atom_site_label_1
_geom_bond_atom_site_label_2
_ccdc_geom_bond_type
C51   H30   S    
C57   H49   S    
C45   H23   S    
Cu2   O2    S    
C19   C20   A    
Cu1   O5    S    
C42   H10   S    
C48   H29   S    
C50   H34   S    
C7    C8    A    
C45   C46   S    
C58   H45   S    
C7    C11   A    
C40   H15   S    
C30   C35   A    
C1    C5    S    
C7    H8    S    
C28   C29   A    
C19   C21   A    
C8    C48   S    
C56   H41   S    
C30   C31   A    
C49   H26   S    
C54   N4    T    
C24   H6    S    
C15   C16   A    
C6    C22   A    
C29   C33   A    
C26   N1    A    
C55   C56   S    
C18   C19   A    
C42   C46   S    
C55   H44   S    
C20   C24   A    
C16   H5    S    
C50   C51   S    
C41   N2    A    
C47   N3    T    
C40   N2    A    
C12   O4    A    
C44   H22   S    
C34   O7    A    
C13   C14   A    
C23   O6    A    
C9    C10   A    
Cu2   O4    S    
C2    C34   S    
C52   H38   S    
C15   C50   S    
C51   H31   S    
C21   C22   A    
C45   H24   S    
C1    O2    A    
C41   H14   S    
C44   C46   S    
C50   H33   S    
C4    C45   S    
C25   C29   A    
C52   H39   S    
C3    C44   S    
C1    O1    A    
Cu1   Cu2   S    
C14   C20   A    
C38   C41   A    
C12   C46   S    
C56   H42   S    
C39   C40   A    
C49   H25   S    
C25   C26   A    
C48   C49   S    
C49   H27   S    
C53   H37   S    
C4    H2    S    
C25   H16   S    
C55   H43   S    
C2    C4    S    
C5    C9    A    
C37   C38   A    
C11   C16   A    
C52   C53   S    
Cu2   O8    S    
C2    C43   S    
C3    H4    S    
C6    C24   A    
C12   O3    A    
C53   H36   S    
C17   C18   A    
C39   H21   S    
C4    C59   S    
C18   H7    S    
C21   H12   S    
C32   H19   S    
C44   H3    S    
C17   H11   S    
C51   H32   S    
C42   C43   S    
Cu1   O3    S    
C36   C37   A    
C26   H17   S    
Cu2   N1    S    
C31   C32   A    
Cu1   N2    S    
C10   C13   A    
C5    C8    A    
C48   H28   S    
C58   H47   S    
C31   C38   A    
C13   C17   A    
C22   C47   S    
Cu2   O6    S    
C28   C30   A    
C2    C3    S    
Cu1   O1    S    
C37   C39   A    
C27   H18   S    
C3    C57   S    
C56   H40   S    
C32   C33   A    
C35   H20   S    
C6    C23   S    
C53   H35   S    
C58   H46   S    
C36   C52   S    
C9    H9    S    
C43   C55   S    
Cu1   O7    S    
C10   C11   A    
C42   H1    S    
C33   H13   S    
C57   H48   S    
C27   C28   A    
C14   C15   A    
C35   C36   A    
C34   O8    A    
C23   O5    A    
C59   N5    T    
C27   N1    A    
C43   C54   S    
C57   C58   S    
