data_mof_unit_28540.cif
_audit_creation_date              2012-12-10T18:03:57-0500
_audit_creation_method            fapswitch 2.2
_symmetry_space_group_name_H-M    P1
_symmetry_Int_Tables_number       1
_space_group_crystal_system       triclinic
_cell_length_a                    10.838528
_cell_length_b                    9.633584
_cell_length_c                    10.874347
_cell_angle_alpha                 88.871378
_cell_angle_beta                  93.882688
_cell_angle_gamma                 89.953946
_cell_volume                      1132.6042184

loop_
_atom_site_label
_atom_site_type_symbol
_atom_type_description
_atom_site_fract_x
_atom_site_fract_y
_atom_site_fract_z
_atom_type_partial_charge
C1    C     C_R   0.262459 0.499876 0.500919 0.779273
C2    C     C_R   0.737624 0.499843 0.500340 0.775116
C3    C     C_R   0.412448 0.074668 0.428797 0.209343
C4    C     C_R   0.586042 0.070822 0.573414 0.203645
C5    C     C_R   0.408650 0.926326 0.435877 0.199497
C6    C     C_R   0.588351 0.922220 0.568632 0.249268
C7    C     C_R   0.501964 0.501033 0.262530 0.816580
C8    C     C_R   0.501124 0.498882 0.737234 0.799809
C9    C     C_R   0.501630 0.625212 0.059319 0.032726
C10   C     C_R   0.496165 0.621995 0.932281 0.032052
C11   C     C_R   0.512721 0.502056 0.129656 -0.103585
C12   C     C_R   0.508764 0.497942 0.870619 -0.092194
C13   C     C_R   0.537308 0.377909 0.068981 -0.216097
C14   C     C_R   0.536083 0.376041 0.940263 -0.224093
C15   C     C_3   0.401561 0.736627 0.915521 0.279867
C16   C     C_3   0.412030 0.744687 0.058807 0.273887
C17   C     C_R   0.063686 0.373644 0.496363 -0.190194
C18   C     C_R   0.935874 0.373645 0.495460 -0.191440
C19   C     C_R   0.871703 0.499443 0.501107 -0.010328
C20   C     C_R   0.128553 0.499388 0.502818 -0.011507
C21   C     C_R   0.936709 0.624869 0.508339 -0.183297
C22   C     C_R   0.064395 0.624685 0.510632 -0.185701
Cu1   Cu    Cu3+1 0.500000 0.640660 0.500000 0.988947
Cu2   Cu    Cu3+1 0.500000 0.359340 0.500000 0.935580
H1    H     H_    0.552978 0.281214 0.120200 0.171107
H2    H     H_    0.551886 0.278682 0.895683 0.163031
H3    H     H_    0.111259 0.275314 0.491923 0.151147
H4    H     H_    0.887669 0.275359 0.489653 0.151457
H5    H     H_    0.889406 0.723249 0.512161 0.148491
H6    H     H_    0.112371 0.722595 0.518908 0.147932
N1    N     N_R   0.500000 0.852070 0.500000 -0.178234
N2    N     N_R   0.500000 0.147940 0.500000 -0.174461
O1    O     O_R   0.319640 0.618740 0.499990 -0.551962
O2    O     O_R   0.680360 0.618740 0.500010 -0.560154
O3    O     O_R   0.319620 0.381170 0.499990 -0.592322
O4    O     O_R   0.680380 0.381170 0.500010 -0.594534
O5    O     O_R   0.499990 0.618810 0.319660 -0.546028
O6    O     O_R   0.500010 0.618810 0.680340 -0.539214
O7    O     O_R   0.499960 0.381240 0.319650 -0.599102
O8    O     O_R   0.500040 0.381240 0.680350 -0.596830
N3    N     N_3   0.448201 0.857911 0.849304 -0.552858
H7    H     H_    0.394931 0.944569 0.867941 0.219831
H8    H     H_    0.540022 0.878705 0.877944 0.194667
N4    N     N_3   0.298818 0.708650 0.119239 -0.570867
H9    H     H_    0.229204 0.779197 0.089587 0.212835
H10   H     H_    0.268293 0.608893 0.096501 0.208044
C23   C     C_3   0.276458 0.688889 0.854455 -0.840990
H11   H     H_    0.249500 0.584767 0.888939 0.207190
H12   H     H_    0.203057 0.765161 0.871490 0.216392
H13   H     H_    0.281901 0.682854 0.753191 0.257528
C24   C     C_3   0.474818 0.874852 0.114005 -0.857302
H14   H     H_    0.567090 0.893533 0.078616 0.204607
H15   H     H_    0.415460 0.967339 0.093350 0.210635
H16   H     H_    0.491330 0.861634 0.214883 0.266385
C25   C     C_3   0.317802 0.144779 0.339225 -0.813517
H17   H     H_    0.325089 0.256630 0.328220 0.284067
H18   H     H_    0.327384 0.105589 0.245248 0.187014
H19   H     H_    0.223076 0.122190 0.366626 0.190065
C26   C     C_3   0.680441 0.137058 0.662675 -0.821669
H20   H     H_    0.670955 0.248345 0.673525 0.282924
H21   H     H_    0.672541 0.092318 0.756607 0.184604
H22   H     H_    0.775040 0.117849 0.633673 0.194628
N5    N     N_3   0.305929 0.853033 0.378915 -0.509248
H23   H     H_    0.226553 0.884356 0.420193 0.185582
H24   H     H_    0.294234 0.881220 0.286169 0.228738
N6    N     N_3   0.682648 0.843385 0.637398 -0.522076
H25   H     H_    0.768887 0.877509 0.612026 0.181808
H26   H     H_    0.677263 0.859272 0.731371 0.203505

loop_
_geom_bond_atom_site_label_1
_geom_bond_atom_site_label_2
_ccdc_geom_bond_type
N6    H26   S    
C25   H17   S    
Cu2   N2    S    
C19   C21   A    
C24   H14   S    
Cu1   O5    S    
Cu1   O6    S    
C9    C11   A    
C9    C10   A    
C16   N4    S    
C3    C25   S    
C23   H11   S    
C16   C24   S    
C15   C23   S    
C8    C12   S    
C24   H16   S    
Cu1   O2    S    
N5    H24   S    
N6    H25   S    
C7    O5    A    
C1    O1    A    
C26   H20   S    
C23   H12   S    
Cu2   O4    S    
C13   C14   A    
C14   H2    S    
C7    C11   S    
C11   C13   A    
C13   H1    S    
C4    N2    A    
C10   C12   A    
C8    O6    A    
C4    C26   S    
Cu2   O8    S    
C9    C16   S    
N4    H10   S    
C17   C18   A    
C23   H13   S    
C10   C15   S    
C25   H18   S    
C3    N2    A    
C2    O2    A    
C26   H21   S    
Cu2   O3    S    
Cu1   Cu2   S    
C15   C16   S    
C17   H3    S    
C3    C5    A    
C12   C14   A    
C6    N6    S    
C17   C20   A    
C18   H4    S    
N4    H9    S    
C5    N5    S    
C4    C6    A    
C18   C19   A    
N3    H7    S    
C25   H19   S    
C2    O4    A    
C8    O8    A    
C1    O3    A    
C7    O7    A    
C1    C20   S    
C6    N1    A    
C22   H6    S    
C5    N1    A    
C2    C19   S    
C21   C22   A    
C21   H5    S    
Cu2   O7    S    
C15   N3    S    
N3    H8    S    
C24   H15   S    
C26   H22   S    
C20   C22   A    
N5    H23   S    
Cu1   O1    S    
Cu1   N1    S    
