data_mof_unit_48609.cif
_audit_creation_date              2012-10-26T20:44:03-0400
_audit_creation_method            fapswitch 2.2
_symmetry_space_group_name_H-M    P1
_symmetry_Int_Tables_number       1
_space_group_crystal_system       triclinic
_cell_length_a                    10.830305
_cell_length_b                    9.648977
_cell_length_c                    19.339031
_cell_angle_alpha                 89.998057
_cell_angle_beta                  92.312731
_cell_angle_gamma                 90.001352
_cell_volume                      2019.30895092

loop_
_atom_site_label
_atom_site_type_symbol
_atom_type_description
_atom_site_fract_x
_atom_site_fract_y
_atom_site_fract_z
_atom_type_partial_charge
C1    C     C_R   0.871551 0.500111 0.499119 0.020437
C2    C     C_R   0.737518 0.500020 0.499573 0.552227
C3    C     C_R   0.499548 0.500126 0.368174 0.543671
C4    C     C_R   0.500462 0.500116 0.631822 0.543708
C5    C     C_R   0.063860 0.374354 0.500869 -0.117279
C6    C     C_R   0.936115 0.625939 0.499383 -0.100253
C7    C     C_R   0.936128 0.374357 0.499077 -0.117313
C8    C     C_R   0.063896 0.625936 0.500664 -0.100239
C9    C     C_R   0.600476 0.445275 0.745096 -0.093025
C10   C     C_R   0.598156 0.560566 0.259788 -0.104102
C11   C     C_R   0.400147 0.444346 0.254843 -0.092990
C12   C     C_R   0.128449 0.500107 0.500879 0.020458
C13   C     C_R   0.401521 0.559446 0.740242 -0.104093
C14   C     C_R   0.603967 0.448921 0.817492 0.038704
C15   C     C_R   0.601482 0.559463 0.187514 0.039560
C16   C     C_R   0.396776 0.447927 0.182448 0.038711
C17   C     C_R   0.398329 0.558280 0.812519 0.039622
C18   C     C_R   0.501098 0.503919 0.851747 -0.033524
C19   C     C_R   0.499252 0.503996 0.148242 -0.033561
C20   C     C_R   0.435049 0.073805 0.449688 0.130351
C21   C     C_R   0.565645 0.925830 0.550009 0.128663
C22   C     C_R   0.564959 0.073807 0.550309 0.130344
C23   C     C_R   0.500586 0.629996 0.963996 -0.027671
C24   C     C_R   0.434355 0.925828 0.449992 0.128654
C25   C     C_R   0.500563 0.500905 0.706945 -0.008143
C26   C     C_R   0.499547 0.500964 0.293045 -0.008615
C27   C     C_2   0.364693 0.145219 0.393331 0.634389
C28   C     C_2   0.638447 0.853465 0.605184 0.638338
C29   C     C_2   0.635417 0.145235 0.606625 0.634473
C30   C     C_2   0.361516 0.853457 0.394836 0.638391
C31   C     C_2   0.717934 0.398794 0.855313 0.580394
C32   C     C_2   0.714774 0.612418 0.155185 0.581506
C33   C     C_2   0.283314 0.396568 0.144573 0.580301
C34   C     C_R   0.501127 0.378290 0.036020 -0.026717
C35   C     C_2   0.284640 0.609974 0.844900 0.581640
C36   C     C_R   0.498804 0.630008 0.035949 -0.027608
C37   C     C_R   0.500511 0.378263 0.964024 -0.026664
C38   C     C_R   0.499681 0.504145 0.072185 0.097695
C39   C     C_R   0.500808 0.504106 0.927808 0.097680
C40   C     C_R   0.262481 0.500018 0.500427 0.552273
Cu1   Cu    Cu3+1 0.500000 0.640660 0.500000 1.049189
Cu2   Cu    Cu3+1 0.500000 0.359340 0.500000 1.048492
H1    H     H_    0.678159 0.404136 0.718032 0.162593
H2    H     H_    0.650733 0.794473 0.705300 0.344001
H3    H     H_    0.794839 0.236162 0.639139 0.341089
H4    H     H_    0.349205 0.794362 0.294737 0.344025
H5    H     H_    0.111498 0.275816 0.502313 0.194433
H6    H     H_    0.888382 0.724468 0.498465 0.189238
H7    H     H_    0.888480 0.275823 0.497589 0.194434
H8    H     H_    0.111639 0.724463 0.501622 0.189209
H9    H     H_    0.835129 0.414839 0.938826 0.359310
H10   H     H_    0.832620 0.599902 0.077123 0.360306
H11   H     H_    0.166141 0.411353 0.060991 0.359418
H12   H     H_    0.674981 0.602987 0.290669 0.161543
H13   H     H_    0.167017 0.596085 0.923014 0.360250
H14   H     H_    0.322713 0.402482 0.281860 0.162971
H15   H     H_    0.324301 0.601066 0.709392 0.161157
H16   H     H_    0.501021 0.727670 0.936399 0.125168
H17   H     H_    0.502046 0.280606 0.063638 0.127575
H18   H     H_    0.497474 0.727690 0.063507 0.125216
H19   H     H_    0.500447 0.280556 0.936444 0.127548
H20   H     H_    0.205437 0.236446 0.360766 0.340890
N1    N     N_R   0.500000 0.852070 0.500000 -0.308962
N2    N     N_R   0.500000 0.147930 0.500000 -0.306782
O1    O     O_R   0.319640 0.618740 0.500000 -0.487083
O2    O     O_R   0.245463 0.193190 0.403865 -0.698487
O3    O     O_2   0.742453 0.812143 0.594434 -0.516744
O4    O     O_R   0.591690 0.843278 0.671341 -0.649781
O5    O     O_2   0.592697 0.151717 0.664104 -0.473079
O6    O     O_R   0.754763 0.192835 0.596075 -0.698547
O7    O     O_2   0.257478 0.812237 0.405593 -0.516832
O8    O     O_R   0.408274 0.843160 0.328684 -0.649584
O9    O     O_2   0.780722 0.308102 0.829903 -0.479160
O10   O     O_R   0.756043 0.457590 0.918753 -0.675381
O11   O     O_2   0.775965 0.703967 0.183826 -0.481922
O12   O     O_R   0.680360 0.381260 0.500000 -0.485813
O13   O     O_R   0.754152 0.555277 0.093362 -0.672432
O14   O     O_2   0.221284 0.305165 0.169952 -0.478899
O15   O     O_R   0.244803 0.454980 0.081110 -0.675448
O16   O     O_2   0.222627 0.700873 0.816287 -0.481978
O17   O     O_R   0.245843 0.552344 0.906742 -0.672321
O18   O     O_R   0.680360 0.618740 0.500000 -0.487064
O19   O     O_R   0.319640 0.381260 0.500000 -0.485666
O20   O     O_R   0.500020 0.618830 0.400190 -0.483014
O21   O     O_R   0.499980 0.381170 0.599810 -0.478668
O22   O     O_R   0.499980 0.618830 0.599810 -0.482969
O23   O     O_R   0.500020 0.381170 0.400190 -0.478773
O24   O     O_2   0.407394 0.151379 0.335838 -0.473059

loop_
_geom_bond_atom_site_label_1
_geom_bond_atom_site_label_2
_ccdc_geom_bond_type
C23   H16   S    
C12   C40   S    
C22   C29   S    
Cu2   N2    S    
C34   C37   A    
Cu1   Cu2   S    
C14   C18   A    
H9    O10   S    
C14   C31   S    
C9    C14   A    
C32   O11   D    
C30   O7    D    
C35   O17   S    
C9    C25   A    
C15   C32   S    
C15   C19   A    
Cu1   O22   S    
C5    H5    S    
C6    H6    S    
H11   O15   S    
C10   C15   A    
C33   O14   D    
C31   O9    D    
C13   H15   S    
C35   O16   D    
C1    C2    S    
C32   O13   S    
C20   C24   A    
H13   O17   S    
H4    O8    S    
C10   C26   A    
C34   C38   A    
C21   C22   A    
C40   O19   A    
C13   C25   A    
C4    C25   S    
C29   O5    D    
C9    H1    S    
H20   O2    S    
C3    O23   A    
C1    C6    A    
C28   O3    D    
C7    H7    S    
C5    C12   A    
C5    C7    A    
C33   O15   S    
C31   O10   S    
C6    C8    A    
C4    O21   A    
C11   C26   A    
Cu1   O20   S    
C20   N2    A    
C18   C39   S    
C19   C38   S    
C16   C33   S    
C11   C16   A    
C30   O8    S    
C8    C12   A    
C17   C18   A    
Cu2   O21   S    
C21   C28   S    
C24   N1    A    
C40   O1    A    
C34   H17   S    
C2    O18   A    
Cu1   N1    S    
H10   O13   S    
C8    H8    S    
C2    O12   A    
C29   O6    S    
C28   O4    S    
H3    O6    S    
C1    C7    A    
C3    C26   S    
Cu2   O19   S    
C36   H18   S    
C37   H19   S    
C20   C27   S    
Cu2   O12   S    
C13   C17   A    
C36   C38   A    
C37   C39   A    
C27   O2    S    
C16   C19   A    
C23   C39   A    
Cu1   O18   S    
Cu1   O1    S    
C27   O24   D    
C10   H12   S    
C24   C30   S    
C21   N1    A    
H2    O4    S    
C22   N2    A    
C4    O22   A    
C23   C36   A    
C3    O20   A    
Cu2   O23   S    
C17   C35   S    
C11   H14   S    
