data_mof_unit_39579.cif
_audit_creation_date              2012-12-11T16:34:24-0500
_audit_creation_method            fapswitch 2.2
_symmetry_space_group_name_H-M    P1
_symmetry_Int_Tables_number       1
_space_group_crystal_system       triclinic
_cell_length_a                    25.792026
_cell_length_b                    7.2785
_cell_length_c                    23.158549
_cell_angle_alpha                 89.999877
_cell_angle_beta                  104.058749
_cell_angle_gamma                 89.999709
_cell_volume                      4217.27126926

loop_
_atom_site_label
_atom_site_type_symbol
_atom_type_description
_atom_site_fract_x
_atom_site_fract_y
_atom_site_fract_z
_atom_type_partial_charge
O1    O     O_R   0.438720 0.630760 0.439780 -0.537651
O2    O     O_R   0.061280 0.869240 0.060220 -0.539769
O3    O     O_R   0.561280 0.130760 0.560220 -0.537649
O4    O     O_R   0.938720 0.369240 0.939780 -0.539777
O5    O     O_R   0.546410 0.956760 0.446260 -0.542132
O6    O     O_R   0.953590 0.543240 0.053740 -0.541251
O7    O     O_R   0.453590 0.456760 0.553740 -0.542130
O8    O     O_R   0.046410 0.043240 0.946260 -0.541249
C1    C     C_R   0.562874 0.791960 0.434545 0.668090
C2    C     C_R   0.937429 0.708090 0.065818 0.674115
C3    C     C_R   0.437126 0.291960 0.565455 0.668102
C4    C     C_R   0.062571 0.208090 0.934182 0.674148
O9    O     O_R   0.438220 0.960230 0.432810 -0.519605
O10   O     O_R   0.061780 0.539770 0.067190 -0.519535
O11   O     O_R   0.561780 0.460230 0.567190 -0.519614
O12   O     O_R   0.938220 0.039770 0.932810 -0.519530
O13   O     O_R   0.452310 0.134250 0.546660 -0.541941
O14   O     O_R   0.047690 0.365750 0.953340 -0.542046
O15   O     O_R   0.547690 0.634250 0.453340 -0.541945
O16   O     O_R   0.952310 0.865750 0.046660 -0.542042
C5    C     C_R   0.418008 0.792557 0.417517 0.716789
C6    C     C_R   0.080727 0.708272 0.083220 0.723541
C7    C     C_R   0.581993 0.292556 0.582482 0.716788
C8    C     C_R   0.919274 0.208273 0.916780 0.723583
O17   O     O_3   0.504750 0.798450 0.537370 -0.374691
O18   O     O_3   0.995250 0.701550 0.962630 -0.375901
O19   O     O_3   0.495250 0.298450 0.462630 -0.374692
O20   O     O_3   0.004750 0.201550 0.037370 -0.375900
V1    V     V_3+5 0.499120 0.071860 0.493070 1.402071
V2    V     V_3+5 0.000880 0.428140 0.006930 1.428178
V3    V     V_3+5 0.500880 0.571860 0.506930 1.402067
V4    V     V_3+5 0.999120 0.928140 0.993070 1.428186
C9    C     C_R   0.701328 0.107339 0.699062 -0.184416
C10   C     C_R   0.777438 0.315049 0.835277 -0.154191
C11   C     C_R   0.298683 0.607344 0.300923 -0.184345
C12   C     C_R   0.222561 0.815086 0.164717 -0.154133
H1    H     H_    0.719206 0.974727 0.712546 0.203764
H2    H     H_    0.742945 0.369144 0.847709 0.130024
H3    H     H_    0.280807 0.474734 0.287434 0.203723
H4    H     H_    0.257049 0.869205 0.152283 0.130029
C13   C     C_R   0.655326 0.116314 0.652295 -0.277213
C14   C     C_R   0.824847 0.302508 0.879573 -0.240128
C15   C     C_R   0.344682 0.616316 0.347694 -0.277081
C16   C     C_R   0.175150 0.802541 0.120424 -0.240118
C17   C     C_R   0.632604 0.286083 0.630947 -0.209940
C18   C     C_R   0.870269 0.220042 0.868031 -0.176634
C19   C     C_R   0.367401 0.786084 0.369046 -0.209902
C20   C     C_R   0.129733 0.720042 0.131967 -0.176670
C21   C     C_R   0.658818 0.448178 0.657289 0.342683
C22   C     C_R   0.868130 0.152768 0.810277 0.344359
C23   C     C_R   0.341189 0.948180 0.342702 0.342682
C24   C     C_R   0.131879 0.652740 0.189719 0.344424
C25   C     C_R   0.698257 0.436634 0.711367 0.370158
C26   C     C_R   0.820365 0.168791 0.764999 0.361757
C27   C     C_R   0.301752 0.936640 0.288622 0.370120
C28   C     C_R   0.179644 0.668782 0.234997 0.361706
C29   C     C_R   0.723268 0.265993 0.729816 -0.034931
C30   C     C_R   0.774347 0.251518 0.777279 -0.008383
C31   C     C_R   0.276742 0.766000 0.270171 -0.035051
C32   C     C_R   0.225659 0.751531 0.222714 -0.008437
C33   C     C_R   0.122343 0.385861 0.882811 -0.176937
C34   C     C_R   0.375892 0.114198 0.614922 -0.166623
C35   C     C_R   0.877655 0.885859 0.117187 -0.176921
C36   C     C_R   0.624113 0.614198 0.385085 -0.166633
H5    H     H_    0.112121 0.512267 0.902095 0.126154
H6    H     H_    0.387833 0.987092 0.597554 0.120542
H7    H     H_    0.887869 0.012261 0.097896 0.126163
H8    H     H_    0.612173 0.487093 0.402454 0.120536
C37   C     C_R   0.157852 0.394303 0.845728 -0.145482
C38   C     C_R   0.338295 0.106355 0.649507 -0.140015
C39   C     C_R   0.842149 0.894301 0.154273 -0.145498
C40   C     C_R   0.661713 0.606355 0.350502 -0.140019
H9    H     H_    0.173845 0.526823 0.837688 0.138075
H10   H     H_    0.322701 0.973501 0.657898 0.134446
H11   H     H_    0.826150 0.026817 0.162308 0.138084
H12   H     H_    0.677310 0.473503 0.342114 0.134438
C41   C     C_R   0.172541 0.234167 0.819570 0.021765
C42   C     C_R   0.321252 0.267433 0.673017 0.023379
C43   C     C_R   0.827469 0.734169 0.180441 0.021750
C44   C     C_R   0.678754 0.767433 0.326990 0.023395
C45   C     C_R   0.150592 0.065376 0.831415 -0.136973
C46   C     C_R   0.342606 0.436702 0.660618 -0.137224
C47   C     C_R   0.849425 0.565383 0.168604 -0.136974
C48   C     C_R   0.657396 0.936700 0.339384 -0.137242
C49   C     C_R   0.115088 0.056856 0.868507 -0.162419
C50   C     C_R   0.380176 0.444618 0.626008 -0.165066
C51   C     C_R   0.884927 0.556862 0.131510 -0.162406
C52   C     C_R   0.619825 0.944617 0.373992 -0.165094
H13   H     H_    0.099027 0.924297 0.876391 0.121489
H14   H     H_    0.395577 0.577672 0.617487 0.123245
H15   H     H_    0.900994 0.424308 0.123632 0.121517
H16   H     H_    0.604420 0.077669 0.382510 0.123248
C53   C     C_R   0.100407 0.216993 0.894734 -0.046160
C54   C     C_R   0.397562 0.283404 0.602856 -0.043709
C55   C     C_R   0.899597 0.716994 0.105271 -0.046218
C56   C     C_R   0.602440 0.783403 0.397146 -0.043704
N1    N     N_R   0.226258 0.087934 0.756690 -0.283292
N2    N     N_R   0.266287 0.414033 0.734421 -0.282463
N3    N     N_R   0.773756 0.587938 0.243327 -0.283289
N4    N     N_R   0.733717 0.914031 0.265584 -0.282463
N5    N     N_R   0.260995 0.095697 0.722466 -0.285230
N6    N     N_R   0.231572 0.406262 0.768659 -0.284657
N7    N     N_R   0.739018 0.595700 0.277549 -0.285231
N8    N     N_R   0.768433 0.906261 0.231347 -0.284658
C57   C     C_R   0.281866 0.258915 0.710596 0.513064
C58   C     C_R   0.210802 0.243017 0.780654 0.512591
C59   C     C_R   0.718142 0.758916 0.289414 0.513065
C60   C     C_R   0.789208 0.743019 0.219358 0.512611
H17   H     H_    0.637934 0.989491 0.632340 0.197975
H18   H     H_    0.825661 0.353267 0.923780 0.139504
H19   H     H_    0.362074 0.489493 0.367648 0.197940
H20   H     H_    0.174331 0.853322 0.076219 0.139508
O21   O     O_3   0.645006 0.621000 0.633277 -0.571760
C61   C     C_3   0.662202 0.642824 0.579891 0.125443
H21   H     H_    0.637190 0.752118 0.553388 0.134653
H22   H     H_    0.656200 0.517558 0.551359 0.091266
C62   C     C_3   0.720783 0.702279 0.592308 -0.342088
H23   H     H_    0.727175 0.827124 0.620553 0.224076
H24   H     H_    0.746661 0.591238 0.616476 0.192157
C63   C     C_3   0.736620 0.742860 0.534172 -0.849190
H25   H     H_    0.728406 0.622051 0.503995 0.240131
H26   H     H_    0.779958 0.773963 0.543595 0.235847
H27   H     H_    0.713923 0.863021 0.511460 0.236534
O22   O     O_3   0.911741 0.065558 0.797574 -0.555148
C64   C     C_3   0.949137 0.198614 0.788856 0.087870
H28   H     H_    0.975597 0.238320 0.832388 0.102417
H29   H     H_    0.929703 0.325884 0.766779 0.091828
C65   C     C_3   0.983507 0.115125 0.750311 -0.281380
H30   H     H_    0.008412 0.002907 0.775387 0.196064
H31   H     H_    0.957244 0.055474 0.709322 0.205862
C66   C     C_3   0.019752 0.258870 0.732404 -0.824033
H32   H     H_    0.995374 0.363999 0.703106 0.227096
H33   H     H_    0.046560 0.191624 0.707825 0.240266
H34   H     H_    0.044600 0.327590 0.772359 0.246069
O23   O     O_3   0.355003 0.120999 0.366714 -0.571761
C67   C     C_3   0.337792 0.142844 0.420090 0.125389
H35   H     H_    0.362807 0.252118 0.446600 0.134688
H36   H     H_    0.343777 0.017576 0.448622 0.091242
C68   C     C_3   0.279215 0.202354 0.407650 -0.342012
H37   H     H_    0.272835 0.327132 0.379376 0.224121
H38   H     H_    0.253332 0.091295 0.383505 0.192064
C69   C     C_3   0.263367 0.243107 0.465769 -0.849347
H39   H     H_    0.271559 0.122354 0.495972 0.240083
H40   H     H_    0.220033 0.274295 0.456322 0.235955
H41   H     H_    0.286077 0.363269 0.488463 0.236507
O24   O     O_3   0.088276 0.565487 0.202425 -0.555134
C70   C     C_3   0.050855 0.698494 0.211119 0.087956
H42   H     H_    0.024352 0.737928 0.167584 0.102430
H43   H     H_    0.070260 0.825923 0.233108 0.091786
C71   C     C_3   0.016555 0.615093 0.249756 -0.281360
H44   H     H_    0.991667 0.502708 0.224760 0.196057
H45   H     H_    0.042868 0.555688 0.290756 0.205894
C72   C     C_3   0.980291 0.758832 0.267633 -0.824091
H46   H     H_    0.004658 0.864154 0.296853 0.227104
H47   H     H_    0.953535 0.691632 0.292287 0.240258
H48   H     H_    0.955389 0.827306 0.227661 0.246099
O25   O     O_3   0.713568 0.595256 0.743952 -0.563983
C73   C     C_3   0.680024 0.621502 0.783856 0.070278
H49   H     H_    0.703676 0.698363 0.822901 0.150100
H50   H     H_    0.667299 0.490275 0.801162 0.086560
C74   C     C_3   0.629443 0.731784 0.755952 -0.286500
H51   H     H_    0.639837 0.854897 0.733418 0.223514
H52   H     H_    0.601506 0.646050 0.722698 0.207142
C75   C     C_3   0.600603 0.792732 0.802957 -0.845398
H53   H     H_    0.589166 0.671379 0.826201 0.235724
H54   H     H_    0.563798 0.869385 0.781251 0.239152
H55   H     H_    0.626696 0.884428 0.836018 0.234167
O26   O     O_3   0.817802 0.090243 0.709974 -0.559022
C76   C     C_3   0.826993 0.226352 0.670113 0.090001
H56   H     H_    0.870380 0.256504 0.679189 0.130997
H57   H     H_    0.805033 0.356397 0.673346 0.102329
C77   C     C_3   0.808438 0.153202 0.606669 -0.293690
H58   H     H_    0.827523 0.017820 0.603756 0.211074
H59   H     H_    0.764340 0.134667 0.595471 0.201875
C78   C     C_3   0.823315 0.283527 0.561693 -0.844458
H60   H     H_    0.805808 0.421328 0.564510 0.241020
H61   H     H_    0.807653 0.228910 0.516007 0.240739
H62   H     H_    0.867449 0.296349 0.570305 0.236329
O27   O     O_3   0.286441 0.095266 0.256038 -0.563983
C79   C     C_3   0.319985 0.121519 0.216136 0.070277
H63   H     H_    0.296336 0.198410 0.177096 0.150100
H64   H     H_    0.332704 0.990295 0.198821 0.086566
C80   C     C_3   0.370572 0.231765 0.244045 -0.286499
H65   H     H_    0.360185 0.354862 0.266592 0.223514
H66   H     H_    0.398508 0.145996 0.277289 0.207123
C81   C     C_3   0.399409 0.292744 0.197041 -0.845391
H67   H     H_    0.410839 0.171407 0.173784 0.235723
H68   H     H_    0.436219 0.369367 0.218751 0.239151
H69   H     H_    0.373319 0.384476 0.163991 0.234166
O28   O     O_3   0.182206 0.590215 0.290019 -0.559013
C82   C     C_3   0.173045 0.726348 0.329887 0.090193
H70   H     H_    0.129692 0.757205 0.320664 0.130695
H71   H     H_    0.195212 0.856041 0.326817 0.102457
C83   C     C_3   0.191311 0.652764 0.393306 -0.293622
H72   H     H_    0.171967 0.517769 0.396080 0.210906
H73   H     H_    0.235378 0.633324 0.404633 0.202026
C84   C     C_3   0.176541 0.783380 0.438272 -0.844491
H74   H     H_    0.194448 0.920649 0.435704 0.241016
H75   H     H_    0.191868 0.728148 0.483933 0.240762
H76   H     H_    0.132427 0.797553 0.429433 0.236317
H77   H     H_    0.160845 0.939137 0.812071 0.138296
H78   H     H_    0.330391 0.563775 0.677736 0.138603
H79   H     H_    0.839180 0.439148 0.187956 0.138303
H80   H     H_    0.669610 0.063773 0.322266 0.138603

loop_
_geom_bond_atom_site_label_1
_geom_bond_atom_site_label_2
_ccdc_geom_bond_type
O17   V3    S    
N3    N7    A    
C52   C56   A    
O1    C5    A    
O25   C73   S    
C7    C17   S    
C27   C31   A    
O19   V1    S    
O13   V1    S    
C76   H56   S    
O3    C7    A    
C70   H42   S    
C10   C14   A    
N4    N8    A    
C40   H12   S    
C66   H34   S    
O15   V3    S    
C65   H30   S    
C69   H40   S    
C39   C43   A    
C61   H21   S    
O23   C67   S    
C78   H61   S    
C63   H25   S    
O7    C3    A    
N3    C60   A    
C44   C59   S    
C75   H54   S    
O28   C82   S    
N2    C57   A    
C42   C57   S    
C36   H8    S    
C11   C31   A    
C41   C58   S    
C70   H43   S    
O24   C70   S    
C51   H15   S    
C80   H66   S    
O16   V4    S    
O4    C8    A    
C68   C69   S    
C33   C53   A    
C83   C84   S    
C38   C42   A    
C35   C55   A    
O1    V3    S    
C34   C38   A    
O2    V4    S    
C14   C18   A    
O3    V1    S    
C50   C54   A    
C73   C74   S    
C23   O23   S    
C1    O15   A    
C69   H39   S    
C3    O13   A    
C52   H16   S    
C2    O16   A    
C43   C47   A    
C71   C72   S    
C51   C55   A    
C38   H10   S    
C64   C65   S    
C9    C29   A    
C37   H9    S    
O14   V2    S    
C17   C21   A    
C72   H47   S    
C11   C15   A    
C77   C78   S    
C44   C48   A    
C48   H80   S    
O11   C7    A    
C83   H72   S    
C31   C32   S    
O12   C8    A    
C13   H17   S    
C73   H50   S    
C76   H57   S    
C69   H41   S    
C15   H19   S    
O10   V2    S    
C67   C68   S    
C74   H52   S    
C77   H59   S    
C45   C49   A    
C74   H51   S    
C78   H62   S    
O5    V1    S    
N5    C57   A    
C28   O28   S    
O7    V3    S    
C34   H6    S    
C82   H70   S    
O8    V4    S    
C12   H4    S    
C70   C71   S    
C22   O22   S    
C36   C56   A    
C67   H36   S    
C50   H14   S    
C62   C63   S    
C46   H78   S    
C49   H13   S    
O18   V4    S    
C45   H77   S    
C12   C32   A    
C46   C50   A    
C9    H1    S    
C28   C32   A    
C72   H48   S    
C63   H27   S    
C84   H76   S    
C11   H3    S    
C80   H65   S    
C82   H71   S    
C35   H7    S    
O5    C1    A    
C19   C23   A    
C42   C46   A    
C78   H60   S    
C41   C45   A    
O8    C4    A    
C21   O21   S    
O9    C5    A    
C22   C26   A    
C84   H75   S    
C1    C56   S    
N1    C58   A    
C16   H20   S    
C3    C54   S    
C47   H79   S    
O26   C76   S    
O6    V2    S    
C35   C39   A    
C6    C20   S    
C34   C54   A    
C73   H49   S    
C76   C77   S    
C71   H45   S    
C4    C53   S    
C12   C16   A    
O9    V1    S    
C81   H68   S    
C66   H32   S    
C65   C66   S    
C83   H73   S    
N8    C60   A    
C74   C75   S    
C77   H58   S    
C63   H26   S    
C10   C30   A    
O21   C61   S    
C26   C30   A    
C33   C37   A    
C75   H53   S    
N4    C59   A    
C24   O24   S    
C79   H64   S    
C10   H2    S    
C27   O27   S    
C75   H55   S    
C48   C52   A    
C26   O26   S    
C67   H35   S    
C66   H33   S    
C65   H31   S    
C47   C51   A    
O6    C2    A    
C61   H22   S    
C68   H37   S    
C79   C80   S    
O11   V3    S    
O12   V4    S    
C18   C22   A    
C25   O25   S    
C80   C81   S    
C9    C13   A    
O10   C6    A    
C81   H69   S    
C62   H24   S    
C14   H18   S    
C82   C83   S    
C8    C18   S    
C40   C44   A    
C16   C20   A    
N2    N6    A    
C62   H23   S    
C39   H11   S    
C68   H38   S    
C37   C41   A    
C29   C30   S    
C64   H28   S    
C2    C55   S    
C21   C25   A    
O20   V2    S    
O2    C6    A    
C25   C29   A    
C43   C60   S    
N6    C58   A    
C23   C27   A    
C36   C40   A    
C84   H74   S    
N1    N5    A    
C61   C62   S    
O27   C79   S    
C33   H5    S    
C20   C24   A    
C49   C53   A    
C4    O14   A    
C64   H29   S    
C13   C17   A    
C71   H44   S    
N7    C59   A    
C5    C19   S    
C81   H67   S    
C15   C19   A    
O4    V2    S    
C79   H63   S    
C24   C28   A    
O22   C64   S    
C72   H46   S    
