data_mof_unit_47464.cif
_audit_creation_date              2012-12-11T14:21:05-0500
_audit_creation_method            fapswitch 2.2
_symmetry_space_group_name_H-M    P1
_symmetry_Int_Tables_number       1
_space_group_crystal_system       triclinic
_cell_length_a                    11.772061
_cell_length_b                    11.731139
_cell_length_c                    19.508931
_cell_angle_alpha                 91.133291
_cell_angle_beta                  90.895735
_cell_angle_gamma                 60.262116
_cell_volume                      2338.85390269

loop_
_atom_site_label
_atom_site_type_symbol
_atom_type_description
_atom_site_fract_x
_atom_site_fract_y
_atom_site_fract_z
_atom_type_partial_charge
C1    C     C_R   0.640252 0.116454 0.599007 0.532876
C2    C     C_1   0.641213 0.705351 0.667927 0.010561
C3    C     C_1   0.124904 0.199080 0.859294 0.012954
C4    C     C_1   0.172244 0.170797 0.727578 -0.026049
C5    C     C_1   0.149324 0.182659 0.798911 -0.025370
C6    C     C_1   0.197051 0.161237 0.667292 0.009155
C7    C     C_1   0.679124 0.190970 0.860940 0.012777
C8    C     C_1   0.659331 0.166457 0.728936 -0.027059
C9    C     C_1   0.666256 0.180323 0.800352 -0.026749
C10   C     C_1   0.653651 0.148763 0.668417 0.009722
C11   C     C_R   0.655783 0.665366 0.195155 0.037984
C12   C     C_R   0.611686 0.747805 0.598551 0.535652
C13   C     C_R   0.541064 0.684531 0.228964 0.059552
C14   C     C_R   0.547742 0.661137 0.299446 0.014612
C15   C     C_R   0.757397 0.646761 0.305110 -0.116582
C16   C     C_R   0.762678 0.647194 0.234279 -0.098268
C17   C     C_R   0.422260 0.718637 0.194308 -0.016544
C18   C     C_R   0.322450 0.711908 0.226207 -0.070996
C19   C     C_R   0.337964 0.669608 0.293307 -0.076935
C20   C     C_R   0.449972 0.643065 0.329512 -0.059893
C21   C     C_R   0.648195 0.664040 0.338272 -0.027406
C22   C     C_R   0.153689 0.209886 0.190841 0.038797
C23   C     C_R   0.243200 0.144677 0.598210 0.545780
C24   C     C_R   0.116837 0.313628 0.238345 -0.060172
C25   C     C_R   0.116719 0.289600 0.308235 -0.055152
C26   C     C_R   0.273308 0.061174 0.281313 -0.128596
C27   C     C_R   0.249423 0.086735 0.210938 0.189306
C28   C     C_R   0.105325 0.433228 0.219027 -0.082727
C29   C     C_R   0.075542 0.532690 0.265862 0.224214
C30   C     C_R   0.059997 0.514395 0.335106 0.200512
C31   C     C_R   0.065139 0.398027 0.354322 -0.124790
C32   C     C_R   0.196632 0.159049 0.330578 -0.030317
C33   C     C_R   0.718002 0.231415 0.208879 -0.012064
C34   C     C_R   0.644961 0.113888 0.403178 0.555094
C35   C     C_R   0.822309 0.142143 0.250166 -0.049293
C36   C     C_R   0.794332 0.093399 0.307846 -0.002620
C37   C     C_R   0.581416 0.282862 0.309964 0.122502
C38   C     C_R   0.593959 0.304275 0.240369 0.262932
C39   C     C_R   0.953689 0.091408 0.234410 -0.090436
C40   C     C_R   0.050664 0.984286 0.269494 -0.140160
C41   C     C_R   0.014990 0.920527 0.316044 -0.029208
C42   C     C_R   0.883642 0.966505 0.325753 0.339032
C43   C     C_R   0.674135 0.164870 0.340458 -0.026669
C44   C     C_R   0.079700 0.232029 0.928571 0.561465
C45   C     C_R   0.616897 0.733728 0.404525 0.544849
C46   C     C_R   0.684288 0.602336 0.929530 0.553338
C47   C     C_R   0.709131 0.206937 0.930352 0.559068
C48   C     C_R   0.088120 0.236343 0.123286 0.572479
C49   C     C_R   0.681322 0.612950 0.125137 0.547045
C50   C     C_R   0.739634 0.237494 0.134376 0.558182
C51   C     C_R   0.246671 0.138715 0.400840 0.537566
C52   C     C_1   0.669565 0.645023 0.860244 0.013829
C53   C     C_1   0.654492 0.684340 0.728438 -0.026689
C54   C     C_1   0.662628 0.666117 0.799811 -0.026183
Cr1   Cr    Cr6+3 0.404720 0.198220 0.499960 1.029173
Cr2   Cr    Cr6+3 0.698290 0.897110 0.500380 1.118955
Cr3   Cr    Cr6+3 0.396970 0.904720 0.499610 1.034889
Cr4   Cr    Cr6+3 0.926180 0.151990 0.028120 1.072942
Cr5   Cr    Cr6+3 0.921330 0.451820 0.027470 1.063000
Cr6   Cr    Cr6+3 0.626260 0.446870 0.028710 1.093505
H1    H     H_    0.831703 0.646343 0.335971 0.230892
H2    H     H_    0.048480 0.386934 0.407596 0.170787
H3    H     H_    0.979203 0.138894 0.198482 0.141580
H4    H     H_    0.150899 0.944289 0.256506 0.131453
H5    H     H_    0.085685 0.829861 0.338553 0.180505
H6    H     H_    0.404283 0.749505 0.141628 0.202936
H7    H     H_    0.849240 0.634225 0.209437 0.203642
H8    H     H_    0.235170 0.737465 0.196942 0.206119
H9    H     H_    0.264903 0.655782 0.317892 0.178696
H10   H     H_    0.459223 0.608845 0.381443 0.147818
H11   H     H_    0.354190 0.967731 0.297325 0.161436
H12   H     H_    0.135882 0.446628 0.169391 0.224018
O1    O     O_R   0.267740 0.231960 0.575440 -0.496811
O2    O     O_R   0.685970 0.784660 0.430010 -0.435849
O3    O     O_R   0.502530 0.767000 0.423990 -0.542640
O4    O     O_R   0.288330 0.026350 0.429250 -0.498413
O5    O     O_3   0.499990 0.000020 0.499980 -0.276164
O6    O     O_R   0.821500 0.119340 0.952830 -0.495651
O7    O     O_R   0.037130 0.162530 0.957360 -0.488553
O8    O     O_R   0.056440 0.344740 0.951340 -0.494394
O9    O     O_R   0.797900 0.560360 0.957470 -0.490688
O10   O     O_R   0.596130 0.579390 0.952730 -0.498507
O11   O     O_R   0.639060 0.321160 0.958670 -0.487282
O12   O     O_R   0.527280 0.186640 0.570530 -0.500885
O13   O     O_R   0.821240 0.124200 0.104370 -0.473572
O14   O     O_R   0.036890 0.167040 0.097840 -0.511884
O15   O     O_R   0.056180 0.349610 0.102880 -0.527225
O16   O     O_R   0.797660 0.564870 0.097950 -0.501692
O17   O     O_R   0.595880 0.584250 0.104270 -0.514947
O18   O     O_R   0.638830 0.325670 0.099150 -0.421278
O19   O     O_3   0.824590 0.350230 0.028100 -0.319302
O20   O     O_R   0.728090 0.003450 0.576380 -0.500295
O21   O     O_R   0.682970 0.789190 0.570490 -0.490469
O22   O     O_R   0.499290 0.771880 0.575530 -0.508910
O23   O     O_R   0.285330 0.030870 0.569730 -0.494457
O24   O     O_R   0.270980 0.227080 0.423890 -0.534443
O25   O     O_R   0.530280 0.182120 0.430050 -0.515835
O26   O     O_R   0.731330 0.998570 0.424830 -0.450644
Cl1   Cl    Cl    0.068705 0.671628 0.232353 -0.621545
Cl2   Cl    Cl    0.044600 0.628315 0.399670 -0.624531
N1    N     N_2   0.479089 0.381424 0.349280 -0.523467
H13   H     H_    0.504753 0.391643 0.398896 0.244447
C55   C     C_3   0.357194 0.382806 0.342992 -0.198300
H14   H     H_    0.301235 0.451612 0.302687 0.214054
H15   H     H_    0.303763 0.416502 0.392128 0.192195
H16   H     H_    0.370747 0.285061 0.327674 0.193643
Cl3   Cl    Cl    0.450812 0.410075 0.194123 -0.573339
Cl4   Cl    Cl    0.823509 0.861145 0.307895 -0.504322
Cl5   Cl    Cl    0.363065 0.988046 0.148897 -0.625300

loop_
_geom_bond_atom_site_label_1
_geom_bond_atom_site_label_2
_ccdc_geom_bond_type
C25   C31   A    
C22   C48   S    
C26   C32   A    
N1    H13   S    
C46   C52   S    
C41   C42   A    
C36   C42   A    
C19   C20   A    
C49   O16   A    
Cr2   O26   S    
C2    C12   S    
Cr5   O9    S    
C53   C54   S    
C1    O12   A    
C26   C27   A    
C37   C38   A    
Cr3   O4    S    
C28   C29   A    
C30   C31   A    
Cr1   O5    S    
Cr6   O11   S    
C18   H8    S    
C15   C16   A    
C30   Cl2   S    
C34   O25   A    
C18   C19   A    
C38   Cl3   S    
Cr5   O16   S    
C50   O13   A    
C33   C35   A    
C46   O10   A    
Cr6   O10   S    
C50   O18   A    
C35   C36   A    
C8    C9    S    
C47   O11   A    
Cr4   O19   S    
C51   O24   A    
C25   C32   A    
N1    C55   S    
C13   C14   A    
C26   H11   S    
C31   H2    S    
C12   O22   A    
C28   H12   S    
C23   O1    A    
Cr4   O14   S    
C52   C54   T    
C21   C45   S    
Cr2   O21   S    
C3    C44   S    
Cr2   O2    S    
C29   Cl1   S    
Cr3   O5    S    
C44   O8    A    
C24   C25   A    
C4    C6    T    
C39   C40   A    
Cr1   O24   S    
C41   H5    S    
C33   C50   S    
Cr6   O17   S    
Cr2   O5    S    
C45   O2    A    
C7    C47   S    
C37   C43   A    
C35   C39   A    
C32   C51   S    
C29   C30   A    
C11   C49   S    
C14   C20   A    
C46   O9    A    
C11   C16   A    
C15   C21   A    
Cr1   O25   S    
C17   C18   A    
C15   H1    S    
C48   O15   A    
C55   H15   S    
C16   H7    S    
Cr5   O19   S    
C51   O4    A    
Cr4   O7    S    
C40   C41   A    
C1    O20   A    
Cr3   O22   S    
C22   C27   A    
C22   C24   A    
C12   O21   A    
C19   H9    S    
Cr4   O13   S    
C20   H10   S    
Cr6   O19   S    
C7    C9    T    
C44   O7    A    
C1    C10   S    
C24   C28   A    
C49   O17   A    
C4    C5    S    
C3    C5    T    
C2    C53   T    
Cr5   O8    S    
Cr6   O18   S    
C39   H3    S    
C33   C38   A    
C40   H4    S    
C13   C17   A    
C45   O3    A    
Cr3   O3    S    
C37   N1    S    
C11   C13   A    
C6    C23   S    
C34   O26   A    
C23   O23   A    
C55   H16   S    
C48   O14   A    
C17   H6    S    
Cr5   O15   S    
Cr4   O6    S    
C14   C21   A    
Cr1   O1    S    
Cr2   O20   S    
C27   Cl5   S    
C8    C10   T    
Cr3   O23   S    
C55   H14   S    
C36   C43   A    
C47   O6    A    
Cr1   O12   S    
C34   C43   S    
C42   Cl4   S    
