data_mof_unit_26044.cif
_audit_creation_date              2012-12-11T17:07:53-0500
_audit_creation_method            fapswitch 2.2
_symmetry_space_group_name_H-M    P1
_symmetry_Int_Tables_number       1
_space_group_crystal_system       triclinic
_cell_length_a                    17.055465
_cell_length_b                    17.624048
_cell_length_c                    17.572703
_cell_angle_alpha                 89.999982
_cell_angle_beta                  90.0
_cell_angle_gamma                 90.000018
_cell_volume                      5282.11437012

loop_
_atom_site_label
_atom_site_type_symbol
_atom_type_description
_atom_site_fract_x
_atom_site_fract_y
_atom_site_fract_z
_atom_type_partial_charge
C1    C     C_R   0.420928 0.332390 0.856630 -0.115015
C2    C     C_R   0.199802 0.892426 0.407808 -0.131195
C3    C     C_R   0.760638 0.854623 0.203630 -0.006491
C4    C     C_R   0.231566 0.315425 0.639692 -0.019621
C5    C     C_R   0.239361 0.854623 0.796372 -0.006490
C6    C     C_R   0.768436 0.684575 0.639694 -0.019622
C7    C     C_R   0.760636 0.145377 0.796369 -0.006492
C8    C     C_R   0.731564 0.184575 0.860306 -0.019622
C9    C     C_R   0.739363 0.645377 0.703631 -0.006491
C10   C     C_R   0.268433 0.815425 0.860308 -0.019621
C11   C     C_R   0.260638 0.354623 0.703629 -0.006490
C12   C     C_R   0.731566 0.815425 0.139693 -0.019622
C13   C     C_R   0.079071 0.167610 0.356630 -0.115015
C14   C     C_R   0.739361 0.354623 0.296370 -0.006491
C15   C     C_R   0.268433 0.184575 0.139692 -0.019622
C16   C     C_R   0.260639 0.645377 0.296371 -0.006491
C17   C     C_1   0.969376 0.325175 0.740928 0.063830
C18   C     C_1   0.734104 0.899905 0.742306 0.084146
C19   C     C_1   0.030628 0.674821 0.740920 0.063829
C20   C     C_1   0.265883 0.100095 0.742309 0.084146
C21   C     C_1   0.969372 0.674820 0.259080 0.063829
C22   C     C_1   0.734113 0.100094 0.257692 0.084145
C23   C     C_1   0.030630 0.325182 0.259084 0.063829
C24   C     C_R   0.800197 0.107574 0.407808 -0.131194
C25   C     C_1   0.265886 0.899906 0.257691 0.084146
C26   C     C_1   0.469370 0.825182 0.240917 0.063829
C27   C     C_1   0.234115 0.399906 0.242309 0.084146
C28   C     C_1   0.530628 0.174819 0.240918 0.063829
C29   C     C_1   0.765887 0.600094 0.242309 0.084146
C30   C     C_1   0.469367 0.174817 0.759087 0.063828
C31   C     C_1   0.234112 0.600094 0.757691 0.084146
C32   C     C_1   0.530618 0.825171 0.759064 0.063831
C33   C     C_1   0.765893 0.399906 0.757693 0.084145
C34   C     C_1   0.855720 0.319464 0.655973 0.082158
C35   C     C_R   0.920928 0.167610 0.643370 -0.115012
C36   C     C_1   0.618847 0.912687 0.656876 0.073013
C37   C     C_1   0.144288 0.680539 0.655970 0.082162
C38   C     C_1   0.381146 0.087310 0.656887 0.073014
C39   C     C_1   0.855712 0.680538 0.344030 0.082161
C40   C     C_1   0.618852 0.087310 0.343116 0.073014
C41   C     C_1   0.144292 0.319461 0.344031 0.082163
C42   C     C_1   0.381147 0.912690 0.343115 0.073014
C43   C     C_1   0.355709 0.819461 0.155969 0.082162
C44   C     C_1   0.118853 0.412690 0.156885 0.073015
C45   C     C_1   0.644289 0.180538 0.155970 0.082161
C46   C     C_R   0.199802 0.107575 0.592191 -0.131194
C47   C     C_1   0.881148 0.587311 0.156883 0.073014
C48   C     C_1   0.355704 0.180540 0.844032 0.082164
C49   C     C_1   0.118852 0.587311 0.843116 0.073014
C50   C     C_1   0.644272 0.819466 0.844025 0.082154
C51   C     C_1   0.881151 0.412687 0.843121 0.073014
C52   C     C_1   0.176516 0.646466 0.410402 0.078132
C53   C     C_1   0.292050 0.089355 0.233914 0.068104
C54   C     C_1   0.823484 0.353534 0.410401 0.078132
C55   C     C_1   0.707948 0.910644 0.233917 0.068105
C56   C     C_1   0.176516 0.353534 0.589598 0.078131
C57   C     C_R   0.079071 0.832390 0.643370 -0.115014
C58   C     C_1   0.292050 0.910646 0.766087 0.068104
C59   C     C_1   0.823487 0.646465 0.589600 0.078132
C60   C     C_1   0.707945 0.089358 0.766080 0.068106
C61   C     C_1   0.676513 0.146465 0.910399 0.078133
C62   C     C_1   0.792054 0.589357 0.733919 0.068105
C63   C     C_1   0.323485 0.853534 0.910402 0.078130
C64   C     C_1   0.207949 0.410645 0.733915 0.068104
C65   C     C_1   0.676514 0.853534 0.089600 0.078132
C66   C     C_1   0.792051 0.410644 0.266084 0.068105
C67   C     C_1   0.323483 0.146466 0.089597 0.078132
C68   C     C_R   0.800198 0.892425 0.592193 -0.131194
C69   C     C_1   0.207950 0.589355 0.266085 0.068104
C70   C     C_3   0.883542 0.315165 0.735628 -0.055750
C71   C     C_3   0.664555 0.862644 0.707784 -0.049790
C72   C     C_3   0.116462 0.684834 0.735624 -0.055749
C73   C     C_R   0.699802 0.392425 0.907808 -0.131194
C74   C     C_3   0.335435 0.137354 0.707791 -0.049791
C75   C     C_3   0.883538 0.684833 0.264376 -0.055750
C76   C     C_3   0.664562 0.137354 0.292210 -0.049790
C77   C     C_3   0.116464 0.315167 0.264378 -0.055750
C78   C     C_3   0.335437 0.862646 0.292209 -0.049791
C79   C     C_3   0.383536 0.815167 0.235622 -0.055750
C80   C     C_3   0.164563 0.362646 0.207791 -0.049791
C81   C     C_3   0.616463 0.184833 0.235623 -0.055750
C82   C     C_3   0.835438 0.637354 0.207789 -0.049790
C83   C     C_3   0.383533 0.184833 0.764379 -0.055750
C84   C     C_R   0.579071 0.667610 0.856630 -0.115010
C85   C     C_3   0.164561 0.637354 0.792211 -0.049791
C86   C     C_3   0.616453 0.815164 0.764368 -0.055751
C87   C     C_3   0.835442 0.362645 0.792214 -0.049791
C88   C     C_R   0.391738 0.696108 0.900364 -0.128549
C89   C     C_R   0.325020 0.418839 0.859991 -0.120152
C90   C     C_R   0.608262 0.303892 0.900364 -0.128551
C91   C     C_R   0.674980 0.581160 0.859991 -0.120154
C92   C     C_R   0.391738 0.303892 0.099635 -0.128550
C93   C     C_R   0.325020 0.581161 0.140009 -0.120153
C94   C     C_R   0.608262 0.696108 0.099636 -0.128551
C95   C     C_R   0.300198 0.607574 0.907808 -0.131194
C96   C     C_R   0.674980 0.418839 0.140009 -0.120153
C97   C     C_R   0.891738 0.196108 0.400364 -0.128551
C98   C     C_R   0.825020 0.918839 0.359991 -0.120153
C99   C     C_R   0.108262 0.803892 0.400364 -0.128550
C100  C     C_R   0.174980 0.081161 0.359991 -0.120153
C101  C     C_R   0.891738 0.803892 0.599636 -0.128551
C102  C     C_R   0.825020 0.081160 0.640009 -0.120155
C103  C     C_R   0.108262 0.196108 0.599635 -0.128550
C104  C     C_R   0.174980 0.918839 0.640009 -0.120152
C105  C     C_R   0.355375 0.358774 0.817240 0.082140
C106  C     C_R   0.420929 0.667610 0.143370 -0.115014
C107  C     C_R   0.687781 0.316729 0.891811 0.091385
C108  C     C_R   0.644625 0.641226 0.817240 0.082140
C109  C     C_R   0.312218 0.683271 0.891811 0.091385
C110  C     C_R   0.355375 0.641226 0.182760 0.082140
C111  C     C_R   0.687782 0.683271 0.108189 0.091384
C112  C     C_R   0.644625 0.358773 0.182760 0.082141
C113  C     C_R   0.312218 0.316729 0.108188 0.091384
C114  C     C_R   0.855375 0.858773 0.317240 0.082140
C115  C     C_R   0.187782 0.816730 0.391811 0.091384
C116  C     C_R   0.144625 0.141226 0.317239 0.082140
C117  C     C_R   0.699802 0.607575 0.092192 -0.131194
C118  C     C_R   0.812218 0.183271 0.391811 0.091384
C119  C     C_R   0.855375 0.141226 0.682760 0.082140
C120  C     C_R   0.187782 0.183271 0.608188 0.091384
C121  C     C_R   0.144624 0.858774 0.682761 0.082140
C122  C     C_R   0.812218 0.816729 0.608189 0.091385
C123  C     C_R   0.815632 0.289182 0.830770 0.009967
C124  C     C_R   0.643924 0.745276 0.721500 0.007452
C125  C     C_R   0.184368 0.710817 0.830768 0.009966
C126  C     C_R   0.356073 0.254722 0.721504 0.007449
C127  C     C_R   0.815631 0.710817 0.169232 0.009966
C128  C     C_R   0.579071 0.332389 0.143370 -0.115015
C129  C     C_R   0.643926 0.254722 0.278497 0.007450
C130  C     C_R   0.184369 0.289184 0.169233 0.009967
C131  C     C_R   0.356074 0.745278 0.278496 0.007450
C132  C     C_R   0.315631 0.789184 0.330767 0.009967
C133  C     C_R   0.143926 0.245278 0.221503 0.007450
C134  C     C_R   0.684368 0.210816 0.330768 0.009967
C135  C     C_R   0.856074 0.754722 0.221503 0.007450
C136  C     C_R   0.315630 0.210816 0.669233 0.009966
C137  C     C_R   0.143926 0.754722 0.778497 0.007450
C138  C     C_R   0.684367 0.789181 0.669229 0.009966
C139  C     C_R   0.300197 0.392425 0.092192 -0.131194
C140  C     C_R   0.856074 0.245276 0.778499 0.007451
C141  C     C_R   0.748182 0.262518 0.867355 -0.023335
C142  C     C_R   0.675379 0.675562 0.746331 -0.019783
C143  C     C_R   0.251817 0.737481 0.867354 -0.023335
C144  C     C_R   0.324621 0.324438 0.746331 -0.019783
C145  C     C_R   0.748183 0.737481 0.132646 -0.023336
C146  C     C_R   0.675378 0.324437 0.253669 -0.019783
C147  C     C_R   0.251816 0.262519 0.132645 -0.023335
C148  C     C_R   0.324622 0.675563 0.253669 -0.019783
C149  C     C_R   0.248183 0.762519 0.367354 -0.023335
C150  C     C_R   0.920928 0.832390 0.356630 -0.115014
C151  C     C_R   0.175378 0.175563 0.246331 -0.019783
C152  C     C_R   0.751817 0.237481 0.367354 -0.023336
C153  C     C_R   0.824621 0.824437 0.246331 -0.019783
C154  C     C_R   0.248183 0.237481 0.632646 -0.023335
C155  C     C_R   0.175378 0.824438 0.753669 -0.019783
C156  C     C_R   0.751817 0.762518 0.632645 -0.023335
C157  C     C_R   0.824621 0.175562 0.753669 -0.019783
C158  C     C_R   0.231567 0.684575 0.360308 -0.019622
C159  C     C_R   0.239361 0.145377 0.203628 -0.006491
C160  C     C_R   0.768433 0.315425 0.360307 -0.019622
H1    H     H_    0.463400 0.291866 0.838206 0.111281
H2    H     H_    0.255086 0.919223 0.419887 0.106103
H3    H     H_    0.036599 0.208134 0.338207 0.111280
H4    H     H_    0.744914 0.080777 0.419887 0.106103
H5    H     H_    0.963401 0.208134 0.661793 0.111279
H6    H     H_    0.255086 0.080778 0.580113 0.106103
H7    H     H_    0.036599 0.791866 0.661794 0.111280
H8    H     H_    0.744914 0.919222 0.580114 0.106103
H9    H     H_    0.422335 0.749521 0.899487 0.110267
H10   H     H_    0.276973 0.456207 0.848094 0.117818
H11   H     H_    0.577664 0.250479 0.899488 0.110269
H12   H     H_    0.755086 0.419222 0.919886 0.106103
H13   H     H_    0.723026 0.543792 0.848094 0.117819
H14   H     H_    0.422335 0.250479 0.100512 0.110269
H15   H     H_    0.276973 0.543793 0.151906 0.117818
H16   H     H_    0.577664 0.749521 0.100512 0.110269
H17   H     H_    0.723027 0.456207 0.151906 0.117818
H18   H     H_    0.922335 0.249521 0.399488 0.110269
H19   H     H_    0.776973 0.956207 0.348094 0.117818
H20   H     H_    0.077665 0.750479 0.399488 0.110268
H21   H     H_    0.223027 0.043793 0.348094 0.117818
H22   H     H_    0.922336 0.750479 0.600512 0.110269
H23   H     H_    0.536599 0.708134 0.838207 0.111278
H24   H     H_    0.776974 0.043792 0.651906 0.117819
H25   H     H_    0.077664 0.249521 0.600512 0.110268
H26   H     H_    0.223027 0.956207 0.651906 0.117818
H27   H     H_    0.244914 0.580777 0.919886 0.106103
H28   H     H_    0.463400 0.708134 0.161793 0.111280
H29   H     H_    0.755086 0.580778 0.080113 0.106103
H30   H     H_    0.536600 0.291865 0.161793 0.111280
H31   H     H_    0.244914 0.419223 0.080113 0.106103
H32   H     H_    0.963400 0.791865 0.338207 0.111280
N1    N     N_R   0.425360 0.368540 0.922560 -0.044698
N2    N     N_R   0.131460 0.925360 0.422560 -0.044963
N3    N     N_R   0.074640 0.131460 0.422560 -0.044698
N4    N     N_R   0.868540 0.074640 0.422560 -0.044963
N5    N     N_R   0.925360 0.131460 0.577440 -0.044699
N6    N     N_R   0.131460 0.074640 0.577440 -0.044963
N7    N     N_R   0.074640 0.868540 0.577440 -0.044699
N8    N     N_R   0.868540 0.925360 0.577440 -0.044963
N9    N     N_R   0.425340 0.631500 0.922560 -0.045141
N10   N     N_R   0.368500 0.425340 0.922560 -0.047640
N11   N     N_R   0.574660 0.368500 0.922560 -0.045140
N12   N     N_R   0.631460 0.425360 0.922560 -0.044963
N13   N     N_R   0.631500 0.574660 0.922560 -0.047641
N14   N     N_R   0.425340 0.368500 0.077440 -0.045140
N15   N     N_R   0.368500 0.574660 0.077440 -0.047640
N16   N     N_R   0.574660 0.631500 0.077440 -0.045140
N17   N     N_R   0.631500 0.425340 0.077440 -0.047640
N18   N     N_R   0.925340 0.131500 0.422560 -0.045140
N19   N     N_R   0.868500 0.925340 0.422560 -0.047641
N20   N     N_R   0.074660 0.868500 0.422560 -0.045140
N21   N     N_R   0.131500 0.074660 0.422560 -0.047640
N22   N     N_R   0.925340 0.868500 0.577440 -0.045140
N23   N     N_R   0.574640 0.631460 0.922560 -0.044699
N24   N     N_R   0.868500 0.074660 0.577440 -0.047641
N25   N     N_R   0.074660 0.131500 0.577440 -0.045140
N26   N     N_R   0.131500 0.925340 0.577440 -0.047641
N27   N     N_1   0.036620 0.332432 0.745176 -0.079011
N28   N     N_1   0.788704 0.927795 0.769742 -0.076564
N29   N     N_1   0.963385 0.667561 0.745164 -0.079012
N30   N     N_1   0.211280 0.072207 0.769741 -0.076564
N31   N     N_1   0.036616 0.667560 0.254835 -0.079012
N32   N     N_1   0.788715 0.072205 0.230259 -0.076564
N33   N     N_1   0.963387 0.332444 0.254842 -0.079012
N34   N     N_R   0.368540 0.574640 0.922560 -0.044963
N35   N     N_1   0.211283 0.927794 0.230258 -0.076564
N36   N     N_1   0.536614 0.832442 0.245160 -0.079012
N37   N     N_1   0.288717 0.427794 0.269742 -0.076564
N38   N     N_1   0.463385 0.167558 0.245161 -0.079012
N39   N     N_1   0.711285 0.572206 0.269742 -0.076564
N40   N     N_1   0.536611 0.167555 0.754846 -0.079013
N41   N     N_1   0.288714 0.572206 0.730258 -0.076564
N42   N     N_1   0.463374 0.832426 0.754813 -0.079010
N43   N     N_1   0.711292 0.427796 0.730259 -0.076565
N44   N     N_1   0.832921 0.322311 0.594108 -0.073212
N45   N     N_R   0.425360 0.631460 0.077440 -0.044699
N46   N     N_1   0.582980 0.951547 0.616766 -0.070143
N47   N     N_1   0.167090 0.677694 0.594106 -0.073212
N48   N     N_1   0.417015 0.048450 0.616779 -0.070143
N49   N     N_1   0.832910 0.677693 0.405895 -0.073212
N50   N     N_1   0.582983 0.048451 0.383225 -0.070143
N51   N     N_1   0.167097 0.322303 0.405896 -0.073212
N52   N     N_1   0.417016 0.951550 0.383223 -0.070143
N53   N     N_1   0.332905 0.822304 0.094104 -0.073212
N54   N     N_1   0.082984 0.451550 0.116777 -0.070143
N55   N     N_1   0.667092 0.177693 0.094105 -0.073212
N56   N     N_R   0.631460 0.574640 0.077440 -0.044963
N57   N     N_1   0.917017 0.548450 0.116775 -0.070143
N58   N     N_1   0.332899 0.177698 0.905896 -0.073213
N59   N     N_1   0.082983 0.548450 0.883225 -0.070143
N60   N     N_1   0.667068 0.822315 0.905892 -0.073211
N61   N     N_1   0.917019 0.451547 0.883231 -0.070143
N62   N     N_1   0.132313 0.614760 0.448941 -0.072721
N63   N     N_1   0.338213 0.047266 0.256801 -0.080905
N64   N     N_1   0.867687 0.385241 0.448940 -0.072720
N65   N     N_1   0.661786 0.952733 0.256804 -0.080905
N66   N     N_1   0.132312 0.385241 0.551059 -0.072722
N67   N     N_R   0.574640 0.368540 0.077440 -0.044698
N68   N     N_1   0.338212 0.952736 0.743201 -0.080906
N69   N     N_1   0.867690 0.614758 0.551062 -0.072721
N70   N     N_1   0.661782 0.047270 0.743191 -0.080905
N71   N     N_1   0.632310 0.114758 0.948939 -0.072721
N72   N     N_1   0.838217 0.547269 0.756808 -0.080905
N73   N     N_1   0.367688 0.885240 0.948941 -0.072722
N74   N     N_1   0.161786 0.452734 0.756802 -0.080906
N75   N     N_1   0.632310 0.885242 0.051062 -0.072720
N76   N     N_1   0.838214 0.452733 0.243197 -0.080905
N77   N     N_1   0.367686 0.114760 0.051058 -0.072722
N78   N     N_R   0.368540 0.425360 0.077440 -0.044963
N79   N     N_1   0.161787 0.547266 0.243199 -0.080905
N80   N     N_R   0.925360 0.868540 0.422560 -0.044699
Ni1   Ni    Ni4+2 0.500000 0.369720 0.000000 0.222819
Ni2   Ni    Ni4+2 0.630280 0.500000 0.000000 0.214952
Ni3   Ni    Ni4+2 0.500000 0.630280 0.000000 0.222820
Ni4   Ni    Ni4+2 0.369720 0.500000 0.000000 0.214953
Ni5   Ni    Ni4+2 0.000000 0.869720 0.500000 0.222820
Ni6   Ni    Ni4+2 0.130280 0.000000 0.500000 0.214952
Ni7   Ni    Ni4+2 0.000000 0.130280 0.500000 0.222820
Ni8   Ni    Ni4+2 0.869720 0.000000 0.500000 0.214952

loop_
_geom_bond_atom_site_label_1
_geom_bond_atom_site_label_2
_ccdc_geom_bond_type
C4    C154  A    
N11   N12   A    
C152  C160  A    
C70   C140  S    
N80   Ni5   S    
C31   C85   S    
C54   N64   T    
C104  H26   S    
C35   C119  A    
C10   C63   S    
C103  H25   S    
C22   C76   S    
C74   C83   S    
C117  H29   S    
C101  H22   S    
C34   N44   T    
C106  H28   S    
C105  C144  S    
C108  C142  S    
C72   C85   S    
C97   H18   S    
C95   H27   S    
C7    C8    A    
N17   Ni2   S    
C139  N78   A    
C24   H4    S    
N11   Ni1   S    
N56   Ni2   S    
C31   N41   T    
C137  C155  A    
C138  C156  A    
C77   C133  S    
C5    C58   S    
C41   N51   T    
C73   H12   S    
C124  C138  A    
C127  C135  A    
C90   C107  A    
C90   N11   A    
C79   C131  S    
C139  H31   S    
C111  C145  S    
C99   C115  A    
C41   C77   S    
C75   C135  S    
C37   N47   T    
C50   C86   S    
C24   N4    A    
C42   N52   T    
N1    Ni1   S    
C94   N16   A    
C94   C111  A    
C3    C153  A    
C91   H13   S    
N19   Ni8   S    
C47   C82   S    
C30   N40   T    
C97   C118  A    
C78   C132  S    
C49   N59   T    
C52   N62   T    
C3    C12   A    
C23   N33   T    
C85   C125  S    
C11   C64   S    
C27   N37   T    
N16   Ni3   S    
C65   N75   T    
C103  C120  A    
C149  C158  A    
C26   N36   T    
N8    Ni8   S    
C106  N45   A    
C74   C136  S    
C90   H11   S    
C125  C143  A    
N8    N22   A    
C113  C139  A    
N3    Ni7   S    
C8    C141  A    
C96   N17   A    
C112  C146  S    
C39   C75   S    
C88   N9    A    
C107  C141  S    
C46   H6    S    
C11   C144  A    
C34   C70   S    
C114  C153  S    
C17   N27   T    
C84   N23   A    
C44   N54   T    
C93   C110  A    
N4    N18   A    
N20   Ni5   S    
C55   N65   T    
C89   N10   A    
C130  C147  A    
C134  C152  A    
C17   C70   S    
C4    C56   S    
C101  C122  A    
C52   C158  S    
C132  C149  A    
N24   Ni8   S    
C54   C160  S    
C115  C149  S    
C19   C72   S    
N45   Ni3   S    
N7    N26   A    
N34   Ni4   S    
C6    C9    A    
C110  C148  S    
C70   C87   S    
C6    C59   S    
C5    C10   A    
C91   N13   A    
C150  H32   S    
C1    C105  A    
C18   N28   T    
C13   H3    S    
C71   C138  S    
C99   N20   A    
C16   C158  A    
C36   N46   T    
N9    N34   A    
C73   N12   A    
C45   C81   S    
C100  N21   A    
C53   C159  S    
C46   N6    A    
N3    N21   A    
C97   N18   A    
C20   C74   S    
C25   C78   S    
C128  N67   A    
N78   Ni4   S    
C44   C80   S    
C80   C130  S    
C61   N71   T    
C27   C80   S    
C30   C83   S    
C150  N80   A    
C76   C134  S    
C78   C79   S    
C32   N42   T    
C19   N29   T    
C125  C137  A    
C5    C155  A    
C38   N48   T    
N13   Ni2   S    
C93   H15   S    
C40   N50   T    
N1    N10   A    
C9    C62   S    
C14   C160  A    
C2    N2    A    
C151  C159  A    
C12   C145  A    
C87   C123  S    
C1    N1    A    
N16   N56   A    
N12   Ni2   S    
C15   C159  A    
C15   C67   S    
N4    Ni8   S    
C92   C113  A    
C60   N70   T    
C140  C157  A    
C69   N79   T    
C71   C86   S    
C136  C154  A    
C2    C115  A    
C12   C65   S    
C81   C129  S    
N6    N25   A    
N6    Ni6   S    
N25   Ni7   S    
C101  N22   A    
C119  C157  S    
C32   C86   S    
C123  C141  A    
C120  C154  S    
C14   C66   S    
C46   C120  A    
C131  C148  A    
C109  C143  S    
C23   C77   S    
C4    C11   A    
C118  C152  S    
C100  H21   S    
C63   N73   T    
C104  N26   A    
C129  C146  A    
N5    N24   A    
N23   Ni3   S    
C124  C142  A    
N9    Ni3   S    
C57   H7    S    
C88   C109  A    
C68   H8    S    
N10   Ni4   S    
N26   Ni6   S    
C127  C145  A    
N2    Ni6   S    
C1    H1    S    
C86   C124  S    
N19   N80   A    
C96   H17   S    
N22   Ni5   S    
C130  C133  A    
C114  C150  A    
C83   C126  S    
C51   C87   S    
C131  C132  A    
C93   N15   A    
C48   N58   T    
C28   N38   T    
C7    C60   S    
C50   N60   T    
C35   N5    A    
N17   N67   A    
C103  N25   A    
C106  C110  A    
C117  N56   A    
C102  N24   A    
C18   C71   S    
C104  C121  A    
C25   N35   T    
N21   Ni6   S    
C72   C137  S    
C67   N77   T    
C88   H9    S    
C21   N31   T    
N14   Ni1   S    
C28   C81   S    
C122  C156  S    
C91   C108  A    
C59   N69   T    
C84   H23   S    
C56   N66   T    
C16   C69   S    
C26   C79   S    
C121  C155  S    
C57   C121  A    
C33   N43   T    
C76   C81   S    
C89   H10   S    
C9    C142  A    
C36   C71   S    
C75   C82   S    
C42   C78   S    
N15   Ni4   S    
C7    C157  A    
C47   N57   T    
C98   C114  A    
C68   C122  A    
C98   N19   A    
C14   C146  A    
C29   N39   T    
C3    C55   S    
N18   Ni7   S    
C135  C153  A    
C48   C83   S    
C111  C117  A    
C68   N8    A    
C66   N76   T    
C92   H14   S    
C100  C116  A    
C113  C147  S    
N14   N78   A    
C33   C87   S    
C95   N34   A    
C102  H24   S    
C29   C82   S    
C126  C136  A    
C64   N74   T    
C15   C147  A    
C77   C80   S    
C16   C148  A    
N7    Ni5   S    
C22   N32   T    
C43   N53   T    
C123  C140  A    
C126  C144  A    
C24   C118  A    
C96   C112  A    
C38   C74   S    
N67   Ni1   S    
C128  H30   S    
C10   C143  A    
C62   N72   T    
C8    C61   S    
C6    C156  A    
C82   C127  S    
C112  C128  A    
C13   C116  A    
C92   N14   A    
N15   N45   A    
N2    N20   A    
C129  C134  A    
N5    Ni7   S    
C40   C76   S    
C99   H20   S    
C45   N55   T    
N13   N23   A    
C21   C75   S    
C13   N3    A    
C37   C72   S    
C89   C105  A    
C20   N30   T    
C35   H5    S    
C95   C109  A    
C53   N63   T    
C49   C85   S    
C58   N68   T    
C98   H19   S    
C2    H2    S    
C84   C108  A    
C43   C79   S    
C73   C107  A    
C116  C151  S    
C57   N7    A    
C102  C119  A    
C94   H16   S    
C133  C151  A    
C39   N49   T    
C51   N61   T    
