data_mof_unit_28644.cif
_audit_creation_date              2012-12-11T17:39:43-0500
_audit_creation_method            fapswitch 2.2
_symmetry_space_group_name_H-M    P1
_symmetry_Int_Tables_number       1
_space_group_crystal_system       triclinic
_cell_length_a                    14.875893
_cell_length_b                    14.984102
_cell_length_c                    14.960201
_cell_angle_alpha                 109.166846
_cell_angle_beta                  109.120128
_cell_angle_gamma                 110.099873
_cell_volume                      2567.68978962

loop_
_atom_site_label
_atom_site_type_symbol
_atom_type_description
_atom_site_fract_x
_atom_site_fract_y
_atom_site_fract_z
_atom_type_partial_charge
C1    C     C_R   0.908097 0.911159 0.713030 -0.145762
C2    C     C_R   0.904703 0.702558 0.505087 -0.107531
C3    C     C_R   0.703685 0.787107 0.196087 -0.109810
C4    C     C_R   0.089531 0.310722 0.518182 -0.140725
C5    C     C_R   0.305852 0.010486 0.600799 -0.118704
C6    C     C_R   0.646142 0.688213 0.188892 0.143406
C7    C     C_R   0.374040 0.080637 0.579726 0.068057
C8    C     C_R   0.992352 0.699323 0.570186 0.054082
C9    C     C_R   0.005835 0.944571 0.180804 0.057745
C10   C     C_R   0.542117 0.754874 0.600196 -0.115270
C11   C     C_R   0.535923 0.839144 0.582818 -0.152236
C12   C     C_R   0.995939 0.319686 0.477980 0.068772
C13   C     C_R   0.609261 0.948742 0.666082 0.104133
C14   C     C_R   0.685267 0.973071 0.768232 -0.164021
C15   C     C_R   0.691412 0.888556 0.785103 -0.139591
C16   C     C_R   0.247314 0.221023 0.812417 -0.156198
C17   C     C_R   0.620437 0.779532 0.700823 -0.120924
C18   C     C_R   0.534301 0.067798 0.670313 -0.236303
C19   C     C_R   0.492719 0.119825 0.621127 0.045111
C20   C     C_R   0.554049 0.179673 0.585390 0.029957
C21   C     C_R   0.634018 0.158635 0.570620 -0.227535
C22   C     C_R   0.650755 0.077867 0.588590 0.063166
C23   C     C_R   0.273979 0.323207 0.822594 0.134287
C24   C     C_R   0.604758 0.037294 0.646135 0.026337
C25   C     C_R   0.504080 0.247455 0.455178 -0.179403
C26   C     C_R   0.478210 0.320133 0.429308 -0.101135
C27   C     C_R   0.485468 0.408350 0.508527 -0.077197
C28   C     C_R   0.738659 0.054268 0.466431 -0.123952
C29   C     C_R   0.517314 0.423242 0.613553 -0.072240
C30   C     C_R   0.541440 0.349625 0.639413 -0.121229
C31   C     C_R   0.534844 0.261104 0.560217 0.110421
C32   C     C_R   0.721561 0.238519 0.159676 -0.114503
C33   C     C_R   0.809338 0.319052 0.264585 -0.126964
C34   C     C_R   0.710069 0.035154 0.541566 0.055905
C35   C     C_R   0.795943 0.332038 0.355846 0.158884
C36   C     C_R   0.693709 0.262115 0.340499 -0.092944
C37   C     C_R   0.606224 0.181637 0.235502 -0.137506
C38   C     C_R   0.620017 0.170177 0.145116 -0.109121
C39   C     C_R   0.883844 0.509798 0.524114 -0.091897
C40   C     C_R   0.250779 0.313380 0.721421 -0.115249
C41   C     C_R   0.983012 0.610772 0.596132 -0.016241
C42   C     C_R   0.079852 0.610991 0.650728 0.031530
C43   C     C_R   0.082675 0.514937 0.607783 -0.225280
C44   C     C_R   0.991061 0.420818 0.511568 0.066729
C45   C     C_R   0.704934 0.692931 0.285069 -0.147964
C46   C     C_R   0.889731 0.419106 0.466656 -0.098600
C47   C     C_R   0.283197 0.738013 0.783764 -0.181633
C48   C     C_R   0.369876 0.823417 0.887307 -0.109684
C49   C     C_R   0.347553 0.877269 0.965595 -0.108173
C50   C     C_R   0.238706 0.847081 0.939992 -0.126776
C51   C     C_R   0.151864 0.763017 0.836206 -0.129529
C52   C     C_R   0.746463 0.966732 0.561499 -0.136567
C53   C     C_R   0.173141 0.706492 0.757438 0.120651
C54   C     C_2   0.369283 0.521559 0.932693 -0.119788
C55   C     C_2   0.324086 0.423045 0.924162 -0.196111
C56   C     C_R   0.307576 0.102834 0.511674 -0.161740
C57   C     C_2   0.466841 0.615029 0.034299 -0.119553
C58   C     C_2   0.537072 0.599552 0.102340 -0.211913
C59   C     C_R   0.383747 0.251592 0.126411 -0.125072
C60   C     C_R   0.300774 0.143751 0.080506 -0.199587
C61   C     C_R   0.189442 0.115853 0.036245 0.123243
C62   C     C_R   0.162652 0.197442 0.038512 -0.121139
C63   C     C_R   0.246124 0.305608 0.086459 -0.133129
C64   C     C_R   0.906607 0.216488 0.427978 -0.135848
C65   C     C_R   0.356613 0.332780 0.131221 -0.128582
C66   C     C_R   0.108914 0.989425 0.090988 -0.247638
C67   C     C_R   0.087091 0.790125 0.596953 -0.123256
C68   C     C_R   0.015036 0.913594 0.082073 0.059181
C69   C     C_R   0.923866 0.831699 0.978407 0.008283
C70   C     C_R   0.921004 0.841541 0.887558 -0.244153
C71   C     C_R   0.007577 0.932537 0.901591 0.055601
C72   C     C_R   0.103120 0.006824 0.005267 0.011722
C73   C     C_R   0.862557 0.668023 0.002716 -0.119054
C74   C     C_R   0.780540 0.577872 0.993026 -0.107877
C75   C     C_R   0.671244 0.554035 0.946357 -0.078544
C76   C     C_R   0.090671 0.000666 0.800323 -0.130683
C77   C     C_R   0.643940 0.620540 0.909694 -0.111362
C78   C     C_R   0.912055 0.934078 0.188327 -0.120003
C79   C     C_R   0.725652 0.710355 0.918786 -0.195336
C80   C     C_R   0.835604 0.734687 0.964941 0.141934
C81   C     C_R   0.000816 0.949756 0.809700 0.060041
C82   C     C_2   0.777101 0.502242 0.508633 0.958025
C83   C     C_R   0.095159 0.020444 0.283843 -0.127288
H1    H     H_    0.824411 0.852263 0.685237 0.117030
H2    H     H_    0.486974 0.670560 0.535373 0.104761
H3    H     H_    0.475833 0.819496 0.504146 0.117133
H4    H     H_    0.173633 0.372608 0.551239 0.084832
H5    H     H_    0.741312 0.057224 0.833380 0.114940
H6    H     H_    0.752497 0.908341 0.863090 0.118286
H7    H     H_    0.497944 0.032983 0.711081 0.125158
H8    H     H_    0.678071 0.201077 0.539094 0.122438
H9    H     H_    0.496193 0.178355 0.392479 0.106213
H10   H     H_    0.452182 0.307840 0.347702 0.126808
H11   H     H_    0.465974 0.464880 0.488392 0.089262
H12   H     H_    0.332482 0.162955 0.487485 0.120846
H13   H     H_    0.522106 0.491172 0.674429 0.098837
H14   H     H_    0.564226 0.360857 0.720517 0.111586
H15   H     H_    0.552129 0.108433 0.063747 0.104735
H16   H     H_    0.256625 0.200841 0.876580 0.128447
H17   H     H_    0.732171 0.229284 0.089589 0.106824
H18   H     H_    0.887492 0.371822 0.274763 0.108142
H19   H     H_    0.682696 0.269718 0.410034 0.098737
H20   H     H_    0.527719 0.128424 0.224241 0.095911
H21   H     H_    0.155738 0.513355 0.651378 0.119246
H22   H     H_    0.302026 0.696692 0.724357 0.110172
H23   H     H_    0.171269 0.819746 0.654324 0.108800
H24   H     H_    0.454319 0.847038 0.907230 0.107138
H25   H     H_    0.414460 0.941743 0.046377 0.095664
H26   H     H_    0.221385 0.887490 0.001130 0.119952
H27   H     H_    0.718428 0.100027 0.429104 0.087624
H28   H     H_    0.067969 0.739834 0.818534 0.133228
H29   H     H_    0.348205 0.531640 0.861475 0.116871
H30   H     H_    0.340223 0.415752 0.996397 0.141499
H31   H     H_    0.488616 0.696042 0.044545 0.124662
H32   H     H_    0.518543 0.518876 0.091356 0.132691
H33   H     H_    0.421280 0.416822 0.169729 0.106533
H34   H     H_    0.828000 0.886072 0.122717 0.107042
H35   H     H_    0.469317 0.272932 0.161095 0.150506
H36   H     H_    0.323512 0.082854 0.082126 0.109921
H37   H     H_    0.077631 0.178042 0.007208 0.109801
H38   H     H_    0.225260 0.368683 0.090121 0.116526
H39   H     H_    0.265313 0.377918 0.701731 0.082390
H40   H     H_    0.181935 0.050110 0.169239 0.130288
H41   H     H_    0.850898 0.780021 0.807179 0.155657
H42   H     H_    0.947037 0.685841 0.039496 0.107296
H43   H     H_    0.801794 0.526695 0.022017 0.109953
H44   H     H_    0.607851 0.484531 0.939253 0.107512
H45   H     H_    0.180913 0.047598 0.309686 0.099798
H46   H     H_    0.559555 0.603018 0.874963 0.105737
H47   H     H_    0.703918 0.763293 0.894289 0.103447
H48   H     H_    0.744720 0.937111 0.616862 0.132938
H49   H     H_    0.821289 0.186343 0.378393 0.106204
H50   H     H_    0.174077 0.020714 0.848895 0.108375
H51   H     H_    0.676595 0.634752 0.311240 0.111683
H52   H     H_    0.627455 0.469535 0.405812 0.309580
H53   H     H_    0.819129 0.656969 0.479599 0.119978
H54   H     H_    0.675051 0.815693 0.141131 0.083267
H55   H     H_    0.329823 0.985458 0.660339 0.088186
H56   H     H_    0.626086 0.713823 0.712579 0.114446
N1    N     N_R   0.941940 0.944580 0.650780 -0.040433
N2    N     N_R   0.204460 0.150250 0.707090 -0.043693
N3    N     N_R   0.794270 0.003240 0.446420 -0.041061
N4    N     N_R   0.204920 0.207570 0.650770 -0.043078
N5    N     N_R   0.793810 0.945920 0.502740 -0.043642
N6    N     N_R   0.943620 0.152590 0.446420 -0.039949
N7    N     N_R   0.055110 0.000900 0.707100 -0.039274
N8    N     N_R   0.795080 0.792430 0.349230 -0.043456
N9    N     N_R   0.206190 0.054080 0.497260 -0.042098
N10   N     N_R   0.056380 0.847410 0.553580 -0.043497
N11   N     N_R   0.944890 0.999100 0.292900 -0.044226
N12   N     N_R   0.058060 0.055420 0.349220 -0.041770
N13   N     N_R   0.943200 0.791100 0.497260 -0.045165
N14   N     N_R   0.795540 0.849750 0.292910 -0.046120
N15   N     N_R   0.205730 0.996760 0.553580 -0.040600
N16   N     N_R   0.056800 0.208900 0.502740 -0.036988
Ni1   Ni    Ni4+2 0.869690 0.869690 0.500000 0.216296
Ni2   Ni    Ni4+2 0.130310 0.130310 0.500000 0.213098
Ni3   Ni    Ni4+2 0.129250 0.998840 0.629170 0.209953
Ni4   Ni    Ni4+2 0.870750 0.001160 0.370830 0.212532
O1    O     O_2   0.767671 0.540898 0.588544 -0.650657
O2    O     O_R   0.690893 0.459338 0.404292 -0.822857

loop_
_geom_bond_atom_site_label_1
_geom_bond_atom_site_label_2
_ccdc_geom_bond_type
C25   C31   A    
C56   H12   S    
C66   C68   A    
C63   C65   A    
C10   H2    S    
N5    Ni1   S    
C6    C45   A    
C64   N6    A    
N16   Ni2   S    
C41   C42   A    
C6    C58   S    
C35   C36   A    
N3    Ni4   S    
C38   H15   S    
C3    C6    A    
C54   C57   S    
N9    Ni2   S    
C5    H55   S    
C39   C41   A    
C4    H4    S    
C1    H1    S    
C30   H14   S    
C45   H51   S    
C37   C38   A    
C33   H18   S    
N12   Ni2   S    
C36   C37   A    
N15   Ni3   S    
N2    N4    A    
C42   C53   S    
C30   C31   A    
C12   C64   A    
C73   H42   S    
C48   H24   S    
C67   N10   A    
C11   H3    S    
C1    C81   A    
C5    N15   A    
C3    N14   A    
C27   C29   A    
C60   H36   S    
C36   H19   S    
C18   C19   A    
C73   C74   A    
C43   H21   S    
C66   C72   A    
C64   H49   S    
C68   C69   A    
C47   H22   S    
C70   C71   A    
C3    H54   S    
C32   C38   A    
C4    C12   A    
C29   C30   A    
N10   Ni3   S    
C83   H45   S    
C62   H37   S    
C47   C53   A    
C26   H10   S    
C28   C34   A    
C59   C60   A    
C13   C14   A    
H52   O2    S    
C61   C62   A    
N9    N15   A    
C7    C56   A    
C63   H38   S    
C44   C46   A    
N4    Ni2   S    
C49   H25   S    
C83   N12   A    
C77   C79   A    
C2    N13   A    
C22   C34   S    
C74   C75   A    
C18   H7    S    
N13   Ni1   S    
C78   H34   S    
C8    C41   S    
N11   Ni4   S    
N10   N13   A    
N1    N7    A    
C37   H20   S    
C55   H30   S    
C28   H27   S    
C25   C26   A    
C79   H47   S    
C50   H26   S    
C2    H53   S    
C32   H17   S    
C13   C24   S    
C60   C61   A    
C51   C53   A    
C56   N9    A    
C43   C44   A    
C62   C63   A    
C15   H6    S    
C82   O1    D    
C47   C48   A    
C50   C51   A    
C26   C27   A    
C54   H29   S    
C17   H56   S    
C77   H46   S    
N8    Ni1   S    
C75   C77   A    
C1    N1    A    
C9    C83   A    
C39   C46   A    
C61   C72   S    
C48   C49   A    
N1    Ni1   S    
C16   C23   A    
C7    C19   S    
C52   N5    A    
C58   H32   S    
C65   H33   S    
C18   C24   A    
C28   N3    A    
C42   C43   A    
N3    N5    A    
N14   Ni4   S    
C78   N11   A    
C5    C7    A    
C21   H8    S    
C15   C17   A    
C54   C55   D    
C25   H9    S    
C51   H28   S    
C66   H40   S    
C45   N8    A    
C52   H48   S    
C16   H16   S    
C2    C8    A    
C39   C82   S    
C69   C80   S    
C76   C81   A    
C29   H13   S    
C76   H50   S    
C67   H23   S    
C23   C55   S    
C57   H31   S    
N7    Ni3   S    
C82   O2    S    
C59   H35   S    
C40   H39   S    
C34   C52   A    
N11   N12   A    
C32   C33   A    
C19   C20   A    
C16   N2    A    
C9    C68   S    
C14   H5    S    
C71   C72   A    
C12   C44   S    
C59   C65   A    
C11   C13   A    
C57   C58   D    
C74   H43   S    
N6    Ni4   S    
C33   C35   A    
C73   C80   A    
C22   C24   A    
C9    C78   A    
C69   C70   A    
N8    N14   A    
C10   C11   A    
C76   N7    A    
C79   C80   A    
N6    N16   A    
C70   H41   S    
N2    Ni3   S    
C4    N16   A    
C20   C21   A    
C8    C67   A    
C49   C50   A    
C40   N4    A    
C14   C15   A    
C27   H11   S    
C10   C17   A    
C21   C22   A    
C35   C46   S    
C20   C31   S    
C23   C40   A    
C71   C81   S    
C75   H44   S    
