data_mof_unit_60757.cif
_audit_creation_date              2012-10-26T18:58:25-0400
_audit_creation_method            fapswitch 2.2
_symmetry_space_group_name_H-M    P1
_symmetry_Int_Tables_number       1
_space_group_crystal_system       triclinic
_cell_length_a                    19.532517
_cell_length_b                    18.194034
_cell_length_c                    15.981164
_cell_angle_alpha                 89.998358
_cell_angle_beta                  92.542813
_cell_angle_gamma                 90.012432
_cell_volume                      5673.71833258

loop_
_atom_site_label
_atom_site_type_symbol
_atom_type_description
_atom_site_fract_x
_atom_site_fract_y
_atom_site_fract_z
_atom_type_partial_charge
C1    C     C_R   0.367316 0.499989 0.504108 0.588091
C2    C     C_R   0.928641 0.500189 0.495970 0.090090
C3    C     C_R   0.458012 0.722023 0.443929 0.385100
C4    C     C_R   0.541989 0.277977 0.556071 0.385101
C5    C     C_R   0.541997 0.722036 0.556064 0.385035
C6    C     C_R   0.458002 0.277964 0.443937 0.385035
C7    C     C_R   0.457232 0.799760 0.443244 0.204206
C8    C     C_R   0.542768 0.200240 0.556755 0.204206
C9    C     C_R   0.542774 0.799774 0.556757 0.204156
C10   C     C_R   0.457225 0.200226 0.443244 0.204157
C11   C     C_R   0.500001 0.839416 0.500004 -0.064345
C12   C     C_R   0.632684 0.500011 0.495892 0.588091
C13   C     C_R   0.499998 0.160583 0.499996 -0.064345
C14   C     C_R   0.473987 0.961365 0.567252 -0.021809
C15   C     C_R   0.526013 0.038635 0.432748 -0.021809
C16   C     C_R   0.526016 0.961379 0.432751 -0.021801
C17   C     C_R   0.473984 0.038621 0.567248 -0.021801
C18   C     C_R   0.499997 0.078139 0.499996 0.091695
C19   C     C_R   0.500003 0.921861 0.500003 0.091695
C20   C     C_R   0.499791 0.500001 0.341123 0.565112
C21   C     C_R   0.500209 0.499999 0.658877 0.565113
C22   C     C_R   0.499819 0.566711 0.956320 -0.075480
C23   C     C_R   0.708915 0.500054 0.488878 -0.065455
C24   C     C_R   0.500181 0.433289 0.043680 -0.075480
C25   C     C_R   0.499666 0.566712 0.043644 -0.075526
C26   C     C_R   0.500334 0.433288 0.956356 -0.075526
C27   C     C_R   0.500153 0.499999 0.912709 0.036833
C28   C     C_R   0.499846 0.500001 0.087291 0.036833
C29   C     C_1   0.500234 0.499997 0.823174 -0.003846
C30   C     C_1   0.499766 0.500002 0.176826 -0.003846
C31   C     C_1   0.499752 0.500002 0.251939 0.054908
C32   C     C_1   0.500248 0.499997 0.748061 0.054908
C33   C     C_R   0.746214 0.432757 0.485423 0.225546
C34   C     C_R   0.291085 0.499946 0.511121 -0.065455
C35   C     C_R   0.253785 0.567242 0.514571 0.225545
C36   C     C_R   0.253859 0.432595 0.514804 0.225779
C37   C     C_R   0.746141 0.567405 0.485198 0.225777
C38   C     C_R   0.818081 0.433376 0.488547 0.229171
C39   C     C_R   0.181918 0.566622 0.511445 0.229169
C40   C     C_R   0.181995 0.433075 0.511579 0.229490
C41   C     C_R   0.818006 0.566923 0.488422 0.229490
C42   C     C_R   0.853609 0.500180 0.491759 -0.070735
C43   C     C_R   0.146391 0.499817 0.508237 -0.070734
C44   C     C_R   0.964477 0.511125 0.423010 -0.022125
C45   C     C_R   0.035523 0.488871 0.576985 -0.022125
C46   C     C_R   0.035825 0.510976 0.427051 -0.021433
C47   C     C_R   0.964175 0.489020 0.572943 -0.021434
C48   C     C_R   0.071359 0.499807 0.504025 0.090089
Cl1   Cl    Cl    0.706007 0.346080 0.471010 -0.383286
Cl2   Cl    Cl    0.596700 0.324189 0.629284 -0.387739
Cl3   Cl    Cl    0.596746 0.675838 0.629229 -0.386763
Cl4   Cl    Cl    0.403252 0.324162 0.370774 -0.386766
Cl5   Cl    Cl    0.400950 0.847413 0.372442 -0.400296
Cl6   Cl    Cl    0.599051 0.152587 0.627556 -0.400296
Cl7   Cl    Cl    0.599060 0.847446 0.627557 -0.399833
Cl8   Cl    Cl    0.400938 0.152554 0.372445 -0.399833
Cl9   Cl    Cl    0.293991 0.653921 0.528979 -0.383281
Cl10  Cl    Cl    0.294145 0.345998 0.529433 -0.384095
Cl11  Cl    Cl    0.705856 0.654003 0.470578 -0.384089
Cl12  Cl    Cl    0.864448 0.349672 0.487135 -0.380885
Cl13  Cl    Cl    0.135550 0.650326 0.512852 -0.380883
Cl14  Cl    Cl    0.135763 0.349211 0.510952 -0.380802
Cl15  Cl    Cl    0.864239 0.650786 0.489051 -0.380802
Cl16  Cl    Cl    0.403301 0.675811 0.370714 -0.387737
Cu1   Cu    Cu3+1 0.500000 0.573360 0.500000 1.174765
Cu2   Cu    Cu3+1 0.500000 0.426640 0.500000 1.174767
H1    H     H_    0.499414 0.618525 0.077060 0.154943
H2    H     H_    0.546512 0.067740 0.380304 0.162810
H3    H     H_    0.546516 0.932284 0.380310 0.162793
H4    H     H_    0.453484 0.067716 0.619690 0.162793
H5    H     H_    0.500586 0.381475 0.922940 0.154943
H6    H     H_    0.499671 0.618523 0.922876 0.154923
H7    H     H_    0.500329 0.381477 0.077123 0.154923
H8    H     H_    0.937123 0.519694 0.363357 0.154783
H9    H     H_    0.062876 0.480302 0.636638 0.154783
H10   H     H_    0.063403 0.519477 0.370520 0.156850
H11   H     H_    0.936597 0.480518 0.629475 0.156849
H12   H     H_    0.453488 0.932260 0.619695 0.162810
N1    N     N_R   0.500000 0.683620 0.500000 -0.277809
N2    N     N_R   0.500000 0.316380 0.500000 -0.277808
O1    O     O_R   0.400190 0.561980 0.499990 -0.435755
O2    O     O_R   0.599810 0.438020 0.500010 -0.435754
O3    O     O_R   0.599810 0.561980 0.500010 -0.435697
O4    O     O_R   0.400190 0.438020 0.499990 -0.435695
O5    O     O_R   0.499980 0.561940 0.380310 -0.470758
O6    O     O_R   0.500020 0.438060 0.619690 -0.470757
O7    O     O_R   0.500020 0.561940 0.619690 -0.470814
O8    O     O_R   0.499980 0.438060 0.380310 -0.470814

loop_
_geom_bond_atom_site_label_1
_geom_bond_atom_site_label_2
_ccdc_geom_bond_type
C15   C18   A    
C21   O7    A    
C8    C13   A    
Cu1   N1    S    
C27   C29   S    
C41   C42   A    
C25   H1    S    
C4    C8    A    
C3    N1    A    
C46   H10   S    
C3    Cl16  S    
C1    O4    A    
C7    C11   A    
C12   C23   S    
C11   C19   S    
C26   C27   A    
C13   C18   S    
C24   C26   A    
C4    N2    A    
C29   C32   T    
C3    C7    A    
Cu2   O8    S    
C30   C31   T    
C24   H7    S    
Cu1   O3    S    
C1    O1    A    
C15   C16   A    
C40   Cl14  S    
C34   C35   A    
Cu1   O1    S    
C40   C43   A    
C2    C44   A    
C23   C33   A    
C22   C25   A    
C9    Cl7   S    
C5    N1    A    
C10   Cl8   S    
C43   C48   S    
C17   H4    S    
C26   H5    S    
C14   C17   A    
C22   H6    S    
C47   H11   S    
C44   C46   A    
C1    C34   S    
Cu1   O7    S    
C45   C47   A    
C39   Cl13  S    
C21   C32   S    
C46   C48   A    
C36   C40   A    
C8    Cl6   S    
C39   C43   A    
C23   C37   A    
C12   O3    A    
C4    Cl2   S    
C25   C28   A    
C35   C39   A    
C6    C10   A    
Cu2   O2    S    
C6    N2    A    
C20   O5    A    
C17   C18   A    
C12   O2    A    
C44   H8    S    
C9    C11   A    
C37   Cl11  S    
C38   Cl12  S    
C22   C27   A    
C7    Cl5   S    
C45   C48   A    
C21   O6    A    
C14   C19   A    
C16   H3    S    
C24   C28   A    
C5    C9    A    
C10   C13   A    
Cu2   O6    S    
Cu1   O5    S    
C2    C47   A    
Cu2   N2    S    
C36   Cl10  S    
C33   C38   A    
C45   H9    S    
C35   Cl9   S    
C28   C30   S    
C2    C42   S    
C16   C19   A    
C15   H2    S    
C20   O8    A    
C34   C36   A    
C14   H12   S    
C37   C41   A    
Cu2   O4    S    
C38   C42   A    
Cu1   Cu2   S    
C41   Cl15  S    
C5    Cl3   S    
C6    Cl4   S    
C33   Cl1   S    
C20   C31   S    
