data_mof_unit_39655.cif
_audit_creation_date              2012-10-26T18:34:49-0400
_audit_creation_method            fapswitch 2.2
_symmetry_space_group_name_H-M    P1
_symmetry_Int_Tables_number       1
_space_group_crystal_system       triclinic
_cell_length_a                    10.996902
_cell_length_b                    9.709125
_cell_length_c                    17.74585
_cell_angle_alpha                 90.035291
_cell_angle_beta                  97.227821
_cell_angle_gamma                 89.897666
_cell_volume                      1879.67047532

loop_
_atom_site_label
_atom_site_type_symbol
_atom_type_description
_atom_site_fract_x
_atom_site_fract_y
_atom_site_fract_z
_atom_type_partial_charge
C1    C     C_R   0.262199 0.500652 0.498933 0.584379
C2    C     C_R   0.498517 0.500095 0.644001 0.539720
C3    C     C_R   0.872157 0.502284 0.500801 -0.072803
C4    C     C_R   0.127608 0.503536 0.497958 -0.078435
C5    C     C_R   0.520827 0.622522 0.847668 0.007259
C6    C     C_R   0.536778 0.378023 0.157199 0.007069
C7    C     C_R   0.481510 0.622372 0.152462 0.008075
C8    C     C_R   0.466876 0.377980 0.843092 0.004879
C9    C     C_R   0.519899 0.621650 0.768778 -0.089503
C10   C     C_R   0.537391 0.380208 0.236117 -0.096160
C11   C     C_R   0.481450 0.621426 0.231264 -0.086448
C12   C     C_R   0.737782 0.500219 0.500918 0.587233
C13   C     C_R   0.465272 0.380195 0.764116 -0.107833
C14   C     C_R   0.494695 0.500522 0.726737 0.007838
C15   C     C_R   0.506609 0.500354 0.273352 0.013436
C16   C     C_R   0.434877 0.073079 0.441967 0.152420
C17   C     C_R   0.572290 0.925515 0.555097 0.174784
C18   C     C_R   0.565603 0.073115 0.557895 0.154975
C19   C     C_R   0.427947 0.925623 0.444816 0.167234
C20   C     C_R   0.495848 0.499545 0.885022 0.068115
C21   C     C_R   0.507557 0.499496 0.115210 0.068289
C22   C     C_3   0.548925 0.754609 0.891160 -0.396798
C23   C     C_1   0.500067 0.498324 0.966231 -0.024592
C24   C     C_3   0.566997 0.246065 0.118631 -0.392598
C25   C     C_3   0.453273 0.754436 0.108952 -0.396153
C26   C     C_3   0.437955 0.245877 0.881785 -0.396538
C27   C     C_3   0.375248 0.145297 0.371770 -0.278538
C28   C     C_3   0.662002 0.853355 0.614022 -0.311153
C29   C     C_3   0.627838 0.145623 0.627391 -0.276664
C30   C     C_3   0.339141 0.853588 0.385415 -0.297711
C31   C     C_1   0.503804 0.498273 0.034029 -0.024278
C32   C     C_R   0.057787 0.382225 0.486189 0.196224
C33   C     C_R   0.935611 0.626347 0.490047 0.188277
C34   C     C_R   0.942712 0.380517 0.509427 0.193097
C35   C     C_R   0.062979 0.626842 0.509496 0.174338
C36   C     C_R   0.501783 0.500021 0.356015 0.552075
Cu1   Cu    Cu3+1 0.500000 0.640660 0.500000 1.036234
Cu2   Cu    Cu3+1 0.500000 0.359340 0.500000 1.010006
H1    H     H_    0.539647 0.715698 0.740280 0.132601
H2    H     H_    0.648246 0.261869 0.088310 0.149950
H3    H     H_    0.435106 0.841012 0.146973 0.125456
H4    H     H_    0.532311 0.783203 0.079008 0.137169
H5    H     H_    0.370918 0.740304 0.066599 0.140765
H6    H     H_    0.417206 0.160480 0.840495 0.133375
H7    H     H_    0.517670 0.214587 0.922979 0.130662
H8    H     H_    0.357025 0.261329 0.912491 0.147047
H9    H     H_    0.338601 0.244097 0.387308 0.248046
H10   H     H_    0.442777 0.156302 0.331066 0.101130
H11   H     H_    0.294427 0.093421 0.341202 0.137787
H12   H     H_    0.563460 0.288294 0.268513 0.139463
H13   H     H_    0.671674 0.742974 0.606870 0.182791
H14   H     H_    0.755822 0.893361 0.611689 0.181957
H15   H     H_    0.635878 0.871727 0.671506 0.066410
H16   H     H_    0.662951 0.245217 0.611877 0.246505
H17   H     H_    0.562741 0.155583 0.669720 0.096454
H18   H     H_    0.710429 0.093814 0.655963 0.146681
H19   H     H_    0.328002 0.743618 0.393331 0.192988
H20   H     H_    0.245398 0.895360 0.386081 0.189784
H21   H     H_    0.367345 0.870121 0.328345 0.065734
H22   H     H_    0.946078 0.096411 0.417039 0.423169
H23   H     H_    0.461027 0.715415 0.259642 0.131735
H24   H     H_    0.939436 0.877014 0.340589 0.366249
H25   H     H_    0.098862 0.211764 0.624232 0.340701
H26   H     H_    0.985954 0.773307 0.640378 0.316211
H27   H     H_    0.439626 0.288094 0.731784 0.132370
H28   H     H_    0.566271 0.841236 0.853071 0.125237
H29   H     H_    0.470158 0.783216 0.921477 0.137764
H30   H     H_    0.631736 0.740600 0.933194 0.140065
H31   H     H_    0.587833 0.160742 0.159951 0.134870
H32   H     H_    0.487882 0.214462 0.077118 0.128441
N1    N     N_R   0.500000 0.852070 0.500000 -0.210861
N2    N     N_R   0.500000 0.147930 0.500000 -0.225731
O1    O     O_R   0.319640 0.618740 0.499990 -0.465090
O2    O     O_2   0.170333 0.148534 0.457934 -0.249287
O3    O     O_3   0.951897 0.178979 0.385103 -0.471723
O4    O     O_2   0.773728 0.706192 0.371693 -0.287288
O5    O     O_2   0.816504 0.869251 0.477203 -0.216254
O6    O     O_3   0.982373 0.834051 0.387140 -0.497331
O7    O     O_2   0.872672 0.298641 0.640315 -0.368107
O8    O     O_2   0.818365 0.150191 0.527975 -0.228969
O9    O     O_3   0.042412 0.149539 0.592442 -0.384810
O10   O     O_2   0.224489 0.714824 0.626698 -0.293581
O11   O     O_2   0.182374 0.868951 0.517514 -0.169315
O12   O     O_R   0.680360 0.381260 0.500010 -0.456607
O13   O     O_3   0.016828 0.844697 0.607771 -0.418096
O14   O     O_R   0.680360 0.618740 0.500010 -0.470893
O15   O     O_R   0.319640 0.381260 0.499990 -0.470702
O16   O     O_R   0.500000 0.618830 0.391250 -0.506286
O17   O     O_R   0.500000 0.381170 0.608750 -0.543685
O18   O     O_R   0.500000 0.618830 0.608750 -0.506635
O19   O     O_R   0.500000 0.381170 0.391250 -0.538262
O20   O     O_2   0.137574 0.320956 0.354736 -0.316638
S1    S     S_3+6 0.084603 0.255009 0.419836 0.052329
S2    S     S_3+6 0.871224 0.761817 0.430880 0.073440
S3    S     S_3+6 0.914058 0.242524 0.568838 0.031206
S4    S     S_3+6 0.127137 0.765921 0.566010 0.099854

loop_
_geom_bond_atom_site_label_1
_geom_bond_atom_site_label_2
_ccdc_geom_bond_type
C27   H10   S    
C1    O15   A    
C8    C13   A    
C8    C26   S    
H26   O13   S    
Cu1   O16   S    
C19   N1    A    
C28   H13   S    
C16   N2    A    
C33   S2    S    
C25   H5    S    
C24   H32   S    
C5    C20   A    
C13   H27   S    
C35   S4    S    
C36   O16   A    
C7    C11   A    
C21   C31   S    
Cu2   O17   S    
C8    C20   A    
Cu1   O18   S    
H25   O9    S    
C10   C15   A    
O9    S3    S    
O13   S4    S    
C29   H16   S    
C3    C33   A    
C30   H19   S    
O5    S2    D    
C9    H1    S    
C12   O12   A    
C2    O18   A    
C22   H28   S    
C3    C12   S    
C26   H7    S    
O4    S2    D    
C11   C15   A    
C5    C22   S    
C16   C27   S    
C32   S1    S    
C4    C35   A    
C13   C14   A    
O2    S1    D    
C24   H31   S    
C18   N2    A    
Cu2   N2    S    
O10   S4    D    
C26   H6    S    
Cu1   O14   S    
C34   S3    S    
C25   H3    S    
C29   H17   S    
C3    C34   A    
C7    C21   A    
C6    C21   A    
Cu2   O19   S    
C23   C31   T    
O7    S3    D    
C2    O17   A    
C9    C14   A    
C5    C9    A    
Cu1   Cu2   S    
C20   C23   S    
C6    C24   S    
C30   H21   S    
C17   C18   A    
C18   C29   S    
O8    S3    D    
C22   H30   S    
C4    C32   A    
C36   O19   A    
C17   N1    A    
Cu1   N1    S    
C10   H12   S    
C15   C36   S    
O3    S1    S    
C27   H9    S    
Cu1   O1    S    
Cu2   O12   S    
C17   C28   S    
H24   O6    S    
C11   H23   S    
C25   H4    S    
C6    C10   A    
C28   H15   S    
C29   H18   S    
H22   O3    S    
C7    C25   S    
C12   O14   A    
Cu2   O15   S    
C1    C4    S    
C1    O1    A    
C28   H14   S    
C33   C35   A    
O6    S2    S    
C16   C19   A    
O11   S4    D    
C30   H20   S    
O20   S1    D    
C24   H2    S    
C2    C14   S    
C22   H29   S    
C26   H8    S    
C19   C30   S    
C27   H11   S    
C32   C34   A    
