data_mof_unit_28836.cif
_audit_creation_date              2012-12-11T14:40:11-0500
_audit_creation_method            fapswitch 2.2
_symmetry_space_group_name_H-M    P1
_symmetry_Int_Tables_number       1
_space_group_crystal_system       triclinic
_cell_length_a                    19.504412
_cell_length_b                    10.91626
_cell_length_c                    19.474229
_cell_angle_alpha                 90.408927
_cell_angle_beta                  97.755591
_cell_angle_gamma                 89.357041
_cell_volume                      4108.10730321

loop_
_atom_site_label
_atom_site_type_symbol
_atom_type_description
_atom_site_fract_x
_atom_site_fract_y
_atom_site_fract_z
_atom_type_partial_charge
C1    C     C_R   0.727389 0.948317 0.359370 0.537081
C2    C     C_R   0.273509 0.948702 0.640241 0.551771
C3    C     C_R   0.227389 0.448316 0.359369 0.537339
C4    C     C_R   0.773509 0.448703 0.640240 0.551884
C5    C     C_3   0.765772 0.270121 0.493789 -0.169798
C6    C     C_3   0.299103 0.268368 0.500460 -0.165027
C7    C     C_3   0.265767 0.770119 0.493789 -0.169804
C8    C     C_3   0.799099 0.768367 0.500461 -0.164854
C9    C     C_3   0.731676 0.356799 0.438094 0.078300
C10   C     C_3   0.269907 0.337990 0.559156 0.075442
C11   C     C_3   0.231676 0.856801 0.438094 0.077913
C12   C     C_3   0.769906 0.837994 0.559156 0.075402
C13   C     C_3   0.676692 0.391597 0.483278 0.097032
C14   C     C_3   0.292843 0.458190 0.531681 0.112455
C15   C     C_3   0.176693 0.891606 0.483277 0.096788
C16   C     C_3   0.792845 0.958190 0.531681 0.112270
C17   C     C_3   0.720981 0.498512 0.513661 -0.126270
C18   C     C_3   0.221321 0.474581 0.488812 -0.119734
C19   C     C_3   0.220986 0.998515 0.513661 -0.126009
C20   C     C_3   0.721323 0.974586 0.488813 -0.119801
C21   C     C_3   0.777095 0.463022 0.467514 -0.129319
C22   C     C_3   0.198486 0.351132 0.515230 -0.124459
C23   C     C_3   0.277099 0.963018 0.467515 -0.129359
C24   C     C_3   0.698485 0.851140 0.515232 -0.124520
C25   C     C_3   0.811670 0.376225 0.524149 -0.116641
C26   C     C_3   0.227087 0.281778 0.455653 -0.142984
C27   C     C_3   0.311669 0.876217 0.524150 -0.116644
C28   C     C_3   0.727083 0.781781 0.455655 -0.142883
C29   C     C_3   0.754997 0.409847 0.569284 0.038654
C30   C     C_3   0.249623 0.404604 0.429362 0.036452
C31   C     C_3   0.254997 0.909845 0.569284 0.038664
C32   C     C_3   0.749622 0.904605 0.429363 0.036877
C33   C     C_3   0.501169 0.273550 0.978302 -0.095823
C34   C     C_3   0.451329 0.273438 0.033282 -0.112573
C35   C     C_3   0.029830 0.764171 0.967361 -0.103806
C36   C     C_3   0.987505 0.781530 0.027825 -0.098863
C37   C     C_3   0.544895 0.170551 0.016408 -0.107773
C38   C     C_3   0.406474 0.174711 0.991860 -0.150720
C39   C     C_3   0.070462 0.656105 0.004497 -0.148005
C40   C     C_3   0.932818 0.690132 0.995094 -0.146118
C41   C     C_3   0.495055 0.170712 0.071038 0.052840
C42   C     C_3   0.456806 0.175195 0.937742 0.042816
C43   C     C_3   0.028027 0.673669 0.064318 0.056121
C44   C     C_3   0.975140 0.673315 0.935206 0.056024
C45   C     C_R   0.562876 0.183071 0.348326 0.550954
C46   C     C_R   0.465729 0.179330 0.662660 0.545717
C47   C     C_R   0.062886 0.683072 0.348326 0.555232
C48   C     C_R   0.965734 0.679329 0.662663 0.544490
C49   C     C_3   0.450792 0.071577 0.031225 -0.123057
C50   C     C_3   0.500333 0.071920 0.975415 -0.102691
C51   C     C_3   0.973597 0.582080 0.032526 -0.105402
C52   C     C_3   0.015420 0.564766 0.971011 -0.105738
C53   C     C_1   0.773780 0.452883 0.910885 -0.001910
C54   C     C_1   0.237133 0.424973 0.095765 -0.007421
C55   C     C_1   0.272888 0.950498 0.910447 -0.003855
C56   C     C_1   0.737207 0.924744 0.095837 -0.000887
C57   C     C_1   0.743669 0.389365 0.031727 -0.041487
C58   C     C_1   0.252394 0.408332 0.965383 -0.050620
C59   C     C_1   0.242869 0.887007 0.031291 -0.045915
C60   C     C_1   0.752525 0.907902 0.965474 -0.047915
C61   C     C_1   0.759032 0.423581 0.966275 -0.039452
C62   C     C_1   0.245673 0.415188 0.036107 -0.052105
C63   C     C_1   0.258056 0.920889 0.965742 -0.044333
C64   C     C_1   0.745783 0.914826 0.036194 -0.045214
C65   C     C_1   0.732940 0.358005 0.088194 -0.004188
C66   C     C_1   0.257261 0.395290 0.905014 -0.006392
C67   C     C_1   0.232424 0.856333 0.087955 -0.009372
C68   C     C_1   0.757357 0.894970 0.905092 -0.005720
C69   C     C_R   0.724911 0.313529 0.367693 0.551438
C70   C     C_R   0.276089 0.307517 0.632709 0.571000
C71   C     C_R   0.224911 0.813530 0.367693 0.552703
C72   C     C_R   0.776089 0.807518 0.632709 0.570534
C73   C     C_R   0.722066 0.952317 0.163778 0.543748
C74   C     C_R   0.291923 0.988950 0.845924 0.531971
C75   C     C_R   0.222046 0.452376 0.163747 0.535763
C76   C     C_R   0.792404 0.490204 0.845970 0.535614
C77   C     C_R   0.527239 0.178752 0.142504 0.548216
C78   C     C_R   0.436505 0.183197 0.863039 0.545952
C79   C     C_R   0.058598 0.681501 0.135737 0.540202
C80   C     C_R   0.942979 0.682212 0.864510 0.538829
C81   C     C_R   0.723659 0.316137 0.155432 0.555931
C82   C     C_R   0.263968 0.360643 0.835620 0.543157
C83   C     C_R   0.223498 0.815533 0.155478 0.539447
C84   C     C_R   0.763992 0.860563 0.835648 0.544788
C85   C     C_1   0.493923 0.169814 0.598798 -0.012756
C86   C     C_1   0.542306 0.173390 0.415816 0.027171
C87   C     C_1   0.993935 0.669814 0.598804 -0.013004
C88   C     C_1   0.042325 0.673391 0.415823 0.025624
C89   C     C_1   0.527880 0.167522 0.473829 -0.032716
C90   C     C_1   0.511358 0.166255 0.541914 -0.054651
C91   C     C_1   0.027902 0.667524 0.473837 -0.032399
C92   C     C_1   0.011376 0.666256 0.541922 -0.054376
C93   C     C_3   0.709044 0.303772 0.539918 -0.123311
C94   C     C_3   0.321999 0.391838 0.472065 -0.099725
C95   C     C_3   0.209040 0.803777 0.539917 -0.123375
C96   C     C_3   0.821998 0.891833 0.472065 -0.099400
Cr1   Cr    Cr6+3 0.765830 0.160660 0.268180 1.020482
Cr2   Cr    Cr6+3 0.234170 0.160660 0.731820 1.016939
Cr3   Cr    Cr6+3 0.265830 0.660660 0.268180 1.012773
Cr4   Cr    Cr6+3 0.734170 0.660660 0.731820 1.019763
Cr5   Cr    Cr6+3 0.612110 0.009150 0.248770 1.023424
Cr6   Cr    Cr6+3 0.387890 0.009150 0.751230 1.022395
Cr7   Cr    Cr6+3 0.112110 0.509150 0.248770 1.024332
Cr8   Cr    Cr6+3 0.887890 0.509150 0.751230 1.021542
Cr9   Cr    Cr6+3 0.615930 0.324050 0.248450 1.027831
Cr10  Cr    Cr6+3 0.384070 0.324050 0.751550 1.041921
Cr11  Cr    Cr6+3 0.115930 0.824050 0.248450 1.025786
Cr12  Cr    Cr6+3 0.884070 0.824050 0.751550 1.042235
H1    H     H_    0.785106 0.182097 0.475947 0.125493
H2    H     H_    0.333059 0.186436 0.509313 0.106388
H3    H     H_    0.285099 0.682092 0.475946 0.125552
H4    H     H_    0.833054 0.686433 0.509315 0.106540
H5    H     H_    0.681216 0.240121 0.570437 0.116154
H6    H     H_    0.372025 0.410357 0.453092 0.123737
H7    H     H_    0.181209 0.740129 0.570435 0.115935
H8    H     H_    0.872025 0.910348 0.453092 0.124231
H9    H     H_    0.199074 0.088509 0.526146 0.123533
H10   H     H_    0.687650 0.057401 0.482906 0.097022
H11   H     H_    0.699067 0.588505 0.526145 0.123485
H12   H     H_    0.187646 0.557394 0.482906 0.096802
H13   H     H_    0.803838 0.524033 0.434603 0.127658
H14   H     H_    0.147540 0.333862 0.532592 0.137282
H15   H     H_    0.303846 0.024026 0.434605 0.127072
H16   H     H_    0.647539 0.833875 0.532595 0.137311
H17   H     H_    0.868011 0.368683 0.542331 0.138773
H18   H     H_    0.199885 0.210339 0.421757 0.131082
H19   H     H_    0.368010 0.868667 0.542333 0.138701
H20   H     H_    0.699879 0.710344 0.421760 0.131043
H21   H     H_    0.602279 0.168603 0.027744 0.108418
H22   H     H_    0.349201 0.176607 0.979880 0.106207
H23   H     H_    0.127437 0.642153 0.010458 0.106275
H24   H     H_    0.875832 0.703920 0.989275 0.105753
H25   H     H_    0.522422 0.356437 0.956460 0.143626
H26   H     H_    0.431107 0.355422 0.058357 0.133248
H27   H     H_    0.052870 0.838777 0.939785 0.144342
H28   H     H_    0.975897 0.871029 0.051401 0.145045
H29   H     H_    0.430332 0.989549 0.054647 0.130583
H30   H     H_    0.520565 0.989800 0.950491 0.137671
H31   H     H_    0.951317 0.507862 0.061017 0.138222
H32   H     H_    0.026079 0.476363 0.945775 0.136929
O1    O     O_R   0.783230 0.287800 0.346510 -0.506576
O2    O     O_R   0.216770 0.287800 0.653490 -0.526102
O3    O     O_R   0.283230 0.787800 0.346510 -0.505852
O4    O     O_R   0.716770 0.787800 0.653490 -0.526353
O5    O     O_R   0.554500 0.081650 0.170370 -0.494557
O6    O     O_R   0.445500 0.081650 0.829630 -0.506389
O7    O     O_R   0.054500 0.581650 0.170370 -0.487302
O8    O     O_R   0.945500 0.581650 0.829630 -0.509296
O9    O     O_R   0.545430 0.285140 0.163100 -0.519676
O10   O     O_R   0.454570 0.285140 0.836900 -0.507472
O11   O     O_R   0.045430 0.785140 0.163100 -0.514969
O12   O     O_R   0.954570 0.785140 0.836900 -0.509646
O13   O     O_R   0.677850 0.374730 0.185500 -0.480759
O14   O     O_R   0.322150 0.374730 0.814500 -0.505750
O15   O     O_R   0.177850 0.874730 0.185500 -0.491687
O16   O     O_R   0.822150 0.874730 0.814500 -0.502365
O17   O     O_3   0.664630 0.164620 0.255130 -0.309775
O18   O     O_3   0.335370 0.164620 0.744870 -0.317486
O19   O     O_3   0.164630 0.664620 0.255130 -0.325685
O20   O     O_3   0.835370 0.664620 0.744870 -0.312637
O21   O     O_R   0.760130 0.037060 0.338610 -0.525128
O22   O     O_R   0.239870 0.037060 0.661390 -0.517150
O23   O     O_R   0.260130 0.537060 0.338610 -0.523936
O24   O     O_R   0.739870 0.537060 0.661390 -0.517470
O25   O     O_R   0.666620 0.921370 0.332440 -0.514049
O26   O     O_R   0.333380 0.921370 0.667560 -0.511400
O27   O     O_R   0.166620 0.421370 0.332440 -0.513665
O28   O     O_R   0.833380 0.421370 0.667560 -0.511493
O29   O     O_R   0.557170 0.082420 0.312350 -0.494932
O30   O     O_R   0.442830 0.082420 0.687650 -0.495374
O31   O     O_R   0.057170 0.582420 0.312350 -0.486103
O32   O     O_R   0.942830 0.582420 0.687650 -0.495552
O33   O     O_R   0.548310 0.285980 0.316250 -0.497867
O34   O     O_R   0.451690 0.285980 0.683750 -0.497480
O35   O     O_R   0.048310 0.785980 0.316250 -0.489281
O36   O     O_R   0.951690 0.785980 0.683750 -0.497936
O37   O     O_R   0.680520 0.375500 0.327470 -0.497295
O38   O     O_R   0.319480 0.375500 0.672530 -0.454136
O39   O     O_R   0.180520 0.875500 0.327470 -0.496877
O40   O     O_R   0.819480 0.875500 0.672530 -0.454082
O41   O     O_R   0.780350 0.286970 0.193350 -0.492030
O42   O     O_R   0.219650 0.286970 0.806650 -0.507055
O43   O     O_R   0.280350 0.786970 0.193350 -0.489225
O44   O     O_R   0.719650 0.786970 0.806650 -0.506510
O45   O     O_R   0.757460 0.036290 0.196640 -0.508113
O46   O     O_R   0.242540 0.036290 0.803360 -0.487895
O47   O     O_R   0.257460 0.536290 0.196640 -0.510602
O48   O     O_R   0.742540 0.536290 0.803360 -0.486400
O49   O     O_R   0.663740 0.920540 0.179290 -0.500742
O50   O     O_R   0.336260 0.920540 0.820710 -0.501610
O51   O     O_R   0.163740 0.420540 0.179290 -0.506564
O52   O     O_R   0.836260 0.420540 0.820710 -0.501780
N1    N     N_3   0.603355 0.407356 0.459098 -0.624087
H33   H     H_    0.579510 0.435621 0.501558 0.230568
H34   H     H_    0.598017 0.479609 0.423792 0.242702
N2    N     N_3   0.332203 0.546099 0.577724 -0.589849
H35   H     H_    0.365227 0.594700 0.550137 0.219892
H36   H     H_    0.297624 0.606336 0.597363 0.241478
N3    N     N_3   0.103357 0.907375 0.459096 -0.624609
H37   H     H_    0.079512 0.935643 0.501556 0.230673
H38   H     H_    0.098022 0.979629 0.423791 0.242835
N4    N     N_3   0.832209 0.046097 0.577723 -0.589913
H39   H     H_    0.865233 0.094693 0.550135 0.219874
H40   H     H_    0.797632 0.106338 0.597361 0.241535

loop_
_geom_bond_atom_site_label_1
_geom_bond_atom_site_label_2
_ccdc_geom_bond_type
C58   C62   S    
Cr9   O13   S    
C67   C83   S    
Cr10  O10   S    
C49   H29   S    
C17   C29   S    
C9    C21   S    
C14   C18   S    
C7    C27   S    
C35   C39   S    
C35   C36   S    
C8    C96   S    
C81   O41   A    
C44   C80   S    
C19   C31   S    
C69   O37   A    
Cr3   O47   S    
C94   H6    S    
C3    O27   A    
C38   C49   S    
C10   C22   S    
C15   C19   S    
Cr5   O5    S    
N4    H40   S    
C37   C41   S    
C33   C42   S    
C38   H22   S    
Cr3   O3    S    
C16   C20   S    
Cr4   O48   S    
C9    C69   S    
Cr1   O45   S    
C38   C42   S    
Cr3   O19   S    
C8    H4    S    
C15   C95   S    
C73   O49   A    
C11   C71   S    
C83   O15   A    
C34   H26   S    
C69   O1    A    
Cr8   O52   S    
C24   H16   S    
C81   O13   A    
Cr1   O41   S    
Cr12  O40   S    
C53   C61   T    
C80   O12   A    
C12   C24   S    
C26   H18   S    
C71   O39   A    
C49   C50   S    
C25   H17   S    
C7    C11   S    
C9    C13   S    
Cr11  O35   S    
C59   C67   T    
Cr12  O12   S    
C55   C74   S    
C11   C15   S    
C58   C66   T    
Cr9   O17   S    
Cr2   O18   S    
C95   H7    S    
Cr10  O14   S    
C55   C63   T    
Cr4   O44   S    
C4    O24   A    
Cr5   O29   S    
C18   C30   S    
C23   C27   S    
C2    O26   A    
C40   C44   S    
Cr3   O43   S    
C4    C29   S    
C76   O48   A    
C3    O23   A    
Cr8   O32   S    
C46   C85   S    
Cr11  O11   S    
C44   C52   S    
C39   C52   S    
C40   H24   S    
Cr5   O17   S    
N3    H37   S    
Cr6   O26   S    
Cr9   O33   S    
C87   C92   T    
Cr2   O2    S    
Cr7   O31   S    
C6    H2    S    
Cr6   O18   S    
C34   C41   S    
C27   H19   S    
Cr8   O20   S    
C16   N4    S    
C36   H28   S    
C28   C32   S    
C20   H10   S    
C73   O45   A    
Cr2   O22   S    
C22   H14   S    
C74   O46   A    
C25   C29   S    
C70   O2    A    
C16   C96   S    
N4    H39   S    
C27   C31   S    
C51   C52   S    
C68   C84   S    
C12   C16   S    
C84   O44   A    
Cr10  O38   S    
N2    H36   S    
C10   C14   S    
C35   H27   S    
C91   C92   S    
C29   C93   S    
C19   C23   S    
C70   O38   A    
C23   H15   S    
C54   C62   T    
N1    H34   S    
Cr10  O18   S    
C1    C32   S    
C33   C37   S    
C46   O30   A    
C82   O14   A    
C13   C93   S    
C2    C31   S    
Cr1   O17   S    
Cr2   O42   S    
C3    C30   S    
C75   O51   A    
C5    C9    S    
C76   O52   A    
C45   O33   A    
Cr8   O28   S    
C15   N3    S    
Cr4   O20   S    
C47   O31   A    
Cr12  O16   S    
C88   C91   T    
C36   C40   S    
C8    C12   S    
Cr11  O19   S    
C74   O50   A    
C46   O34   A    
C33   C34   S    
Cr10  O34   S    
C48   C87   S    
C83   O43   A    
Cr4   O24   S    
C78   O10   A    
C93   H5    S    
Cr7   O27   S    
Cr5   O25   S    
C35   C44   S    
Cr1   O1    S    
C42   C50   S    
C5    C25   S    
C10   C70   S    
C14   C94   S    
Cr9   O37   S    
C32   C96   S    
C26   C30   S    
Cr1   O21   S    
Cr4   O4    S    
C8    C28   S    
Cr3   O23   S    
C53   C76   S    
Cr7   O51   S    
C72   O40   A    
C78   O6    A    
C77   O9    A    
C40   C51   S    
C18   H12   S    
C19   H9    S    
C7    C95   S    
C48   O32   A    
C42   C78   S    
C79   O11   A    
C20   C32   S    
C72   O4    A    
C21   C25   S    
C56   C73   S    
Cr11  O39   S    
C1    O25   A    
C34   C38   S    
C59   C63   S    
C33   H25   S    
C75   O47   A    
C24   C28   S    
C57   C65   T    
N2    H35   S    
C86   C89   T    
C45   O29   A    
C6    C10   S    
C5    C93   S    
C85   C90   T    
C50   H30   S    
C57   C61   S    
Cr12  O20   S    
Cr7   O7    S    
C7    H3    S    
C41   C49   S    
Cr9   O9    S    
C82   O42   A    
Cr5   O49   S    
C13   C17   S    
C60   C64   S    
C47   C88   S    
C18   C22   S    
C45   C86   S    
C14   N2    S    
Cr8   O8    S    
Cr2   O46   S    
Cr6   O6    S    
C66   C82   S    
C41   C77   S    
C37   C50   S    
C84   O16   A    
Cr7   O19   S    
C56   C64   T    
C6    C26   S    
C77   O5    A    
C39   H23   S    
Cr6   O30   S    
C43   C51   S    
C31   C95   S    
Cr12  O36   S    
C11   C23   S    
Cr6   O50   S    
C37   H21   S    
C79   O7    A    
C21   H13   S    
C12   C72   S    
C17   C21   S    
C17   H11   S    
C47   O35   A    
C1    O21   A    
C54   C75   S    
C52   H32   S    
C4    O28   A    
C80   O8    A    
C60   C68   T    
C30   C94   S    
N1    H33   S    
C22   C26   S    
C6    C94   S    
N3    H38   S    
C65   C81   S    
C96   H8    S    
C36   C43   S    
C13   N1    S    
C5    H1    S    
C71   O3    A    
C89   C90   S    
C43   C79   S    
C39   C43   S    
C20   C24   S    
Cr11  O15   S    
C28   H20   S    
C2    O22   A    
C48   O36   A    
C51   H31   S    
