data_mof_unit_24782.cif
_audit_creation_date              2012-12-11T15:13:42-0500
_audit_creation_method            fapswitch 2.2
_symmetry_space_group_name_H-M    P1
_symmetry_Int_Tables_number       1
_space_group_crystal_system       triclinic
_cell_length_a                    6.963866
_cell_length_b                    13.613257
_cell_length_c                    20.085319
_cell_angle_alpha                 104.04835
_cell_angle_beta                  89.932294
_cell_angle_gamma                 90.588794
_cell_volume                      1847.05757028

loop_
_atom_site_label
_atom_site_type_symbol
_atom_type_description
_atom_site_fract_x
_atom_site_fract_y
_atom_site_fract_z
_atom_type_partial_charge
O1    O     O_R   0.506780 0.600060 0.449950 -0.540156
O2    O     O_R   0.179840 0.597110 0.589410 -0.542812
O3    O     O_R   0.004570 0.399940 0.550050 -0.540365
C1    C     C_R   0.347881 0.616346 0.617254 0.745304
O4    O     O_R   0.177380 0.612160 0.452890 -0.544195
O5    O     O_R   0.002100 0.415100 0.412560 -0.541002
C2    C     C_R   0.346541 0.637915 0.435665 0.718110
O6    O     O_R   0.509250 0.584900 0.587440 -0.543671
O7    O     O_3   0.337570 0.435330 0.486930 -0.373385
V1    V     V_3+5 0.064650 0.512000 0.502430 1.414208
O8    O     O_R   0.672090 0.402890 0.410590 -0.542466
C3    C     C_R   0.840638 0.381006 0.383081 0.672704
O9    O     O_R   0.674540 0.387840 0.547110 -0.543332
C4    C     C_R   0.842754 0.362953 0.564807 0.695833
V2    V     V_3+5 0.564040 0.488000 0.497570 1.408842
O10   O     O_3   0.840990 0.564670 0.513070 -0.371213
C5    C     C_R   0.820706 0.112182 0.609490 -0.163645
H1    H     H_    0.807055 0.161604 0.516176 0.102732
H2    H     H_    0.793495 0.989514 0.691911 0.162766
H3    H     H_    0.798197 0.033469 0.583049 0.118110
C6    C     C_R   0.850032 0.286594 0.604413 -0.029820
C7    C     C_R   0.914219 0.318393 0.933840 -0.257138
C8    C     C_R   0.944661 0.394395 0.898483 0.511031
C9    C     C_R   0.937044 0.369308 0.826742 -0.252287
C10   C     C_R   0.885354 0.270850 0.789063 0.010171
C11   C     C_R   0.853348 0.195067 0.825869 0.049745
C12   C     C_R   0.868315 0.244325 0.715854 0.100945
C13   C     C_R   0.837689 0.141208 0.681190 0.124240
C14   C     C_R   0.816625 0.068003 0.718349 -0.200159
C15   C     C_R   0.814252 0.095434 0.789477 -0.186780
C16   C     C_R   0.874072 0.316505 0.675769 -0.225507
C17   C     C_R   0.825376 0.184698 0.571369 -0.173396
C18   C     C_R   0.868513 0.219268 0.898334 -0.130804
H4    H     H_    0.888113 0.396612 0.698617 0.086194
H5    H     H_    0.934540 0.335250 0.988920 0.106956
H6    H     H_    0.977054 0.428051 0.801681 0.122244
H7    H     H_    0.778928 0.038290 0.816244 0.136595
C19   C     C_3   0.677713 0.221349 0.228376 -0.113315
C20   C     C_3   0.772112 0.200881 0.293465 -0.138763
H8    H     H_    0.702057 0.161281 0.329410 0.101508
H9    H     H_    0.529541 0.198350 0.210330 0.107167
C21   C     C_3   0.849763 0.310484 0.312456 -0.003267
C22   C     C_3   0.755541 0.331604 0.248094 -0.149411
C23   C     C_3   0.941504 0.297407 0.206911 -0.143895
C24   C     C_3   0.035906 0.276923 0.271987 -0.117862
C25   C     C_3   0.958120 0.166564 0.252178 -0.141530
C26   C     C_3   0.863694 0.187953 0.187901 -0.001419
H10   H     H_    0.671754 0.399411 0.245920 0.112436
H11   H     H_    0.011345 0.337022 0.170931 0.096960
H12   H     H_    0.184075 0.299898 0.290042 0.109260
H13   H     H_    0.041825 0.098067 0.253394 0.107655
C27   C     C_3   0.534554 0.738422 0.723829 -0.221824
C28   C     C_3   0.417237 0.837074 0.745064 0.385428
H14   H     H_    0.678108 0.725785 0.699660 0.143440
C29   C     C_3   0.354985 0.810591 0.812392 -0.235658
C30   C     C_3   0.465317 0.710648 0.790307 0.436093
C31   C     C_3   0.285497 0.655003 0.753934 -0.240002
C32   C     C_3   0.177588 0.756238 0.774105 0.439105
C33   C     C_3   0.238539 0.783779 0.706525 -0.257798
C34   C     C_3   0.353116 0.684600 0.687617 -0.180134
H15   H     H_    0.228557 0.579941 0.757432 0.121796
H16   H     H_    0.146621 0.811730 0.670062 0.112846
C35   C     C_R   0.315685 0.888414 0.390449 -0.168495
H17   H     H_    0.280497 0.835893 0.481960 0.118585
H18   H     H_    0.338623 0.016055 0.309650 0.116869
H19   H     H_    0.292478 0.966653 0.417230 0.120863
C36   C     C_R   0.354860 0.714213 0.395276 -0.040698
C37   C     C_R   0.327701 0.682604 0.066210 -0.159235
C38   C     C_R   0.298720 0.607781 0.101584 -0.136320
C39   C     C_R   0.304649 0.632086 0.173055 -0.184582
C40   C     C_R   0.348651 0.731665 0.210975 0.087330
C41   C     C_R   0.358975 0.809421 0.174839 0.068852
C42   C     C_R   0.363741 0.757958 0.284143 0.062144
C43   C     C_R   0.342344 0.861325 0.319232 0.113764
C44   C     C_R   0.347005 0.936801 0.282931 -0.205826
C45   C     C_R   0.364084 0.911463 0.211948 -0.202723
C46   C     C_R   0.397698 0.686697 0.324390 0.099953
C47   C     C_R   0.311053 0.814403 0.427454 -0.215296
C48   C     C_R   0.354613 0.783394 0.102212 -0.086753
H20   H     H_    0.321593 0.662554 0.010619 0.146735
H21   H     H_    0.266825 0.572728 0.197980 0.132798
H22   H     H_    0.268158 0.530716 0.073521 0.137640
H23   H     H_    0.370373 0.972743 0.186251 0.114681
O11   O     O_R   0.203580 0.914920 0.912610 -0.536555
O12   O     O_R   0.535710 0.887810 0.047120 -0.538335
O13   O     O_R   0.710730 0.084950 0.087430 -0.544867
C49   C     C_R   0.366272 0.860805 0.063117 0.700923
O14   O     O_R   0.533010 0.902850 0.910600 -0.534826
O15   O     O_R   0.708010 0.100090 0.949930 -0.543283
C50   C     C_R   0.363999 0.880683 0.883221 0.747671
O16   O     O_R   0.206300 0.899780 0.050100 -0.538871
O17   O     O_3   0.375170 0.064580 0.013100 -0.380626
V3    V     V_3+5 0.648200 0.988020 0.997570 1.458835
O18   O     O_R   0.038030 0.112330 0.952840 -0.546573
C51   C     C_R   0.870195 0.139749 0.936829 0.690813
O19   O     O_R   0.040730 0.097300 0.089360 -0.546194
C52   C     C_R   0.872328 0.118413 0.117059 0.669097
V4    V     V_3+5 0.148780 0.012220 0.002360 1.428845
O20   O     O_3   0.871930 0.935430 0.986900 -0.358829
O21   O     O_3   0.491053 0.931339 0.739226 -0.568641
C53   C     C_3   0.346165 0.005171 0.753651 -0.248819
H24   H     H_    0.296554 0.018608 0.807608 0.123076
H25   H     H_    0.223352 0.985257 0.717482 0.135851
H26   H     H_    0.406447 0.077864 0.746991 0.180755
O22   O     O_3   0.582806 0.677205 0.837269 -0.535410
C54   C     C_3   0.662530 0.583251 0.804948 -0.158074
H27   H     H_    0.749527 0.587991 0.759335 0.138031
H28   H     H_    0.549696 0.523474 0.790698 0.110168
H29   H     H_    0.759964 0.561126 0.842066 0.185551
O23   O     O_3   0.991407 0.762903 0.801645 -0.538393
C55   C     C_3   0.911929 0.855025 0.796192 -0.132481
H30   H     H_    0.878671 0.853925 0.742133 0.104246
H31   H     H_    0.007016 0.920823 0.817247 0.100311
H32   H     H_    0.777418 0.866496 0.825449 0.196789
C56   C     C_3   0.503349 0.588582 0.296351 -0.826551
H33   H     H_    0.625087 0.582225 0.330575 0.221601
H34   H     H_    0.404689 0.522877 0.292777 0.191303
H35   H     H_    0.571873 0.585520 0.246089 0.211482
O24   O     O_3   0.003148 0.491564 0.931872 -0.558253
C57   C     C_3   0.870834 0.534998 0.983753 -0.248502
H36   H     H_    0.894274 0.506886 0.030552 0.130781
H37   H     H_    0.719029 0.521818 0.966015 0.139452
H38   H     H_    0.895576 0.618118 0.998214 0.184804

loop_
_geom_bond_atom_site_label_1
_geom_bond_atom_site_label_2
_ccdc_geom_bond_type
C23   H11   S    
C37   H20   S    
C29   C30   S    
C53   H24   S    
C49   O16   A    
C42   C43   A    
C55   H30   S    
C36   C46   A    
C41   C45   A    
C48   C49   S    
C28   C33   S    
O17   V4    S    
C24   C25   S    
C27   C28   S    
C7    H5    S    
C6    C16   A    
C9    H6    S    
C4    C6    S    
C13   C14   A    
C29   C50   S    
C8    O24   S    
C19   C20   S    
C54   H27   S    
O18   V4    S    
V2    O10   S    
C5    H3    S    
C30   C31   S    
C39   H21   S    
O13   C52   A    
O23   C55   S    
O21   C53   S    
C3    C21   S    
C38   H22   S    
C27   C34   S    
O14   V3    S    
O12   V3    S    
C27   H14   S    
C37   C38   A    
C56   H34   S    
O19   V4    S    
C8    C9    A    
C39   C40   A    
O1    V2    S    
C22   H10   S    
V3    O20   S    
C57   H38   S    
C1    O6    A    
C37   C48   A    
O12   C49   A    
C35   H19   S    
C33   C34   S    
C53   H25   S    
C32   O23   S    
O9    C4    A    
O15   V3    S    
C38   C39   A    
C36   C47   A    
O11   C50   A    
C18   C51   S    
C45   H23   S    
C57   H37   S    
C20   C21   S    
C28   C29   S    
C28   O21   S    
C6    C17   A    
C43   C44   A    
C12   C16   A    
C9    C10   A    
C19   H9    S    
C20   H8    S    
C40   C42   A    
C31   C34   S    
C32   C33   S    
C25   H13   S    
C15   H7    S    
C21   C24   S    
O15   C51   A    
O2    C1    A    
C44   C45   A    
C14   C15   A    
O13   V3    S    
C11   C18   A    
O8    C3    A    
C56   H35   S    
O19   C52   A    
C1    C34   S    
C16   H4    S    
C55   H31   S    
C19   C26   S    
O3    C4    A    
C20   C25   S    
O14   C50   A    
C11   C15   A    
O6    V2    S    
O8    V2    S    
O9    V2    S    
C22   C23   S    
C10   C12   A    
H1    C17   S    
C21   C22   S    
O2    V1    S    
C57   H36   S    
O4    C2    A    
O7    V1    S    
C7    C18   A    
C25   C26   S    
C33   H16   S    
O1    C2    A    
C5    C13   A    
H17   C47   S    
C23   C24   S    
C26   C52   S    
O5    V1    S    
O24   C57   S    
C23   C26   S    
C31   H15   S    
C35   C43   A    
C41   C48   A    
O22   C54   S    
H18   C44   S    
O11   V4    S    
C10   C11   A    
C19   C22   S    
O3    V1    S    
V1    O10   S    
O5    C3    A    
C31   C32   S    
C54   H28   S    
C24   H12   S    
O17   V3    S    
C55   H32   S    
O16   V4    S    
O7    V2    S    
O18   C51   A    
C30   O22   S    
C2    C36   S    
O4    V1    S    
C40   C41   A    
V4    O20   S    
C29   C32   S    
C12   C13   A    
C5    C17   A    
C42   C46   A    
C7    C8    A    
C53   H26   S    
C56   H33   S    
C46   C56   S    
C35   C47   A    
C27   C30   S    
C54   H29   S    
H2    C14   S    
