data_mof_unit_41023.cif
_audit_creation_date              2012-12-11T17:43:56-0500
_audit_creation_method            fapswitch 2.2
_symmetry_space_group_name_H-M    P1
_symmetry_Int_Tables_number       1
_space_group_crystal_system       triclinic
_cell_length_a                    20.27581
_cell_length_b                    22.811794
_cell_length_c                    6.933777
_cell_angle_alpha                 90.078221
_cell_angle_beta                  87.017037
_cell_angle_gamma                 89.990485
_cell_volume                      3202.71476473

loop_
_atom_site_label
_atom_site_type_symbol
_atom_type_description
_atom_site_fract_x
_atom_site_fract_y
_atom_site_fract_z
_atom_type_partial_charge
O1    O     O_R   0.751270 0.447300 0.600030 -0.547510
O2    O     O_R   0.248730 0.947300 0.399970 -0.510700
O3    O     O_R   0.613530 0.440160 0.952150 -0.537623
O4    O     O_R   0.386470 0.940160 0.047850 -0.544540
O5    O     O_R   0.613050 0.552700 0.122560 -0.526614
O6    O     O_R   0.386950 0.052700 0.877440 -0.533935
C1    C     C_R   0.591739 0.425531 0.786866 0.691207
C2    C     C_R   0.408386 0.925607 0.212894 0.678277
O7    O     O_R   0.750780 0.440350 0.929820 -0.533506
O8    O     O_R   0.249220 0.940350 0.070180 -0.532343
O9    O     O_R   0.751280 0.552900 0.100070 -0.535408
O10   O     O_R   0.248720 0.052900 0.899930 -0.540907
C3    C     C_R   0.772459 0.424791 0.757514 0.687507
C4    C     C_R   0.225294 0.926802 0.242480 0.716587
O11   O     O_R   0.613040 0.447100 0.622520 -0.541982
O12   O     O_R   0.386960 0.947100 0.377480 -0.543789
O13   O     O_3   0.682160 0.536920 0.777780 -0.368233
O14   O     O_3   0.317840 0.036920 0.222220 -0.368462
V1    V     V_3+5 0.682160 0.493150 0.052630 1.446720
V2    V     V_3+5 0.317840 0.993150 0.947370 1.486002
O15   O     O_R   0.750790 0.559840 0.429870 -0.545099
O16   O     O_R   0.249210 0.059840 0.570130 -0.514988
C5    C     C_R   0.774076 0.574154 0.258705 0.738475
C6    C     C_R   0.226124 0.074198 0.741998 0.794774
O17   O     O_R   0.613540 0.559650 0.452200 -0.542093
O18   O     O_R   0.386460 0.059650 0.547800 -0.543160
C7    C     C_R   0.592498 0.575180 0.286664 0.775795
C8    C     C_R   0.407662 0.075041 0.713461 0.760776
V3    V     V_3+5 0.682160 0.506850 0.552630 1.412405
V4    V     V_3+5 0.317840 0.006850 0.447370 1.500627
O19   O     O_3   0.682150 0.463080 0.277610 -0.371683
O20   O     O_3   0.317850 0.963080 0.722390 -0.355881
C9    C     C_R   0.577408 0.861463 0.125863 -0.146827
C10   C     C_R   0.422324 0.361837 0.866529 -0.141552
H1    H     H_    0.535075 0.947161 0.108778 0.105373
H2    H     H_    0.464607 0.447553 0.883492 0.108020
H3    H     H_    0.667377 0.779067 0.092049 0.131102
H4    H     H_    0.332005 0.279750 0.895956 0.135061
H5    H     H_    0.625863 0.876969 0.075968 0.113914
H6    H     H_    0.373585 0.377577 0.912834 0.121112
C11   C     C_R   0.462993 0.883202 0.209331 -0.038993
C12   C     C_R   0.537214 0.383124 0.789632 -0.041810
C13   C     C_R   0.476340 0.599402 0.349867 -0.192348
C14   C     C_R   0.524182 0.098882 0.655199 -0.197235
C15   C     C_R   0.423270 0.637597 0.368649 -0.106820
C16   C     C_R   0.577435 0.136919 0.638561 -0.107828
C17   C     C_R   0.431610 0.696933 0.329681 -0.140045
C18   C     C_R   0.569029 0.196400 0.675669 -0.135496
C19   C     C_R   0.493980 0.720109 0.268561 0.030060
C20   C     C_R   0.506382 0.219893 0.732525 0.028369
C21   C     C_R   0.549018 0.680393 0.244610 0.068612
C22   C     C_R   0.451127 0.180374 0.753891 0.070828
C23   C     C_R   0.503084 0.781542 0.231015 0.070754
C24   C     C_R   0.497178 0.281456 0.768190 0.072345
C25   C     C_R   0.566552 0.801908 0.166948 0.110759
C26   C     C_R   0.433361 0.302141 0.827680 0.108486
C27   C     C_R   0.619106 0.762984 0.141959 -0.247996
C28   C     C_R   0.380584 0.263418 0.849945 -0.245556
C29   C     C_R   0.611484 0.703279 0.179659 0.146936
C30   C     C_R   0.388338 0.203609 0.814007 0.149541
C31   C     C_R   0.451492 0.823825 0.253115 -0.202353
C32   C     C_R   0.548953 0.323582 0.748340 -0.198206
C33   C     C_R   0.525936 0.901604 0.145317 -0.172825
C34   C     C_R   0.473930 0.401843 0.849098 -0.170481
C35   C     C_R   0.539115 0.619420 0.288522 -0.083560
C36   C     C_R   0.461116 0.119229 0.712252 -0.077045
H7    H     H_    0.401702 0.812248 0.299749 0.095845
H8    H     H_    0.598995 0.311788 0.704979 0.089398
H9    H     H_    0.468406 0.553532 0.384649 0.108091
H10   H     H_    0.532218 0.052876 0.622253 0.104800
H11   H     H_    0.387879 0.723462 0.349099 0.113081
H12   H     H_    0.612915 0.222790 0.658240 0.112342
H13   H     H_    0.375038 0.621091 0.415864 0.127381
H14   H     H_    0.625889 0.120161 0.594644 0.123924
C37   C     C_R   0.168557 0.884559 0.256397 -0.144976
C38   C     C_R   0.826104 0.379764 0.742857 -0.191512
C39   C     C_R   0.160239 0.845863 0.100547 -0.156752
C40   C     C_R   0.871253 0.377642 0.890080 -0.110796
C41   C     C_R   0.105010 0.808973 0.093086 0.157749
C42   C     C_R   0.923489 0.337284 0.887073 0.210253
C43   C     C_R   0.055816 0.810014 0.246033 0.386936
C44   C     C_R   0.931981 0.297004 0.729913 0.348198
C45   C     C_R   0.063352 0.848873 0.399663 -0.240201
C46   C     C_R   0.886919 0.299340 0.583351 -0.180287
C47   C     C_R   0.119150 0.885025 0.410015 -0.034449
C48   C     C_R   0.833580 0.339061 0.588277 -0.048152
C49   C     C_R   0.904434 0.688769 0.390671 0.002805
C50   C     C_R   0.114274 0.205601 0.634695 -0.071347
C51   C     C_R   0.846433 0.654021 0.402581 0.068854
C52   C     C_R   0.163577 0.161329 0.610158 0.063993
C53   C     C_R   0.944650 0.690005 0.216433 0.368184
C54   C     C_R   0.072554 0.206470 0.806278 0.402181
N1    N     N_2   0.996526 0.776022 0.249097 -0.274278
N2    N     N_2   0.983683 0.254089 0.705645 -0.262779
N3    N     N_2   0.003816 0.724040 0.195018 -0.262852
N4    N     N_2   0.021282 0.248698 0.841480 -0.283928
C55   C     C_R   0.830578 0.616787 0.245673 -0.097341
C56   C     C_R   0.173012 0.119841 0.758905 -0.055277
H15   H     H_    0.025178 0.850292 0.515172 0.143696
H16   H     H_    0.892894 0.268282 0.465236 0.168439
C57   C     C_R   0.872030 0.618057 0.076874 -0.230892
C58   C     C_R   0.132705 0.123281 0.929265 -0.272287
C59   C     C_R   0.928014 0.653903 0.063068 -0.204274
C60   C     C_R   0.083608 0.165974 0.952429 -0.224278
H17   H     H_    0.862134 0.589951 0.955817 0.145381
H18   H     H_    0.138831 0.092382 0.045440 0.146902
H19   H     H_    0.959242 0.653124 0.931619 0.172396
H20   H     H_    0.053217 0.167170 0.085588 0.135375
H21   H     H_    0.196703 0.844728 0.980675 0.186501
H22   H     H_    0.866358 0.408303 0.009591 0.158829
C61   C     C_2   0.924101 0.719683 0.567815 0.398681
H23   H     H_    0.886747 0.736158 0.671854 0.076730
O21   O     O_2   0.982089 0.724421 0.604510 -0.529296
C62   C     C_2   0.110277 0.252211 0.485737 0.413245
H24   H     H_    0.122553 0.242576 0.334942 0.034098
O22   O     O_2   0.095840 0.302554 0.530609 -0.502511
C63   C     C_2   0.120675 0.924023 0.580224 0.380517
H25   H     H_    0.077737 0.950565 0.620877 0.019587
O23   O     O_2   0.167082 0.923332 0.685277 -0.517069
C64   C     C_2   0.784582 0.334354 0.436870 0.390452
H26   H     H_    0.735157 0.351862 0.460550 0.054792
O24   O     O_2   0.798499 0.309544 0.283918 -0.535853
N5    N     N_3   0.098713 0.773887 0.923591 -0.628532
H27   H     H_    0.052613 0.782124 0.868474 0.276082
H28   H     H_    0.101785 0.729679 0.961092 0.264897
N6    N     N_3   0.966360 0.339582 0.044834 -0.636602
H29   H     H_    0.014585 0.348103 0.991694 0.270884
H30   H     H_    0.964067 0.299713 0.118987 0.261509
N7    N     N_3   0.668297 0.666625 0.149244 -0.672132
H31   H     H_    0.705506 0.683065 0.232988 0.210055
H32   H     H_    0.684741 0.669796 0.004139 0.239791
N8    N     N_3   0.331185 0.167253 0.839903 -0.673175
H33   H     H_    0.312874 0.171184 0.983171 0.235842
H34   H     H_    0.295388 0.183459 0.750925 0.226768
N9    N     N_3   0.805408 0.656708 0.577707 -0.701628
H35   H     H_    0.756550 0.664902 0.544730 0.238927
H36   H     H_    0.808868 0.617224 0.652523 0.252880
N10   N     N_3   0.206986 0.160437 0.439768 -0.658691
H37   H     H_    0.231322 0.200749 0.426641 0.218970
H38   H     H_    0.178851 0.154001 0.319575 0.220914

loop_
_geom_bond_atom_site_label_1
_geom_bond_atom_site_label_2
_ccdc_geom_bond_type
C9    C25   A    
C10   C26   A    
N6    H29   S    
C51   N9    S    
C49   C53   A    
O13   V3    S    
C23   C25   A    
C14   C36   A    
C61   H23   S    
C11   C31   A    
O4    C2    A    
V1    O19   S    
C30   N8    S    
C62   H24   S    
N5    H27   S    
C17   C19   A    
O9    V1    S    
C9    H5    S    
C42   N6    S    
C6    C56   S    
C38   C40   A    
O3    C1    A    
C63   O23   D    
C40   C42   A    
N5    H28   S    
C49   C61   S    
C28   C30   A    
C54   N4    S    
C15   H13   S    
C21   C35   A    
C15   C17   A    
O7    C3    A    
C22   C30   A    
C43   C45   A    
O5    C7    A    
C23   C31   A    
O7    V1    S    
O6    C8    A    
C50   C54   A    
O8    V2    S    
N8    H33   S    
C19   C21   A    
C20   C22   A    
C29   N7    S    
O3    V1    S    
O14   V4    S    
C12   C32   A    
C13   C35   A    
N2    N4    D    
C18   C20   A    
C2    O12   A    
C45   H15   S    
O17   V3    S    
C18   H12   S    
C10   C34   A    
C52   N10   S    
C14   C16   A    
O11   V3    S    
C16   C18   A    
C39   C41   A    
C57   H17   S    
C24   C26   A    
C46   H16   S    
N9    H35   S    
C2    C11   S    
C42   C44   A    
O8    C4    A    
C53   C59   A    
C41   C43   A    
C1    O11   A    
C24   C32   A    
C56   C58   A    
C41   N5    S    
C51   C55   A    
C8    C36   S    
C1    C12   S    
C7    C35   S    
C43   N1    S    
C31   H7    S    
C62   O22   D    
C3    C38   S    
C9    C33   A    
O10   V2    S    
O1    V3    S    
C61   O21   D    
C20   C24   A    
C58   C60   A    
C37   C39   A    
C16   H14   S    
C17   H11   S    
N10   H38   S    
N8    H34   S    
C45   C47   A    
C50   C52   A    
O18   V4    S    
C44   C46   A    
C25   C27   A    
O16   C6    A    
C47   C63   S    
O1    C3    A    
C11   C33   A    
C44   N2    S    
C12   C34   A    
C60   H20   S    
C22   C36   A    
C64   H26   S    
C64   O24   D    
C37   C47   A    
N7    H31   S    
V2    O20   S    
N9    H36   S    
C39   H21   S    
N6    H30   S    
O16   V4    S    
C5    C55   S    
V3    O19   S    
C13   H9    S    
C46   C48   A    
C48   C64   S    
O5    V1    S    
O17   C7    A    
O6    V2    S    
O10   C6    A    
O18   C8    A    
C40   H22   S    
C32   H8    S    
O2    V4    S    
C59   H19   S    
C4    C37   S    
O15   C5    A    
C13   C15   A    
C63   H25   S    
V4    O20   S    
N1    N3    D    
O15   V3    S    
C19   C23   A    
O9    C5    A    
O13   V1    S    
C26   C28   A    
C58   H18   S    
O14   V2    S    
C14   H10   S    
C50   C62   S    
O2    C4    A    
H3    C27   S    
C27   C29   A    
N10   H37   S    
C54   C60   A    
C53   N3    S    
O4    V2    S    
C21   C29   A    
C57   C59   A    
C38   C48   A    
C49   C51   A    
C10   H6    S    
H1    C33   S    
H2    C34   S    
O12   V4    S    
H4    C28   S    
C52   C56   A    
C55   C57   A    
N7    H32   S    
