data_mof_unit_63484.cif
_audit_creation_date              2012-12-10T21:01:41-0500
_audit_creation_method            fapswitch 2.2
_symmetry_space_group_name_H-M    P1
_symmetry_Int_Tables_number       1
_space_group_crystal_system       triclinic
_cell_length_a                    15.767379
_cell_length_b                    15.88385
_cell_length_c                    15.066618
_cell_angle_alpha                 90.000588
_cell_angle_beta                  90.012334
_cell_angle_gamma                 89.999122
_cell_volume                      3773.38441299

loop_
_atom_site_label
_atom_site_type_symbol
_atom_type_description
_atom_site_fract_x
_atom_site_fract_y
_atom_site_fract_z
_atom_type_partial_charge
C1    C     C_R   0.500045 0.338762 0.499985 0.906301
C2    C     C_1   0.499919 0.749662 0.500017 -0.182900
C3    C     C_R   0.445895 0.446302 0.953106 -0.166117
C4    C     C_R   0.554105 0.553698 0.046894 -0.166117
C5    C     C_R   0.500020 0.499983 0.905017 0.082859
C6    C     C_R   0.499980 0.500017 0.094983 0.082859
C7    C     C_R   0.554125 0.553682 0.953134 -0.165883
C8    C     C_R   0.445875 0.446317 0.046866 -0.165883
C9    C     C_1   0.500023 0.499981 0.807179 0.038136
C10   C     C_1   0.499977 0.500019 0.192821 0.038136
C11   C     C_R   0.337308 0.499869 0.499967 0.907833
C12   C     C_R   0.499955 0.661238 0.500015 0.906299
C13   C     C_R   0.662692 0.500131 0.500033 0.907832
C14   C     C_3   0.971954 0.430882 0.542193 -0.164123
C15   C     C_3   0.028046 0.569118 0.457807 -0.164124
C16   C     C_3   0.028010 0.430784 0.457952 -0.164439
C17   C     C_3   0.971990 0.569216 0.542047 -0.164439
C18   C     C_1   0.248352 0.499899 0.499943 -0.185087
C19   C     C_1   0.751648 0.500101 0.500057 -0.185087
C20   C     C_3   0.028081 0.500075 0.584222 -0.162213
C21   C     C_3   0.971919 0.499925 0.415778 -0.162213
C22   C     C_3   0.082404 0.499977 0.499992 0.207372
C23   C     C_R   0.499949 0.913209 0.500007 0.172770
C24   C     C_3   0.917596 0.500023 0.500008 0.207372
C25   C     C_1   0.173110 0.499931 0.499956 -0.079266
C26   C     C_1   0.826890 0.500069 0.500044 -0.079266
C27   C     C_R   0.500504 0.956342 0.580776 -0.186397
C28   C     C_R   0.499496 0.043657 0.419224 -0.186397
C29   C     C_R   0.500052 0.086791 0.499993 0.172770
C30   C     C_R   0.499443 0.956330 0.419230 -0.186402
C31   C     C_R   0.500557 0.043670 0.580770 -0.186402
C32   C     C_1   0.499920 0.824508 0.500014 -0.076361
C33   C     C_1   0.500080 0.175492 0.499986 -0.076361
C34   C     C_1   0.500081 0.250337 0.499983 -0.182900
H1    H     H_    0.052848 0.374112 0.423687 0.135435
H2    H     H_    0.499108 0.077459 0.356753 0.141620
H3    H     H_    0.403459 0.404246 0.081860 0.132741
H4    H     H_    0.596541 0.595754 0.918140 0.132741
H5    H     H_    0.403489 0.404223 0.918089 0.132690
H6    H     H_    0.596511 0.595777 0.081911 0.132690
H7    H     H_    0.947152 0.625888 0.576313 0.135434
H8    H     H_    0.947150 0.374289 0.576628 0.135790
H9    H     H_    0.052850 0.625711 0.423372 0.135790
H10   H     H_    0.947041 0.499903 0.346884 0.136119
H11   H     H_    0.052959 0.500097 0.653116 0.136119
H12   H     H_    0.500990 0.077482 0.643234 0.141628
H13   H     H_    0.499011 0.922518 0.356766 0.141628
H14   H     H_    0.500893 0.922541 0.643247 0.141620
N1    N     N_1   0.499980 0.500020 0.270550 -0.087832
N2    N     N_1   0.500020 0.499980 0.729450 -0.087832
O1    O     O_R   0.500000 0.378020 0.573650 -0.610694
O2    O     O_R   0.500000 0.621980 0.426350 -0.610694
O3    O     O_R   0.500040 0.378020 0.426320 -0.610687
O4    O     O_R   0.499960 0.621980 0.573680 -0.610688
O5    O     O_R   0.376760 0.499990 0.573650 -0.610806
O6    O     O_R   0.623240 0.500010 0.426350 -0.610806
O7    O     O_R   0.376800 0.499990 0.426320 -0.610752
O8    O     O_R   0.623200 0.500010 0.573680 -0.610752
Zn1   Zn    Zn3+2 0.499970 0.500000 0.598370 0.978667
Zn2   Zn    Zn3+2 0.500030 0.500000 0.401630 0.978667

loop_
_geom_bond_atom_site_label_1
_geom_bond_atom_site_label_2
_ccdc_geom_bond_type
C27   H14   S    
C6    C10   S    
C16   C22   S    
C11   C18   S    
C5    C9    S    
C16   C21   S    
C23   C27   A    
C21   H10   S    
C5    C7    A    
C20   H11   S    
C4    H6    S    
C14   H8    S    
C13   O6    A    
C2    C12   S    
C23   C32   S    
C28   C30   A    
C33   C34   T    
C3    H5    S    
C29   C31   A    
C18   C25   T    
C1    O1    A    
N1    Zn2   S    
C4    C7    A    
N2    Zn1   S    
C2    C32   T    
C28   C29   A    
C12   O2    A    
C7    H4    S    
C24   C26   S    
C1    C34   S    
O5    Zn1   S    
O4    Zn1   S    
C31   H12   S    
C16   H1    S    
C14   C16   S    
C17   H7    S    
O1    Zn1   S    
C8    H3    S    
C13   C19   S    
C27   C31   A    
C17   C24   S    
C23   C30   A    
C14   C20   S    
C30   H13   S    
C15   C21   S    
C17   C20   S    
C11   O5    A    
C28   H2    S    
C15   H9    S    
C4    C6    A    
C3    C8    A    
C21   C24   S    
C14   C24   S    
C15   C17   S    
C19   C26   T    
C1    O3    A    
O7    Zn2   S    
C6    C8    A    
C13   O8    A    
O2    Zn2   S    
O8    Zn1   S    
C11   O7    A    
C10   N1    T    
O3    Zn2   S    
C15   C22   S    
C12   O4    A    
C9    N2    T    
O6    Zn2   S    
C29   C33   S    
C20   C22   S    
C3    C5    A    
C22   C25   S    
