data_mof_unit_25226.cif
_audit_creation_date              2012-12-10T20:28:40-0500
_audit_creation_method            fapswitch 2.2
_symmetry_space_group_name_H-M    P1
_symmetry_Int_Tables_number       1
_space_group_crystal_system       triclinic
_cell_length_a                    10.628691
_cell_length_b                    10.639548
_cell_length_c                    9.872454
_cell_angle_alpha                 89.976425
_cell_angle_beta                  91.226077
_cell_angle_gamma                 89.130274
_cell_volume                      1116.03670924

loop_
_atom_site_label
_atom_site_type_symbol
_atom_type_description
_atom_site_fract_x
_atom_site_fract_y
_atom_site_fract_z
_atom_type_partial_charge
C1    C     C_R   0.504631 0.259791 0.500200 0.861664
C2    C     C_R   0.062048 0.624515 0.533027 -0.029342
C3    C     C_R   0.127548 0.514525 0.492549 -0.079939
C4    C     C_R   0.065933 0.405882 0.452498 -0.208469
C5    C     C_R   0.937439 0.402804 0.456006 -0.215338
C6    C     C_R   0.871711 0.506205 0.505630 -0.055749
C7    C     C_R   0.527307 0.063515 0.624339 0.110794
C8    C     C_R   0.527991 0.128145 0.501795 -0.095081
C9    C     C_R   0.557169 0.064101 0.382022 -0.224396
C10   C     C_R   0.559885 0.934018 0.382469 -0.251069
C11   C     C_R   0.532653 0.870363 0.502476 -0.087777
C12   C     C_R   0.260331 0.505953 0.498239 0.979676
C13   C     C_R   0.529814 0.935387 0.624817 0.108571
C14   C     C_3   0.439609 0.928431 0.738825 -0.467944
C15   C     C_3   0.436452 0.070897 0.737713 -0.431817
C16   C     C_R   0.419651 0.424771 0.069351 0.026717
C17   C     C_R   0.586311 0.565991 0.073884 -0.089303
C18   C     C_R   0.586336 0.565985 0.929959 -0.130777
C19   C     C_R   0.419697 0.424734 0.926833 0.100430
C20   C     C_3   0.279493 0.429344 0.916752 0.255011
C21   C     C_3   0.279221 0.429310 0.070953 0.345544
C22   C     C_R   0.508807 0.739504 0.500370 0.950046
C23   C     C_R   0.739576 0.499407 0.501597 0.844703
C24   C     C_R   0.120162 0.742946 0.551156 0.499457
C25   C     C_R   0.052915 0.843278 0.608524 -0.220191
C26   C     C_R   0.925895 0.831489 0.635434 -0.218065
C27   C     C_R   0.864405 0.720819 0.602088 -0.197889
C28   C     C_R   0.931637 0.616736 0.549097 0.030213
H1    H     H_    0.117763 0.323107 0.419705 0.137187
H2    H     H_    0.484473 0.888086 0.832203 0.199210
H3    H     H_    0.343429 0.111447 0.705616 0.231252
H4    H     H_    0.478992 0.113016 0.830660 0.210808
H5    H     H_    0.654195 0.621623 0.129636 0.139308
H6    H     H_    0.654232 0.621562 0.877196 0.144271
H7    H     H_    0.243486 0.517847 0.867931 0.135797
H8    H     H_    0.238089 0.344620 0.117674 0.096703
H9    H     H_    0.098119 0.932605 0.625613 0.148676
H10   H     H_    0.873558 0.910278 0.676501 0.159349
H11   H     H_    0.764295 0.718192 0.617990 0.149144
H12   H     H_    0.889053 0.318896 0.422673 0.141861
H13   H     H_    0.568518 0.113250 0.287043 0.171070
H14   H     H_    0.572621 0.884507 0.287757 0.166783
H15   H     H_    0.348139 0.886456 0.708572 0.241821
N1    N     N_R   0.499160 0.499140 0.142800 -0.075687
N2    N     N_R   0.499160 0.499180 0.857150 -0.119428
O1    O     O_R   0.500020 0.316790 0.614690 -0.599842
O2    O     O_R   0.500000 0.316760 0.385350 -0.636599
O3    O     O_R   0.316770 0.500020 0.614690 -0.617317
O4    O     O_R   0.316760 0.499980 0.385350 -0.554143
O5    O     O_R   0.500000 0.683240 0.614650 -0.619058
O6    O     O_R   0.499980 0.683210 0.385310 -0.617275
O7    O     O_R   0.683240 0.500020 0.614650 -0.636334
O8    O     O_R   0.683230 0.499980 0.385310 -0.624133
Zn1   Zn    Zn3+2 0.500010 0.500020 0.653130 0.965232
Zn2   Zn    Zn3+2 0.499990 0.499980 0.346870 0.984907
O9    O     O_3   0.233512 0.316743 0.860092 -0.623105
C29   C     C_3   0.102528 0.329043 0.837397 -0.319496
H16   H     H_    0.079709 0.404649 0.762627 0.182412
H17   H     H_    0.052781 0.347143 0.933652 0.171386
H18   H     H_    0.067148 0.239566 0.794602 0.187889
F1    F     F_    0.233303 0.541918 0.121660 -0.669836
O10   O     O_3   0.236887 0.765926 0.499077 -0.654107
C30   C     C_3   0.218240 0.817865 0.368187 -0.269049
H19   H     H_    0.168705 0.910660 0.372341 0.143655
H20   H     H_    0.166003 0.752533 0.300006 0.211404
H21   H     H_    0.310685 0.834042 0.322341 0.205604

loop_
_geom_bond_atom_site_label_1
_geom_bond_atom_site_label_2
_ccdc_geom_bond_type
C8    C9    A    
C4    H1    S    
C24   O10   S    
C30   H20   S    
C12   O4    A    
C16   C21   S    
C10   H14   S    
C1    C8    S    
C11   C13   A    
C9    C10   A    
C16   N1    A    
C11   C22   S    
C21   F1    S    
C19   C20   S    
C12   O3    A    
C20   O9    S    
O1    Zn1   S    
C7    C15   S    
C17   C18   A    
C29   H16   S    
C30   H21   S    
C7    C8    A    
C21   H8    S    
O5    Zn1   S    
C13   C14   S    
C24   C25   A    
O3    Zn1   S    
C4    C5    A    
C18   H6    S    
N1    Zn2   S    
C23   O7    A    
O10   C30   S    
C17   H5    S    
C14   H2    S    
C16   C19   A    
C6    C23   S    
C1    O2    A    
C25   C26   A    
O7    Zn1   S    
N2    Zn1   S    
C23   O8    A    
C2    C3    A    
O8    Zn2   S    
C26   C27   A    
C5    C6    A    
C1    O1    A    
C17   N1    A    
C2    C24   A    
C29   H17   S    
C10   C11   A    
C3    C4    A    
C18   N2    A    
C22   O5    A    
C7    C13   A    
O9    C29   S    
O2    Zn2   S    
C5    H12   S    
C27   C28   A    
C14   C15   S    
C26   H10   S    
C29   H18   S    
C2    C28   A    
C3    C12   S    
O6    Zn2   S    
C25   H9    S    
C20   C21   S    
O4    Zn2   S    
C20   H7    S    
C9    H13   S    
C15   H3    S    
C22   O6    A    
C6    C28   A    
C19   N2    A    
C30   H19   S    
C27   H11   S    
C14   H15   S    
C15   H4    S    
