data_mof_unit_50872.cif
_audit_creation_date              2012-10-26T19:42:18-0400
_audit_creation_method            fapswitch 2.2
_symmetry_space_group_name_H-M    P1
_symmetry_Int_Tables_number       1
_space_group_crystal_system       triclinic
_cell_length_a                    9.700169
_cell_length_b                    10.858474
_cell_length_c                    17.38372
_cell_angle_alpha                 96.781651
_cell_angle_beta                  85.41815
_cell_angle_gamma                 91.451375
_cell_volume                      1812.15527427

loop_
_atom_site_label
_atom_site_type_symbol
_atom_type_description
_atom_site_fract_x
_atom_site_fract_y
_atom_site_fract_z
_atom_type_partial_charge
C1    C     C_R   0.502759 0.737102 0.494110 0.559235
C2    C     C_R   0.533507 0.529165 0.268370 0.007744
C3    C     C_R   0.265824 0.875701 0.453864 -0.080445
C4    C     C_R   0.480982 0.504261 0.650251 0.540589
C5    C     C_R   0.135424 0.921407 0.477234 -0.109062
C6    C     C_R   0.121368 0.027663 0.530272 -0.082140
C7    C     C_R   0.237674 0.100687 0.548605 0.018145
C8    C     C_R   0.370694 0.060042 0.517758 -0.016942
C9    C     C_R   0.382751 0.935621 0.484911 -0.000859
C10   C     C_R   0.507552 0.873269 0.488753 0.007100
C11   C     C_R   0.627873 0.944526 0.506789 0.001588
C12   C     C_R   0.352417 0.551392 0.785847 0.022744
C13   C     C_R   0.617426 0.072396 0.530134 -0.047120
C14   C     C_R   0.492697 0.132736 0.524550 -0.022567
C15   C     C_R   0.864518 0.296494 0.418070 0.072577
C16   C     C_R   0.496968 0.265152 0.510050 0.566123
C17   C     C_R   0.930655 0.183381 0.412531 -0.145338
C18   C     C_R   0.072512 0.183847 0.407612 -0.184521
C19   C     C_R   0.146099 0.295323 0.417687 0.054255
C20   C     C_R   0.078109 0.404056 0.456111 0.138092
C21   C     C_R   0.929147 0.405134 0.455308 0.095260
C22   C     C_R   0.921381 0.580924 0.549730 0.144593
C23   C     C_R   0.422946 0.522556 0.147791 -0.102362
C24   C     C_R   0.069673 0.586522 0.546115 0.068463
C25   C     C_R   0.519573 0.510280 0.351388 0.547800
C26   C     C_R   0.473688 0.518052 0.736270 -0.005367
C27   C     C_R   0.599965 0.509290 0.769979 -0.106673
C28   C     C_R   0.608440 0.533904 0.849210 -0.081681
C29   C     C_R   0.489491 0.561199 0.898003 0.009633
C30   C     C_R   0.363335 0.572552 0.866416 -0.060246
C31   C     C_2   0.767045 0.890431 0.494470 0.269718
C32   C     C_1   0.218983 0.201908 0.609759 0.255459
C33   C     C_1   0.729379 0.140264 0.567608 0.202670
C34   C     C_R   0.413514 0.527671 0.228105 -0.094959
C35   C     C_2   0.845856 0.643841 0.620371 0.327373
C36   C     C_2   0.774160 0.299605 0.354526 0.300988
C37   C     C_2   0.258672 0.296617 0.356568 0.298435
C38   C     C_2   0.138394 0.686697 0.596393 0.240633
C39   C     C_1   0.788392 0.581604 0.265637 0.223589
C40   C     C_1   0.638819 0.395969 0.984858 0.221746
C41   C     C_2   0.213469 0.565588 0.757946 0.227952
C42   C     C_R   0.663701 0.547615 0.227386 -0.025457
C43   C     C_R   0.672422 0.539748 0.146541 -0.101452
C44   C     C_R   0.552770 0.522781 0.106741 0.014075
C45   C     C_2   0.494264 0.578271 0.982730 -0.141937
C46   C     C_2   0.563694 0.503513 0.022025 -0.021139
Cu1   Cu    Cu3+1 0.359340 0.500010 0.500010 0.950118
Cu2   Cu    Cu3+1 0.640660 0.499990 0.499990 1.064697
H1    H     H_    0.694967 0.485312 0.735021 0.145390
H2    H     H_    0.329176 0.514308 0.117493 0.132588
H3    H     H_    0.430908 0.651203 0.014969 0.129514
H4    H     H_    0.708683 0.531439 0.872208 0.147560
H5    H     H_    0.840425 0.910740 0.538147 0.138786
H6    H     H_    0.876418 0.626942 0.676876 0.106204
H7    H     H_    0.797679 0.364078 0.312504 0.123103
H8    H     H_    0.358044 0.256842 0.362671 0.151097
H9    H     H_    0.239157 0.675741 0.615577 0.177102
H10   H     H_    0.181750 0.513820 0.705423 0.151476
H11   H     H_    0.772183 0.547752 0.114374 0.127822
H12   H     H_    0.273885 0.790687 0.414539 0.150727
H13   H     H_    0.046469 0.869887 0.457350 0.176035
H14   H     H_    0.019841 0.055731 0.554543 0.149504
H15   H     H_    0.878513 0.098031 0.391222 0.177464
H16   H     H_    0.311787 0.528457 0.258337 0.192769
H17   H     H_    0.123703 0.099998 0.380962 0.137342
H18   H     H_    0.272203 0.595275 0.905361 0.160299
N1    N     N_R   0.852190 0.498790 0.499250 -0.258297
N2    N     N_R   0.148060 0.498710 0.499220 -0.285685
N3    N     N_1   0.202900 0.281712 0.659644 -0.295112
N4    N     N_1   0.816556 0.195954 0.598522 -0.299588
N5    N     N_1   0.888445 0.609091 0.296036 -0.249090
N6    N     N_1   0.698751 0.309948 0.955403 -0.257210
O1    O     O_R   0.381190 0.680360 0.500010 -0.548306
O2    O     O_2   0.757207 0.719951 0.617395 -0.477816
O3    O     O_2   0.680336 0.223565 0.344504 -0.520013
O4    O     O_2   0.235067 0.328024 0.293923 -0.526413
O5    O     O_2   0.082261 0.785675 0.617443 -0.511536
O6    O     O_2   0.129216 0.635072 0.795461 -0.501070
O7    O     O_R   0.618760 0.680340 0.500000 -0.405504
O8    O     O_R   0.367440 0.500030 0.613600 -0.550451
O9    O     O_R   0.605010 0.500010 0.613590 -0.492906
O10   O     O_R   0.381240 0.319660 0.500000 -0.534781
O11   O     O_R   0.618810 0.319640 0.499990 -0.474714
O12   O     O_R   0.394990 0.499990 0.386410 -0.507045
O13   O     O_R   0.632560 0.499970 0.386400 -0.505588
O14   O     O_2   0.801503 0.826003 0.433896 -0.494784

loop_
_geom_bond_atom_site_label_1
_geom_bond_atom_site_label_2
_ccdc_geom_bond_type
C35   O2    D    
C11   C13   A    
C6    C7    A    
C19   C20   A    
C7    C8    A    
C45   C46   D    
C18   H17   S    
C40   C46   S    
C22   C35   S    
C26   C27   A    
C29   C30   A    
Cu2   O7    S    
C28   C29   A    
C41   H10   S    
C4    O8    A    
C5    C6    A    
C45   H3    S    
Cu2   O9    S    
C18   C19   A    
Cu1   O10   S    
C19   C37   S    
C37   H8    S    
C4    O9    A    
C8    C9    A    
C25   O12   A    
C24   C38   S    
C9    C10   A    
C43   H11   S    
C3    H12   S    
C2    C34   A    
C11   C31   S    
C31   O14   D    
C13   C14   A    
C21   N1    A    
C35   H6    S    
Cu1   O8    S    
C25   O13   A    
C44   C46   S    
C39   C42   S    
Cu1   O1    S    
C41   O6    D    
C23   H2    S    
C16   O11   A    
C23   C44   A    
C29   C45   S    
C43   C44   A    
C13   C33   S    
C12   C41   S    
C3    C9    A    
C36   O3    D    
C38   H9    S    
Cu1   Cu2   S    
C23   C34   A    
C34   H16   S    
C17   C18   A    
C5    H13   S    
Cu1   O12   S    
C31   H5    S    
C30   H18   S    
C33   N4    T    
C37   O4    D    
C1    O7    A    
C22   C24   A    
C42   C43   A    
C15   C36   S    
C15   C17   A    
C8    C14   A    
C7    C32   S    
C40   N6    T    
C12   C30   A    
C20   N2    A    
C1    C10   S    
C3    C5    A    
C4    C26   S    
C32   N3    T    
C38   O5    D    
Cu2   O11   S    
C1    O1    A    
C6    H14   S    
C36   H7    S    
C17   H15   S    
C28   H4    S    
Cu1   N2    S    
C2    C42   A    
C2    C25   S    
C14   C16   S    
Cu2   N1    S    
C22   N1    A    
C10   C11   A    
C24   N2    A    
C15   C21   A    
C20   C21   A    
C16   O10   A    
C12   C26   A    
C27   C28   A    
C39   N5    T    
Cu2   O13   S    
C27   H1    S    
