data_mof_unit_5515.cif
_audit_creation_date              2012-10-26T20:48:48-0400
_audit_creation_method            fapswitch 2.2
_symmetry_space_group_name_H-M    P1
_symmetry_Int_Tables_number       1
_space_group_crystal_system       triclinic
_cell_length_a                    15.12532
_cell_length_b                    13.860419
_cell_length_c                    9.073179
_cell_angle_alpha                 90.076875
_cell_angle_beta                  89.877481
_cell_angle_gamma                 90.152483
_cell_volume                      1902.1181569

loop_
_atom_site_label
_atom_site_type_symbol
_atom_type_description
_atom_site_fract_x
_atom_site_fract_y
_atom_site_fract_z
_atom_type_partial_charge
C1    C     C_R   0.330378 0.499769 0.500758 0.610874
C2    C     C_R   0.580429 0.893023 0.502490 0.213448
C3    C     C_R   0.500383 0.499957 0.220527 0.550386
C4    C     C_R   0.500044 0.500025 0.779476 0.558283
C5    C     C_R   0.501113 0.055179 0.500239 0.069247
C6    C     C_R   0.500743 0.945990 0.500723 0.070287
C7    C     C_1   0.500635 0.499913 0.065515 -0.077816
C8    C     C_1   0.500455 0.500006 0.934475 -0.073019
C9    C     C_R   0.096729 0.525201 0.370712 -0.119788
C10   C     C_R   0.906131 0.427691 0.571299 -0.123749
C11   C     C_R   0.906206 0.574287 0.426423 -0.121610
C12   C     C_R   0.670175 0.500141 0.499778 0.571106
C13   C     C_R   0.095711 0.476883 0.627536 -0.121279
C14   C     C_R   0.189034 0.523946 0.369762 0.096236
C15   C     C_R   0.813941 0.427665 0.575065 0.102807
C16   C     C_R   0.813974 0.573727 0.423358 0.099729
C17   C     C_R   0.187850 0.473796 0.627744 0.093318
C18   C     C_R   0.234475 0.498722 0.499168 0.075909
C19   C     C_R   0.767112 0.500515 0.499356 0.061746
C20   C     C_R   0.049731 0.501495 0.499104 -0.014733
C21   C     C_R   0.952574 0.501202 0.498858 -0.016942
C22   C     C_3   0.265210 0.464060 0.155235 -0.310092
C23   C     C_R   0.541617 0.210229 0.610431 0.011683
C24   C     C_3   0.741929 0.385153 0.803312 -0.299596
C25   C     C_3   0.741113 0.616871 0.196679 -0.292791
C26   C     C_3   0.246288 0.346904 0.779512 -0.301978
C27   C     C_3   0.646940 0.101973 0.806572 0.003278
C28   C     C_3   0.696112 0.028848 0.900370 -0.361845
C29   C     C_3   0.315353 0.959709 0.646226 -0.012190
C30   C     C_3   0.232180 0.021064 0.646531 -0.363773
C31   C     C_3   0.471522 0.038521 0.159902 -0.009302
C32   C     C_3   0.418729 0.002410 0.028417 -0.363857
C33   C     C_3   0.694655 0.954043 0.368864 -0.022834
C34   C     C_R   0.422249 0.791450 0.496739 0.028141
C35   C     C_3   0.787559 0.995521 0.379503 -0.370585
C36   C     C_R   0.458332 0.209096 0.390602 0.026616
C37   C     C_R   0.578038 0.791240 0.504671 0.025773
C38   C     C_R   0.543337 0.107375 0.614407 0.217719
C39   C     C_R   0.420707 0.893247 0.500225 0.220453
C40   C     C_R   0.459061 0.107562 0.386420 0.209596
Cu1   Cu    Cu3+1 0.500000 0.596430 0.500000 0.957390
Cu2   Cu    Cu3+1 0.500000 0.403570 0.500000 0.926843
H1    H     H_    0.572005 0.252390 0.696589 0.134642
H2    H     H_    0.305816 0.488388 0.060298 0.152679
H3    H     H_    0.306564 0.415994 0.224106 0.168358
H4    H     H_    0.207301 0.422731 0.113730 0.128048
H5    H     H_    0.801201 0.289483 0.658856 0.233321
H6    H     H_    0.800915 0.401060 0.872145 0.127055
H7    H     H_    0.703246 0.326536 0.856453 0.120246
H8    H     H_    0.699544 0.450336 0.797635 0.155119
H9    H     H_    0.801319 0.712185 0.340802 0.238074
H10   H     H_    0.699176 0.551093 0.202511 0.155182
H11   H     H_    0.701666 0.675353 0.145540 0.141424
H12   H     H_    0.359964 0.753442 0.493447 0.158608
H13   H     H_    0.799715 0.602129 0.126110 0.124666
H14   H     H_    0.206216 0.481262 0.851311 0.240324
H15   H     H_    0.181597 0.310423 0.797172 0.122792
H16   H     H_    0.288618 0.334528 0.877456 0.137852
H17   H     H_    0.279567 0.314568 0.682160 0.183028
H18   H     H_    0.619922 0.158075 0.881785 0.104118
H19   H     H_    0.695112 0.134511 0.727713 0.137416
H20   H     H_    0.724526 0.971519 0.829071 0.188140
H21   H     H_    0.650254 0.995394 0.981430 0.132309
H22   H     H_    0.750528 0.065254 0.960960 0.079568
H23   H     H_    0.424078 0.248380 0.305165 0.141460
H24   H     H_    0.367710 0.000637 0.705949 0.131661
H25   H     H_    0.301184 0.891248 0.706064 0.121524
H26   H     H_    0.245066 0.090409 0.588965 0.163637
H27   H     H_    0.211819 0.036587 0.761804 0.087062
H28   H     H_    0.177709 0.982167 0.589760 0.160831
H29   H     H_    0.517273 0.980024 0.193653 0.114132
H30   H     H_    0.510418 0.102934 0.124245 0.114052
H31   H     H_    0.374356 0.060261 0.987825 0.145390
H32   H     H_    0.464436 0.980977 0.938370 0.139811
H33   H     H_    0.378352 0.938731 0.060489 0.166286
H34   H     H_    0.639963 0.753094 0.509963 0.171797
H35   H     H_    0.653196 0.006737 0.308059 0.112384
H36   H     H_    0.698123 0.884986 0.305871 0.115306
H37   H     H_    0.814411 0.008291 0.267166 0.090688
H38   H     H_    0.786218 0.065067 0.440499 0.156727
H39   H     H_    0.831356 0.944190 0.438202 0.151375
H40   H     H_    0.061818 0.542446 0.270025 0.105350
H41   H     H_    0.941529 0.370386 0.626623 0.104942
H42   H     H_    0.941678 0.631776 0.370928 0.107398
H43   H     H_    0.060185 0.460214 0.728198 0.107249
H44   H     H_    0.203889 0.596647 0.172482 0.246943
N1    N     N_R   0.500000 0.258690 0.500000 -0.282386
N2    N     N_R   0.500000 0.741310 0.500000 -0.286627
N3    N     N_2   0.235919 0.547223 0.238298 -0.516313
N4    N     N_2   0.768956 0.354986 0.657287 -0.505055
N5    N     N_2   0.768976 0.646541 0.342354 -0.512572
N6    N     N_2   0.233556 0.449453 0.759198 -0.524742
O1    O     O_R   0.371460 0.581430 0.500010 -0.499244
O2    O     O_3   0.340320 0.940317 0.499169 -0.525385
O3    O     O_3   0.412804 0.060881 0.276007 -0.526060
O4    O     O_3   0.661083 0.939612 0.512314 -0.542838
O5    O     O_R   0.628540 0.418570 0.499990 -0.472827
O6    O     O_R   0.628540 0.581430 0.499990 -0.496038
O7    O     O_R   0.371460 0.418570 0.500010 -0.510010
O8    O     O_R   0.500000 0.581420 0.288390 -0.476876
O9    O     O_R   0.500000 0.418580 0.711610 -0.504550
O10   O     O_R   0.500000 0.581420 0.711610 -0.488975
O11   O     O_R   0.500000 0.418580 0.288390 -0.517335
O12   O     O_3   0.577258 0.054626 0.732308 -0.554226

loop_
_geom_bond_atom_site_label_1
_geom_bond_atom_site_label_2
_ccdc_geom_bond_type
C33   O4    S    
Cu1   Cu2   S    
C14   C18   A    
C37   N2    A    
C4    C8    S    
Cu2   O11   S    
C1    O7    A    
C32   H33   S    
C35   H39   S    
C7    C8    T    
C14   N3    S    
C15   C19   A    
C1    C18   S    
C25   H11   S    
C3    C7    S    
C27   H18   S    
C32   H32   S    
C29   O2    S    
C33   H36   S    
C26   N6    S    
C27   O12   S    
C23   H1    S    
Cu1   O10   S    
C38   O12   S    
C27   H19   S    
H9    N5    S    
C29   H25   S    
C3    O8    A    
Cu1   O1    S    
C4    O10   A    
C26   H17   S    
C12   O6    A    
C9    H40   S    
C31   H29   S    
C36   N1    A    
C23   N1    A    
C5    C38   A    
C2    C6    A    
C17   N6    S    
C30   H28   S    
C10   C21   A    
C24   H8    S    
C22   H2    S    
C25   N5    S    
C34   C39   A    
C24   H6    S    
C36   C40   A    
Cu2   O5    S    
C32   H31   S    
C36   H23   S    
C11   C21   A    
C10   H41   S    
C9    C14   A    
C39   O2    S    
C29   C30   S    
C11   C16   A    
C9    C20   A    
C31   C32   S    
C4    O9    A    
C17   C18   A    
Cu1   O8    S    
C34   N2    A    
C26   H16   S    
C12   O5    A    
C28   H22   S    
C31   H30   S    
C22   H4    S    
C37   H34   S    
C34   H12   S    
H5    N4    S    
C40   O3    S    
Cu2   O9    S    
C30   H27   S    
C3    O11   A    
C24   H7    S    
Cu1   N2    S    
C13   C20   A    
Cu1   O6    S    
C25   H13   S    
H44   N3    S    
C24   N4    S    
C11   H42   S    
C23   C38   A    
C13   C17   A    
C10   C15   A    
C2    O4    S    
C25   H10   S    
Cu2   O7    S    
C15   N4    S    
C2    C37   A    
C33   H35   S    
C5    C6    S    
C16   C19   A    
C31   O3    S    
C12   C19   S    
C35   H37   S    
C33   C35   S    
C22   N3    S    
C26   H15   S    
C29   H24   S    
C28   H21   S    
C35   H38   S    
H14   N6    S    
C22   H3    S    
C20   C21   S    
C16   N5    S    
C1    O1    A    
C5    C40   A    
C13   H43   S    
C27   C28   S    
C6    C39   A    
Cu2   N1    S    
C30   H26   S    
C28   H20   S    
