data_mof_unit_19252.cif
_audit_creation_date              2013-03-05T16:42:13-0500
_audit_creation_method            fapswitch 2.2
_symmetry_space_group_name_H-M    P1
_symmetry_Int_Tables_number       1
_space_group_crystal_system       triclinic
_cell_length_a                    14.927027
_cell_length_b                    10.672807
_cell_length_c                    9.917539
_cell_angle_alpha                 89.309301
_cell_angle_beta                  90.14971
_cell_angle_gamma                 91.14718
_cell_volume                      1579.55973959

loop_
_atom_site_label
_atom_site_type_symbol
_atom_site_description
_atom_site_fract_x
_atom_site_fract_y
_atom_site_fract_z
_atom_type_partial_charge
O1    O     O_R   0.500010 0.316790 0.614690 -0.609496
O2    O     O_R   0.500000 0.316760 0.385350 -0.588700
C1    C     C_R   0.506906 0.260390 0.500204 0.911225
O3    O     O_R   0.367850 0.499990 0.614680 -0.630430
O4    O     O_R   0.367840 0.499950 0.385340 -0.589453
C2    C     C_R   0.327115 0.499698 0.499907 0.877559
Zn1   Zn    Zn3+2 0.500010 0.500020 0.653130 1.013738
Zn2   Zn    Zn3+2 0.499990 0.499980 0.346870 1.045133
O5    O     O_R   0.500000 0.683240 0.614650 -0.602625
O6    O     O_R   0.499990 0.683210 0.385310 -0.602888
O7    O     O_R   0.632160 0.500050 0.614660 -0.555453
O8    O     O_R   0.632150 0.500010 0.385320 -0.572184
C3    C     C_R   0.503520 0.740048 0.499401 0.903190
C4    C     C_R   0.672894 0.496760 0.500424 0.953607
C5    C     C_R   0.815184 0.575630 0.418770 -0.203922
C6    C     C_R   0.768458 0.491358 0.501827 -0.123709
C7    C     C_R   0.812511 0.404679 0.585435 0.221459
C8    C     C_R   0.906299 0.406313 0.587479 0.052873
C9    C     C_R   0.953480 0.491561 0.501463 0.015366
C10   C     C_R   0.907481 0.575291 0.416088 0.102011
C11   C     C_R   0.954318 0.325402 0.672811 -0.125373
C12   C     C_R   0.047340 0.329060 0.673458 -0.204916
C13   C     C_R   0.093704 0.412370 0.587954 0.121559
C14   C     C_R   0.046896 0.493410 0.500615 0.084260
C15   C     C_R   0.093702 0.576597 0.412526 0.120639
C16   C     C_R   0.047243 0.658162 0.327419 -0.190856
C17   C     C_R   0.954282 0.658089 0.329845 -0.139038
C18   C     C_R   0.186422 0.416162 0.588053 -0.230525
C19   C     C_R   0.231733 0.497729 0.499910 -0.037192
C20   C     C_R   0.186429 0.577008 0.411769 -0.200447
H1    H     H_    0.779322 0.642792 0.357327 0.218381
H2    H     H_    0.921082 0.259610 0.740631 0.206403
H3    H     H_    0.083051 0.266498 0.740643 0.165112
H4    H     H_    0.223518 0.354389 0.654502 0.141483
H5    H     H_    0.223541 0.640049 0.344679 0.156140
H6    H     H_    0.082767 0.722326 0.259877 0.161707
H7    H     H_    0.918945 0.722306 0.264070 0.181637
C21   C     C_R   0.525530 0.062476 0.621696 0.162666
C22   C     C_R   0.527841 0.129823 0.500321 -0.186148
C23   C     C_R   0.550614 0.066192 0.380707 0.260975
C24   C     C_R   0.544411 0.936259 0.380816 -0.213839
H8    H     H_    0.552891 0.887581 0.286965 0.240590
C25   C     C_R   0.521243 0.871568 0.499659 -0.184208
C26   C     C_R   0.522597 0.934733 0.621126 0.184701
C27   C     C_3   0.460436 0.925329 0.738427 -0.447444
C28   C     C_3   0.464112 0.067129 0.740158 -0.483479
H9    H     H_    0.393320 0.886027 0.711145 0.197355
H10   H     H_    0.492365 0.881436 0.828217 0.240634
H11   H     H_    0.398756 0.110201 0.715415 0.195524
H12   H     H_    0.499541 0.103413 0.830737 0.241300
C29   C     C_R   0.424770 0.464762 0.071209 0.112824
N1    N     N_R   0.499390 0.499140 0.142800 -0.189491
C30   C     C_R   0.569474 0.552007 0.071278 0.295459
C31   C     C_R   0.567535 0.557074 0.927837 0.242700
N2    N     N_R   0.499390 0.499180 0.857150 -0.146965
C32   C     C_R   0.425200 0.463982 0.929404 0.104297
C33   C     C_3   0.375979 0.342016 0.924124 -0.504107
C34   C     C_3   0.375448 0.341758 0.077569 0.111678
H13   H     H_    0.308842 0.351033 0.876805 0.225274
H14   H     H_    0.417700 0.268281 0.882005 0.191694
H15   H     H_    0.415220 0.265720 0.124086 0.178864
N3    N     N_R   0.646130 0.601314 0.140036 0.244365
O9    O     O_R   0.642336 0.710090 0.196810 -0.408219
O10   O     O_R   0.723789 0.551209 0.121188 -0.347984
Br1   Br    Br    0.655981 0.661296 0.838438 -0.363444
Br2   Br    Br    0.255633 0.356838 0.150403 -0.493770
Br3   Br    Br    0.744271 0.280640 0.689006 -0.451735
Br4   Br    Br    0.587119 0.145665 0.213683 -0.456339

loop_
_geom_bond_atom_site_label_1
_geom_bond_atom_site_label_2
_geom_bond_distance
_ccdc_geom_bond_type
O4    Zn2   2.010136 S    
N3    O10   1.301172 A    
C25   C26   1.387443 A    
C14   C15   1.413961 A    
C5    H1    1.083893 S    
C19   C20   1.392616 A    
C10   C17   1.400252 A    
Zn2   O8    2.008289 S    
C8    C11   1.407018 A    
C30   N3    1.425376 S    
Zn2   N1    2.023996 S    
C9    C10   1.410763 A    
Zn1   N2    2.023334 S    
C13   C14   1.410512 A    
Zn1   O5    1.987844 S    
C34   H15   1.110279 S    
C7    C8    1.399826 A    
C33   C34   1.521814 S    
C1    C22   1.434204 S    
C29   C34   1.492974 S    
O1    Zn1   1.996897 S    
C30   C31   1.423200 A    
C32   C33   1.483299 S    
Zn1   O7    2.010136 S    
C24   C25   1.399434 A    
C28   H11   1.112325 S    
C18   C19   1.393069 A    
C16   C17   1.387899 A    
O4    C2    1.289968 A    
C20   H5    1.085588 S    
C17   H7    1.084156 S    
O3    Zn1   2.008290 S    
Zn2   O6    1.996898 S    
C23   C24   1.387977 A    
C11   H2    1.080737 S    
O8    C4    1.292477 A    
C21   C26   1.363272 A    
C9    C14   1.394211 A    
O2    C1    1.286623 A    
C27   H9    1.112345 S    
C23   Br4   1.926802 S    
C5    C10   1.378121 A    
O7    C4    1.288372 A    
C4    C6    1.428824 S    
N2    C32   1.364557 A    
C21   C28   1.494020 S    
C26   C27   1.491137 S    
C33   H13   1.110912 S    
C13   C18   1.383790 A    
C7    Br3   1.940083 S    
C18   H4    1.085272 S    
C5    C6    1.390671 A    
C27   C28   1.513609 S    
C3    C25   1.423210 S    
C2    C19   1.423507 S    
C21   C22   1.394706 A    
N1    C30   1.373505 A    
O3    C2    1.289099 A    
C8    C9    1.417847 A    
C24   H8    1.080362 S    
C27   H10   1.111871 S    
C16   H6    1.084016 S    
C22   C23   1.419433 A    
C31   Br1   1.920925 S    
C12   H3    1.084262 S    
C28   H12   1.111004 S    
C31   N2    1.374588 A    
C15   C20   1.384096 A    
C33   H14   1.100247 S    
O5    C3    1.288065 A    
C15   C16   1.398062 A    
C11   C12   1.388299 A    
C34   Br2   1.940979 S    
C12   C13   1.396025 A    
O2    Zn2   1.987844 S    
N3    O9    1.298692 A    
C29   N1    1.365722 A    
C6    C7    1.406707 A    
O1    C1    1.296801 A    
O6    C3    1.290745 A    
C29   C32   1.406518 A    
