data_mof_unit_64679.cif
_audit_creation_date              2012-10-26T20:23:51-0400
_audit_creation_method            fapswitch 2.2
_symmetry_space_group_name_H-M    P1
_symmetry_Int_Tables_number       1
_space_group_crystal_system       triclinic
_cell_length_a                    12.75318
_cell_length_b                    13.903998
_cell_length_c                    15.870417
_cell_angle_alpha                 90.233382
_cell_angle_beta                  92.700282
_cell_angle_gamma                 97.945413
_cell_volume                      2783.87606445

loop_
_atom_site_label
_atom_site_type_symbol
_atom_type_description
_atom_site_fract_x
_atom_site_fract_y
_atom_site_fract_z
_atom_type_partial_charge
C1    C     C_R   0.483568 0.315826 0.499124 0.545354
C2    C     C_1   0.145435 0.480717 0.483009 0.141923
C3    C     C_R   0.500725 0.500019 0.339498 0.547152
C4    C     C_R   0.499275 0.499981 0.660501 0.547152
C5    C     C_3   0.443008 0.417446 0.969980 -0.099612
C6    C     C_3   0.556992 0.582553 0.030019 -0.099612
C7    C     C_3   0.544018 0.423414 0.028947 -0.099750
C8    C     C_3   0.455981 0.576586 0.971053 -0.099750
C9    C     C_1   0.502106 0.500101 0.249829 -0.027384
C10   C     C_1   0.497894 0.499899 0.750171 -0.027384
C11   C     C_3   0.400248 0.494097 0.025159 -0.098901
C12   C     C_R   0.516432 0.684174 0.500876 0.545354
C13   C     C_3   0.599752 0.505903 0.974841 -0.098901
C14   C     C_3   0.501255 0.500064 0.082591 0.050764
C15   C     C_3   0.498745 0.499936 0.917408 0.050764
C16   C     C_1   0.502185 0.500110 0.174279 -0.057564
C17   C     C_1   0.497815 0.499890 0.825721 -0.057564
C18   C     C_1   0.525818 0.787517 0.501377 -0.013511
C19   C     C_1   0.474182 0.212483 0.498622 -0.013511
C20   C     C_2   0.543506 0.978392 0.502321 -0.120600
C21   C     C_2   0.456494 0.021608 0.497678 -0.120600
C22   C     C_1   0.465651 0.125427 0.498167 -0.048184
C23   C     C_1   0.534348 0.874573 0.501833 -0.048184
C24   C     C_2   0.028375 0.473154 0.476322 -0.161706
C25   C     C_2   0.971625 0.526846 0.523678 -0.161706
C26   C     C_1   0.854565 0.519283 0.516991 0.141923
Cu1   Cu    Cu3+1 0.395330 0.493960 0.494680 0.994385
Cu2   Cu    Cu3+1 0.604670 0.506040 0.505320 0.994385
H1    H     H_    0.580212 0.360573 0.054062 0.109447
H2    H     H_    0.986476 0.421472 0.430724 0.127372
H3    H     H_    0.419788 0.639427 0.945938 0.109447
H4    H     H_    0.396168 0.349701 0.943984 0.109782
H5    H     H_    0.603832 0.650300 0.056016 0.109782
H6    H     H_    0.681636 0.510748 0.952814 0.110547
H7    H     H_    0.318364 0.489252 0.047186 0.110547
H8    H     H_    0.378073 0.979328 0.493494 0.137434
H9    H     H_    0.621927 0.020672 0.506506 0.137434
H10   H     H_    0.013524 0.578528 0.569275 0.127372
N1    N     N_1   0.238040 0.484880 0.486690 -0.185268
N2    N     N_1   0.761960 0.515120 0.513310 -0.185268
O1    O     O_R   0.399110 0.356330 0.494860 -0.489948
O2    O     O_R   0.600890 0.643670 0.505140 -0.489949
O3    O     O_R   0.575890 0.366540 0.503840 -0.490907
O4    O     O_R   0.424110 0.633460 0.496160 -0.490907
O5    O     O_R   0.411620 0.494890 0.374590 -0.489992
O6    O     O_R   0.588380 0.505110 0.625410 -0.489992
O7    O     O_R   0.588400 0.505100 0.383570 -0.490832
O8    O     O_R   0.411600 0.494900 0.616430 -0.490832

loop_
_geom_bond_atom_site_label_1
_geom_bond_atom_site_label_2
_ccdc_geom_bond_type
Cu1   O8    S    
C6    C8    S    
C6    H5    S    
Cu2   O7    S    
C3    C9    S    
C25   H10   S    
C6    C14   S    
Cu1   O1    S    
Cu2   O3    S    
C20   C23   S    
C5    H4    S    
C26   N2    T    
Cu1   O5    S    
C11   H7    S    
C13   H6    S    
C12   O4    A    
C21   H8    S    
C4    O6    A    
C21   C22   S    
C20   C21   D    
C6    C13   S    
C20   H9    S    
Cu2   O6    S    
C8    C11   S    
C7    H1    S    
Cu1   O4    S    
C3    O7    A    
C9    C16   T    
C1    O3    A    
C5    C11   S    
C8    C15   S    
C14   C16   S    
C13   C15   S    
C2    C24   S    
C11   C14   S    
C24   H2    S    
C1    C19   S    
C5    C15   S    
Cu2   N2    S    
C10   C17   T    
C4    C10   S    
C18   C23   T    
C7    C13   S    
C19   C22   T    
C24   C25   D    
C5    C7    S    
C4    O8    A    
C12   C18   S    
Cu1   Cu2   S    
C15   C17   S    
C12   O2    A    
Cu2   O2    S    
C25   C26   S    
C8    H3    S    
C2    N1    T    
C3    O5    A    
C7    C14   S    
C1    O1    A    
Cu1   N1    S    
