data_mof_unit_65481.cif
_audit_creation_date              2012-12-10T19:08:19-0500
_audit_creation_method            fapswitch 2.2
_symmetry_space_group_name_H-M    P1
_symmetry_Int_Tables_number       1
_space_group_crystal_system       triclinic
_cell_length_a                    25.55686
_cell_length_b                    34.613211
_cell_length_c                    21.460853
_cell_angle_alpha                 89.954746
_cell_angle_beta                  126.600289
_cell_angle_gamma                 90.078985
_cell_volume                      15240.9185087

loop_
_atom_site_label
_atom_site_type_symbol
_atom_type_description
_atom_site_fract_x
_atom_site_fract_y
_atom_site_fract_z
_atom_type_partial_charge
C1    C     C_R   0.141702 0.250012 0.000146 0.840189
C2    C     C_3   0.732409 0.240293 0.929195 -0.225493
C3    C     C_R   0.026897 0.918774 0.968176 0.172357
C4    C     C_R   0.537030 0.581864 0.981654 0.171752
C5    C     C_R   0.511658 0.418739 0.064100 0.159202
C6    C     C_R   0.462509 0.581837 0.017982 0.171130
C7    C     C_R   0.487426 0.418716 0.935159 0.153363
C8    C     C_R   0.000071 0.103031 0.000179 -0.048957
C9    C     C_R   0.999957 0.897979 0.999931 -0.081501
C10   C     C_R   0.499868 0.602412 0.999928 -0.070196
C11   C     C_R   0.499703 0.397974 0.999736 -0.089809
C12   C     C_R   0.000053 0.022055 0.000137 0.088158
C13   C     C_3   0.757423 0.785324 0.979392 -0.239760
C14   C     C_R   0.000017 0.979424 0.000055 0.089253
C15   C     C_R   0.499498 0.521423 0.999520 0.082929
C16   C     C_R   0.499462 0.479162 0.999517 0.080230
C17   C     C_R   0.000016 0.145108 0.000046 0.835547
C18   C     C_R   0.999988 0.855258 0.999969 0.807405
C19   C     C_R   0.499991 0.644883 0.000014 0.813242
C20   C     C_R   0.499932 0.355264 0.999926 0.821352
C21   C     C_R   0.000025 0.355180 0.999986 0.797071
C22   C     C_R   0.999971 0.644828 0.000027 0.802392
C23   C     C_R   0.500022 0.855172 0.000063 0.802361
C24   C     C_3   0.242097 0.214558 0.019651 -0.232591
C25   C     C_R   0.499978 0.144820 0.999939 0.796873
C26   C     C_R   0.058241 0.458213 0.031863 -0.163429
C27   C     C_R   0.947764 0.541853 0.936574 -0.161811
C28   C     C_R   0.941763 0.458097 0.968164 -0.162157
C29   C     C_R   0.052127 0.541905 0.063667 -0.164752
C30   C     C_R   0.552194 0.958147 0.063705 -0.163286
C31   C     C_R   0.441727 0.041805 0.968160 -0.162321
C32   C     C_R   0.447816 0.958096 0.936630 -0.162818
C33   C     C_R   0.558197 0.041885 0.031815 -0.162628
C34   C     C_R   0.058326 0.417981 0.032331 -0.166937
C35   C     C_3   0.767610 0.259604 0.070826 -0.221440
C36   C     C_R   0.947523 0.582080 0.936851 -0.170663
C37   C     C_R   0.941713 0.417872 0.967601 -0.159638
C38   C     C_R   0.052329 0.582135 0.063392 -0.158866
C39   C     C_R   0.552438 0.917913 0.063429 -0.158876
C40   C     C_R   0.441641 0.082035 0.967532 -0.157598
C41   C     C_R   0.447616 0.917872 0.936906 -0.170533
C42   C     C_R   0.558248 0.082113 0.032218 -0.167449
C43   C     C_R   0.000033 0.397541 0.999977 -0.006659
C44   C     C_R   0.999930 0.602482 0.000096 -0.013480
C45   C     C_R   0.500043 0.897518 0.000145 -0.013658
C46   C     C_3   0.257269 0.714814 0.979505 -0.235700
C47   C     C_R   0.499944 0.102459 0.999865 -0.007024
C48   C     C_R   0.999994 0.478682 0.000054 0.107603
C49   C     C_R   0.999964 0.521352 0.000104 0.102763
C50   C     C_R   0.499995 0.978648 0.000154 0.102398
C51   C     C_R   0.499977 0.021318 0.000069 0.107282
C52   C     C_3   0.777601 0.285216 0.019373 -0.241031
C53   C     C_3   0.258391 0.723552 0.051082 -0.181617
C54   C     C_3   0.259114 0.276048 0.052275 -0.174389
C55   C     C_3   0.741295 0.723607 0.948528 -0.171438
C56   C     C_3   0.241467 0.776515 0.948623 -0.173296
C57   C     C_3   0.258142 0.285260 0.980938 -0.244259
C58   C     C_3   0.722409 0.214688 0.980640 -0.242192
C59   C     C_3   0.758533 0.776618 0.051005 -0.183566
C60   C     C_3   0.241118 0.223767 0.948295 -0.180101
C61   C     C_3   0.153875 0.116757 0.098197 -0.744929
C62   C     C_3   0.875595 0.889110 0.003471 -0.715739
C63   C     C_3   0.846192 0.116471 0.902690 -0.753572
C64   C     C_3   0.124282 0.889407 0.996275 -0.718277
C65   C     C_3   0.639822 0.613168 0.034104 -0.727294
C66   C     C_3   0.470185 0.396549 0.133292 -0.679476
C67   C     C_3   0.359992 0.613271 0.965865 -0.723713
C68   C     C_3   0.742421 0.714908 0.020135 -0.242338
C69   C     C_3   0.527931 0.396838 0.864815 -0.642406
C70   C     C_3   0.198822 0.749876 0.999942 -0.040552
C71   C     C_3   0.801616 0.249549 0.000860 -0.038938
C72   C     C_3   0.800981 0.749918 0.999628 -0.039573
C73   C     C_R   0.858304 0.749992 0.999862 0.836614
C74   C     C_3   0.199045 0.250104 0.000409 -0.039747
C75   C     C_3   0.698388 0.250364 0.999137 -0.037127
C76   C     C_3   0.301035 0.750176 0.999788 -0.038723
C77   C     C_3   0.301190 0.249718 0.000130 -0.041423
C78   C     C_3   0.698841 0.750293 0.999925 -0.039913
C79   C     C_3   0.197179 0.741176 0.928864 0.209024
C80   C     C_3   0.792315 0.224023 0.052136 0.251820
C81   C     C_3   0.802624 0.741252 0.070724 0.201315
C82   C     C_3   0.197547 0.259279 0.929578 0.200091
C83   C     C_3   0.707704 0.275878 0.947867 0.252375
C84   C     C_R   0.858470 0.249911 0.000189 0.810831
C85   C     C_3   0.302651 0.758907 0.070830 0.202073
C86   C     C_3   0.302711 0.240544 0.071003 0.205552
C87   C     C_3   0.697185 0.758973 0.928793 0.209886
C88   C     C_R   0.255385 0.254503 0.418474 -0.183060
C89   C     C_R   0.744860 0.745313 0.581358 -0.180487
C90   C     C_R   0.783231 0.283613 0.581236 -0.188287
C91   C     C_R   0.216806 0.716298 0.418771 -0.184938
C92   C     C_R   0.716904 0.783688 0.418785 -0.184667
C93   C     C_R   0.282595 0.216453 0.581126 -0.185611
C94   C     C_R   0.244807 0.754478 0.581409 -0.180742
C95   C     C_R   0.141621 0.749968 0.999976 0.826020
C96   C     C_R   0.754882 0.244727 0.418774 -0.180410
C97   C     C_R   0.216817 0.253543 0.337692 0.164820
C98   C     C_R   0.783318 0.746187 0.662136 0.162988
C99   C     C_R   0.824910 0.285113 0.662010 0.174310
C100  C     C_R   0.175250 0.714827 0.337984 0.174584
C101  C     C_R   0.675326 0.785165 0.338005 0.174464
C102  C     C_R   0.323970 0.214939 0.661897 0.168374
C103  C     C_R   0.283299 0.753606 0.662193 0.162813
C104  C     C_R   0.716543 0.245630 0.338005 0.164461
C105  C     C_R   0.148615 0.249641 0.295185 -0.095180
C106  C     C_R   0.641629 0.750086 0.999973 0.826724
C107  C     C_R   0.851508 0.750287 0.704788 -0.100487
C108  C     C_R   0.852714 0.250635 0.704723 -0.087900
C109  C     C_R   0.147164 0.749292 0.295307 -0.086813
C110  C     C_R   0.647206 0.750694 0.295320 -0.086863
C111  C     C_R   0.352838 0.249315 0.704657 -0.090633
C112  C     C_R   0.351500 0.749692 0.704816 -0.099900
C113  C     C_R   0.648435 0.250244 0.295228 -0.099685
C114  C     C_R   0.120541 0.246140 0.334587 -0.238315
C115  C     C_R   0.879671 0.753989 0.665509 -0.232071
C116  C     C_R   0.838877 0.215404 0.665402 -0.241461
C117  C     C_R   0.358386 0.249904 0.000055 0.828657
C118  C     C_R   0.160534 0.784459 0.334698 -0.237317
C119  C     C_R   0.660579 0.715508 0.334684 -0.237812
C120  C     C_R   0.340388 0.284426 0.665335 -0.237984
C121  C     C_R   0.379643 0.746160 0.665504 -0.232138
C122  C     C_R   0.620282 0.254411 0.334432 -0.233836
C123  C     C_R   0.159278 0.247250 0.415382 0.204256
C124  C     C_R   0.841031 0.752958 0.584709 0.204558
C125  C     C_R   0.797000 0.214036 0.584593 0.208065
C126  C     C_R   0.202257 0.785793 0.415514 0.208060
C127  C     C_R   0.702334 0.714166 0.415494 0.208102
C128  C     C_R   0.358336 0.750024 0.999943 0.837299
C129  C     C_R   0.298815 0.285801 0.584525 0.205433
C130  C     C_R   0.340971 0.747185 0.584698 0.204486
C131  C     C_R   0.658811 0.253351 0.415228 0.203578
C132  C     C_R   0.227047 0.251643 0.457460 0.027167
C133  C     C_R   0.773278 0.748435 0.542502 0.024101
C134  C     C_R   0.768833 0.248344 0.542380 0.031747
C135  C     C_R   0.230761 0.751516 0.457675 0.031087
C136  C     C_R   0.730856 0.748454 0.457668 0.031191
C137  C     C_R   0.269535 0.251618 0.542294 0.032290
C138  C     C_R   0.273204 0.751531 0.542517 0.023927
C139  C     C_R   0.641522 0.250064 0.999791 0.821354
C140  C     C_R   0.726459 0.248317 0.457535 0.025288
C141  C     C_R   0.051979 0.042520 0.010092 -0.239635
C142  C     C_R   0.975120 0.958975 0.033373 -0.242210
C143  C     C_R   0.948180 0.042428 0.990312 -0.240173
C144  C     C_R   0.024873 0.959083 0.966656 -0.243663
C145  C     C_R   0.535510 0.541561 0.980400 -0.246617
C146  C     C_R   0.512028 0.459047 0.063473 -0.239588
C147  C     C_R   0.463655 0.541528 0.018825 -0.246426
C148  C     C_R   0.486896 0.459031 0.935602 -0.236901
C149  C     C_R   0.895358 0.250494 0.789698 0.835520
C150  C     C_3   0.242545 0.785265 0.020169 -0.246753
C151  C     C_R   0.104622 0.749489 0.210311 0.839730
C152  C     C_R   0.105830 0.249613 0.210291 0.827891
C153  C     C_R   0.894201 0.750362 0.789698 0.837557
C154  C     C_R   0.394217 0.749636 0.789730 0.835920
C155  C     C_R   0.605790 0.250359 0.210287 0.838768
C156  C     C_R   0.604640 0.750509 0.210338 0.839855
C157  C     C_R   0.395352 0.249495 0.789653 0.833185
C158  C     C_R   0.052362 0.082845 0.009918 0.166219
C159  C     C_R   0.973020 0.918670 0.031716 0.171544
C160  C     C_R   0.947843 0.082750 0.990589 0.167816
H1    H     H_    0.103656 0.473259 0.055534 0.138017
H2    H     H_    0.956475 0.974282 0.060347 0.143916
H3    H     H_    0.906913 0.027108 0.980569 0.143217
H4    H     H_    0.043549 0.974478 0.939741 0.142671
H5    H     H_    0.564167 0.525859 0.966735 0.146843
H6    H     H_    0.522412 0.474728 0.113420 0.150989
H7    H     H_    0.434890 0.525802 0.032385 0.146044
H8    H     H_    0.476352 0.474701 0.885542 0.151512
H9    H     H_    0.103847 0.402881 0.057052 0.164942
H10   H     H_    0.906801 0.597213 0.887085 0.169325
H11   H     H_    0.896193 0.402690 0.942820 0.169762
H12   H     H_    0.907466 0.526839 0.886155 0.144311
H13   H     H_    0.093037 0.597312 0.113162 0.181304
H14   H     H_    0.593158 0.902772 0.113188 0.181526
H15   H     H_    0.396119 0.097146 0.942755 0.167231
H16   H     H_    0.406893 0.902704 0.887142 0.169385
H17   H     H_    0.603761 0.097284 0.056908 0.168398
H18   H     H_    0.235655 0.814051 0.037069 0.162016
H19   H     H_    0.718838 0.232409 0.871130 0.171528
H20   H     H_    0.764418 0.814088 0.962417 0.162400
H21   H     H_    0.234664 0.185677 0.035783 0.164409
H22   H     H_    0.781192 0.267459 0.128911 0.185704
H23   H     H_    0.896329 0.473046 0.944519 0.139581
H24   H     H_    0.263878 0.686050 0.962346 0.159584
H25   H     H_    0.265548 0.314153 0.964835 0.164881
H26   H     H_    0.735711 0.686153 0.037329 0.159213
H27   H     H_    0.801025 0.314139 0.035154 0.167339
H28   H     H_    0.264716 0.701919 0.093303 0.182861
H29   H     H_    0.265837 0.297366 0.095141 0.186418
H30   H     H_    0.734866 0.701979 0.906282 0.187292
H31   H     H_    0.235165 0.798122 0.906373 0.186976
H32   H     H_    0.698992 0.185763 0.964856 0.165505
H33   H     H_    0.764979 0.798263 0.093233 0.182637
H34   H     H_    0.092438 0.526926 0.114078 0.144352
H35   H     H_    0.234378 0.202427 0.905455 0.182898
H36   H     H_    0.307819 0.257065 0.451211 0.185183
H37   H     H_    0.692437 0.742594 0.548517 0.186965
H38   H     H_    0.762447 0.310114 0.548385 0.179148
H39   H     H_    0.237862 0.689816 0.451592 0.180324
H40   H     H_    0.737975 0.810177 0.451619 0.180594
H41   H     H_    0.260926 0.190035 0.548247 0.181429
H42   H     H_    0.192378 0.757060 0.548593 0.186994
H43   H     H_    0.807244 0.241624 0.451694 0.186812
H44   H     H_    0.068214 0.243214 0.302412 0.190682
H45   H     H_    0.592500 0.973167 0.114106 0.145770
H46   H     H_    0.931994 0.757023 0.697779 0.199246
H47   H     H_    0.859811 0.188767 0.697638 0.182138
H48   H     H_    0.139348 0.811083 0.302518 0.183355
H49   H     H_    0.639372 0.688879 0.302486 0.182824
H50   H     H_    0.362185 0.310988 0.697561 0.183843
H51   H     H_    0.431973 0.743265 0.697752 0.199261
H52   H     H_    0.568031 0.257835 0.302109 0.198832
H53   H     H_    0.126761 0.088352 0.998295 0.231082
H54   H     H_    0.177621 0.091991 0.138955 0.243600
H55   H     H_    0.131225 0.135975 0.117383 0.233611
H56   H     H_    0.396308 0.026777 0.944549 0.138442
H57   H     H_    0.191698 0.133586 0.099818 0.238169
H58   H     H_    0.949836 0.913064 0.108661 0.231585
H59   H     H_    0.845490 0.915620 0.977210 0.225383
H60   H     H_    0.857334 0.872111 0.030803 0.238265
H61   H     H_    0.870396 0.871157 0.957174 0.232878
H62   H     H_    0.873843 0.088130 0.002906 0.239195
H63   H     H_    0.822272 0.091656 0.862075 0.241757
H64   H     H_    0.868623 0.135681 0.883116 0.228468
H65   H     H_    0.808559 0.133281 0.901368 0.240531
H66   H     H_    0.049975 0.913318 0.891136 0.230626
H67   H     H_    0.407498 0.973069 0.886215 0.143974
H68   H     H_    0.154382 0.915957 0.022492 0.225623
H69   H     H_    0.142498 0.872470 0.968895 0.238585
H70   H     H_    0.129540 0.871424 0.042614 0.231349
H71   H     H_    0.580808 0.587181 0.926336 0.230123
H72   H     H_    0.669110 0.587393 0.067893 0.233608
H73   H     H_    0.634131 0.632165 0.071388 0.228072
H74   H     H_    0.666367 0.629564 0.016433 0.232846
H75   H     H_    0.566051 0.410301 0.182131 0.226689
H76   H     H_    0.455564 0.425697 0.139489 0.213678
H77   H     H_    0.483526 0.378578 0.183691 0.244617
H78   H     H_    0.603622 0.026919 0.055485 0.139741
H79   H     H_    0.428209 0.382676 0.079575 0.249351
H80   H     H_    0.418824 0.587052 0.073398 0.229564
H81   H     H_    0.330466 0.587570 0.931880 0.232888
H82   H     H_    0.365814 0.632328 0.928705 0.230428
H83   H     H_    0.333623 0.629653 0.983710 0.232466
H84   H     H_    0.432159 0.410013 0.817153 0.227735
H85   H     H_    0.542047 0.426080 0.858138 0.212790
H86   H     H_    0.514231 0.378878 0.814283 0.254830
H87   H     H_    0.570337 0.383131 0.918334 0.259095
H88   H     H_    0.093249 0.027265 0.019862 0.143053
I1    I     I_    0.112625 0.727124 0.815316 -0.306214
I2    I     I_    0.733612 0.744155 0.713804 -0.274679
I3    I     I_    0.846634 0.340906 0.713399 -0.285439
I4    I     I_    0.154152 0.659064 0.286555 -0.314109
I5    I     I_    0.654246 0.840937 0.286584 -0.311469
I6    I     I_    0.343452 0.159179 0.713045 -0.304876
I7    I     I_    0.233653 0.755343 0.713943 -0.275292
I8    I     I_    0.766471 0.242810 0.286678 -0.291819
I9    I     I_    0.112670 0.243262 0.470331 -0.267370
I10   I     I_    0.887754 0.757267 0.529948 -0.254939
I11   I     I_    0.776769 0.159410 0.529778 -0.292762
I12   I     I_    0.856900 0.181894 0.136639 -0.274699
I13   I     I_    0.221738 0.840326 0.470444 -0.296311
I14   I     I_    0.721836 0.659606 0.470390 -0.299647
I15   I     I_    0.280713 0.340284 0.529778 -0.309677
I16   I     I_    0.387661 0.743131 0.529885 -0.255294
I17   I     I_    0.612040 0.258390 0.469808 -0.268981
I18   I     I_    0.887153 0.726973 0.184056 -0.309599
I19   I     I_    0.113184 0.274338 0.816681 -0.309902
I20   I     I_    0.643173 0.317903 0.863072 -0.334638
I21   I     I_    0.387237 0.773165 0.184172 -0.308697
I22   I     I_    0.387054 0.225702 0.184103 -0.314174
I23   I     I_    0.612641 0.773026 0.815280 -0.305540
I24   I     I_    0.266304 0.255090 0.285727 -0.280305
N1    N     N_2   0.105686 0.102922 0.020090 -0.294740
N2    N     N_2   0.943149 0.899343 0.061721 -0.270378
N3    N     N_2   0.894664 0.102730 0.980762 -0.283103
N4    N     N_2   0.056710 0.899549 0.938091 -0.269930
N5    N     N_2   0.576890 0.601399 0.965632 -0.274644
N6    N     N_2   0.525486 0.399434 0.130944 -0.283676
N7    N     N_2   0.422839 0.601349 0.034209 -0.275676
N8    N     N_2   0.473147 0.399369 0.868168 -0.293127
O1    O     O_3   0.000000 0.250010 0.000000 -0.505611
O2    O     O_R   0.359980 0.227250 0.954550 -0.641177
O3    O     O_R   0.359980 0.772750 0.954550 -0.633472
O4    O     O_R   0.640020 0.227250 0.045450 -0.625506
O5    O     O_R   0.944020 0.227270 0.826530 -0.634316
O6    O     O_R   0.055980 0.772730 0.173470 -0.632120
O7    O     O_R   0.055980 0.227270 0.173470 -0.636092
O8    O     O_R   0.944020 0.772730 0.826530 -0.634002
O9    O     O_R   0.444020 0.727270 0.826530 -0.634998
O10   O     O_R   0.555980 0.272730 0.173470 -0.634843
O11   O     O_R   0.555980 0.727270 0.173470 -0.633267
O12   O     O_3   1.000000 0.749990 0.000000 -0.503647
O13   O     O_R   0.444020 0.272730 0.826530 -0.633979
O14   O     O_R   0.008020 0.163280 0.954510 -0.629885
O15   O     O_R   0.991980 0.836720 0.045490 -0.617421
O16   O     O_R   0.991980 0.163280 0.045490 -0.618373
O17   O     O_R   0.008020 0.836720 0.954510 -0.615142
O18   O     O_R   0.508020 0.663280 0.954510 -0.617192
O19   O     O_R   0.491980 0.336720 0.045490 -0.622765
O20   O     O_R   0.491980 0.663280 0.045490 -0.620112
O21   O     O_R   0.508020 0.336720 0.954510 -0.619289
O22   O     O_R   0.053480 0.336740 0.045470 -0.642390
O23   O     O_3   0.500000 0.750010 0.000000 -0.504184
O24   O     O_R   0.946520 0.663260 0.954530 -0.640696
O25   O     O_R   0.946520 0.336740 0.954530 -0.629163
O26   O     O_R   0.053480 0.663260 0.045470 -0.631246
O27   O     O_R   0.553480 0.836740 0.045470 -0.631459
O28   O     O_R   0.446520 0.163260 0.954530 -0.630935
O29   O     O_R   0.446520 0.836740 0.954530 -0.640607
O30   O     O_R   0.553480 0.163260 0.045470 -0.639575
O31   O     O_R   0.882520 0.272750 0.826550 -0.612031
O32   O     O_R   0.117480 0.727250 0.173450 -0.613663
O33   O     O_R   0.117480 0.272750 0.173450 -0.613314
O34   O     O_3   0.500000 0.249990 0.000000 -0.502781
O35   O     O_R   0.882520 0.727250 0.826550 -0.614481
O36   O     O_R   0.382520 0.772750 0.826550 -0.614266
O37   O     O_R   0.617480 0.227250 0.173450 -0.608782
O38   O     O_R   0.617480 0.772750 0.173450 -0.613766
O39   O     O_R   0.382520 0.227250 0.826550 -0.610719
O40   O     O_R   0.094550 0.227270 0.954490 -0.620156
O41   O     O_R   0.905450 0.772730 0.045510 -0.624359
O42   O     O_R   0.905450 0.227270 0.045510 -0.618923
O43   O     O_R   0.094550 0.772730 0.954490 -0.626326
O44   O     O_R   0.594550 0.727270 0.954490 -0.623384
O45   O     O_R   0.140020 0.272750 0.045450 -0.635114
O46   O     O_R   0.405450 0.272730 0.045510 -0.631539
O47   O     O_R   0.405450 0.727270 0.045510 -0.622150
O48   O     O_R   0.594550 0.272730 0.954490 -0.624746
O49   O     O_R   0.859980 0.727250 0.954550 -0.633226
O50   O     O_R   0.859980 0.272750 0.954550 -0.634839
O51   O     O_R   0.140020 0.727250 0.045450 -0.640888
O52   O     O_R   0.640020 0.772750 0.045450 -0.641513
Zn1   Zn    Zn3+2 0.923580 0.282490 0.935040 1.009197
Zn2   Zn    Zn3+2 0.988550 0.782480 0.064990 1.003427
Zn3   Zn    Zn3+2 0.988550 0.217520 0.064990 1.005986
Zn4   Zn    Zn3+2 0.011450 0.782480 0.935010 0.998771
Zn5   Zn    Zn3+2 0.511450 0.717520 0.935010 1.000422
Zn6   Zn    Zn3+2 0.488550 0.282480 0.064990 0.992423
Zn7   Zn    Zn3+2 0.488550 0.717520 0.064990 1.004941
Zn8   Zn    Zn3+2 0.511450 0.282480 0.935010 0.998592
Zn9   Zn    Zn3+2 0.076420 0.717510 0.064960 1.009250
Zn10  Zn    Zn3+2 0.076420 0.282490 0.064960 1.006195
Zn11  Zn    Zn3+2 0.923580 0.717510 0.935040 1.011009
Zn12  Zn    Zn3+2 0.423580 0.782490 0.935040 1.010439
Zn13  Zn    Zn3+2 0.576420 0.217510 0.064960 1.014285
Zn14  Zn    Zn3+2 0.576420 0.782490 0.064960 1.009073
Zn15  Zn    Zn3+2 0.423580 0.217510 0.935040 1.008243
Zn16  Zn    Zn3+2 0.011450 0.217520 0.935010 1.006386

loop_
_geom_bond_atom_site_label_1
_geom_bond_atom_site_label_2
_ccdc_geom_bond_type
C18   O15   A    
C54   H29   S    
C88   H36   S    
C70   C150  S    
C3    N4    S    
C126  C135  A    
C56   C79   S    
C124  C133  A    
C68   C81   S    
C109  C151  S    
C28   H23   S    
C61   H57   S    
C46   C79   S    
O31   Zn1   S    
C35   C80   S    
C141  H88   S    
O33   Zn10  S    
C62   H61   S    
C131  C140  A    
O26   Zn9   S    
C54   C74   S    
O51   Zn9   S    
C113  C122  A    
O13   Zn8   S    
C82   I19   S    
C52   H27   S    
C91   C100  A    
C93   H41   S    
C57   H25   S    
C88   C97   A    
C97   C105  A    
C56   H31   S    
C100  C109  A    
C144  H4    S    
C102  C111  A    
C113  C155  S    
C39   H14   S    
C143  H3    S    
C109  C118  A    
C120  H50   S    
C14   C144  A    
C11   C20   S    
C65   H74   S    
C127  C136  A    
O30   Zn13  S    
C99   I3    S    
H71   N5    S    
O2    Zn15  S    
C156  O11   A    
C103  C112  A    
C148  H8    S    
C22   O24   A    
C6    C10   A    
C32   H67   S    
H80   N7    S    
C160  N3    S    
C147  H7    S    
C63   N3    S    
C41   H16   S    
C96   C104  A    
C58   H32   S    
C122  H52   S    
C36   C44   A    
C2    C71   S    
C130  C138  A    
C65   H72   S    
C70   C79   S    
O43   Zn4   S    
C72   C73   S    
C97   I24   S    
O7    Zn3   S    
C131  I17   S    
C13   C72   S    
O12   Zn9   S    
C26   H1    S    
C36   H10   S    
C8    C17   S    
C78   C106  S    
C22   O26   A    
C62   H59   S    
O23   Zn12  S    
C19   O20   A    
C64   H69   S    
C90   C134  A    
O38   Zn14  S    
C46   C53   S    
C111  C157  S    
O6    Zn2   S    
C96   C140  A    
C129  C137  A    
C18   O17   A    
C84   O42   A    
C41   C45   A    
C53   C85   S    
C76   C85   S    
O52   Zn14  S    
O22   Zn10  S    
C78   C87   S    
C14   C142  A    
C123  C132  A    
C121  C130  A    
C143  C160  A    
C63   H65   S    
C29   C49   A    
C59   H33   S    
O42   Zn3   S    
O1    Zn1   S    
C33   C42   A    
C157  O13   A    
O14   Zn16  S    
C12   C141  A    
C62   N2    S    
C46   H24   S    
C117  O2    A    
C33   H78   S    
C69   H87   S    
C156  O38   A    
C29   C38   A    
C32   C41   A    
C157  O39   A    
O23   Zn7   S    
C39   C45   A    
C68   H26   S    
C112  C154  S    
C154  O36   A    
C59   C78   S    
C67   H82   S    
O37   Zn13  S    
O12   Zn11  S    
C128  O47   A    
C89   C133  A    
C117  O46   A    
C120  C129  A    
C63   H63   S    
O9    Zn5   S    
C54   C86   S    
C30   H45   S    
C126  I13   S    
C152  O33   A    
C3    C9    A    
O34   Zn8   S    
O8    Zn4   S    
C69   H86   S    
C107  C115  A    
C13   C87   S    
O24   Zn11  S    
O48   Zn8   S    
C107  C153  S    
C34   H9    S    
C114  C123  A    
C116  C125  A    
C114  H44   S    
O21   Zn8   S    
C56   C150  S    
C90   C99   A    
C158  N1    S    
C28   C48   A    
C24   H21   S    
O1    Zn3   S    
C5    N6    S    
C31   C51   A    
C110  C119  A    
C37   H11   S    
C13   C59   S    
C26   C48   A    
C13   H20   S    
C89   H37   S    
C154  O9    A    
C12   C143  A    
C89   C98   A    
C112  C121  A    
C75   C139  S    
C64   H70   S    
C6    C147  A    
C28   C37   A    
C4    C145  A    
O1    Zn10  S    
C30   C39   A    
O29   Zn12  S    
O23   Zn5   S    
C55   C87   S    
O3    Zn12  S    
C95   O51   A    
C104  C113  A    
C9    C18   S    
C61   H54   S    
C115  H46   S    
O39   Zn15  S    
O19   Zn6   S    
C88   C132  A    
C57   C82   S    
C61   H55   S    
C92   H40   S    
C67   N7    S    
C27   H12   S    
C130  I16   S    
O45   Zn10  S    
C27   C49   A    
C60   H35   S    
C54   C57   S    
C119  C127  A    
C125  C134  A    
C23   C45   S    
C135  C138  S    
C103  I7    S    
C122  C131  A    
C23   O27   A    
C142  C159  A    
C8    C158  A    
C55   C68   S    
C2    C83   S    
C145  H5    S    
C139  O4    A    
O44   Zn5   S    
C65   H73   S    
C83   I20   S    
C53   H28   S    
C5    C11   A    
O34   Zn6   S    
C53   C70   S    
C106  O52   A    
C20   O19   A    
C31   C40   A    
C21   O22   A    
C85   I21   S    
H62   N3    S    
C85   C150  S    
C153  O35   A    
C73   O49   A    
O50   Zn1   S    
C94   H42   S    
O34   Zn15  S    
C25   C47   S    
C72   C81   S    
C58   C80   S    
C30   C50   A    
C124  I10   S    
C68   C78   S    
C4    N5    S    
C92   C136  A    
H66   N4    S    
C74   C82   S    
C6    N7    S    
O47   Zn7   S    
C67   H81   S    
C119  H49   S    
C34   C43   A    
O15   Zn2   S    
C57   C77   S    
O12   Zn4   S    
C98   I2    S    
C67   H83   S    
C155  O37   A    
C69   N8    S    
C123  I9    S    
C98   C107  A    
C102  I6    S    
C62   H60   S    
C37   C43   A    
C52   C83   S    
C38   C44   A    
C99   C108  A    
C10   C19   S    
C50   C51   S    
O16   Zn3   S    
C92   C101  A    
C48   C49   S    
C94   C103  A    
C155  O10   A    
C65   N5    S    
C76   C128  S    
O23   Zn14  S    
C1    C74   S    
C7    N8    S    
C8    C160  A    
C105  C152  S    
O11   Zn7   S    
C115  C124  A    
C159  N2    S    
C3    C144  A    
C59   C81   S    
C93   C102  A    
C142  H2    S    
C2    C58   S    
C27   C36   A    
C33   C51   A    
C20   O21   A    
C19   O18   A    
C108  C116  A    
C101  C110  A    
C52   C71   S    
C15   C147  A    
C75   C83   S    
O25   Zn1   S    
O46   Zn6   S    
O34   Zn13  S    
O35   Zn11  S    
C110  C156  S    
C141  C158  A    
C91   C135  A    
C35   C52   S    
C61   N1    S    
O28   Zn15  S    
O12   Zn2   S    
C132  C137  S    
C129  I15   S    
O41   Zn2   S    
C127  I14   S    
C29   H34   S    
C40   C47   A    
C56   C76   S    
C66   H79   S    
C101  I5    S    
O20   Zn7   S    
O17   Zn4   S    
C46   C76   S    
O36   Zn12  S    
C152  O7    A    
C64   N4    S    
C35   H22   S    
C7    C11   A    
C35   C75   S    
C77   C117  S    
O27   Zn14  S    
C134  C140  S    
C9    C159  A    
C42   H17   S    
C15   C16   S    
C1    O40   A    
H84   N8    S    
C16   C146  A    
O49   Zn11  S    
C87   I23   S    
C21   C43   S    
C60   C82   S    
C26   C34   A    
C22   C44   S    
C133  C136  S    
C66   N6    S    
O4    Zn13  S    
C80   I12   S    
C55   C72   S    
C150  H18   S    
C91   H39   S    
C146  H6    S    
C25   O28   A    
C151  O32   A    
H58   N2    S    
C79   I1    S    
O18   Zn5   S    
C71   C80   S    
C58   C75   S    
C17   O14   A    
C60   C77   S    
C55   H30   S    
C105  C114  A    
C86   I22   S    
C15   C145  A    
C38   H13   S    
C95   O43   A    
C31   H56   S    
C66   H76   S    
C111  C120  A    
C118  H48   S    
C24   C60   S    
C153  O8    A    
C21   O25   A    
C32   C50   A    
H53   N1    S    
C77   C86   S    
C66   H77   S    
C81   I18   S    
C2    H19   S    
O40   Zn16  S    
C84   O50   A    
C151  O6    A    
C64   H68   S    
C96   H43   S    
C71   C84   S    
C69   H85   S    
C149  O31   A    
C139  O48   A    
O1    Zn16  S    
C106  O44   A    
C5    C146  A    
H75   N6    S    
C149  O5    A    
C63   H64   S    
C4    C10   A    
C100  I4    S    
C7    C148  A    
C40   H15   S    
C90   H38   S    
C73   O41   A    
O10   Zn6   S    
C125  I11   S    
C104  I8    S    
C16   C148  A    
C70   C95   S    
C12   C14   S    
C24   C74   S    
O32   Zn9   S    
C24   C86   S    
C94   C138  A    
C23   O29   A    
C42   C47   A    
C121  H51   S    
C116  H47   S    
C93   C137  A    
C108  C149  S    
C25   O30   A    
C118  C126  A    
C128  O3    A    
O5    Zn16  S    
C1    O45   A    
C17   O16   A    
