data_mof_unit_22019.cif
_audit_creation_date              2012-10-26T19:09:52-0400
_audit_creation_method            fapswitch 2.2
_symmetry_space_group_name_H-M    P1
_symmetry_Int_Tables_number       1
_space_group_crystal_system       triclinic
_cell_length_a                    15.40548
_cell_length_b                    14.933824
_cell_length_c                    9.490271
_cell_angle_alpha                 89.999708
_cell_angle_beta                  90.000021
_cell_angle_gamma                 90.0
_cell_volume                      2183.35762578

loop_
_atom_site_label
_atom_site_type_symbol
_atom_type_description
_atom_site_fract_x
_atom_site_fract_y
_atom_site_fract_z
_atom_type_partial_charge
C1    C     C_R   0.121275 0.381263 0.500000 0.551470
C2    C     C_R   0.882260 0.622227 0.500000 0.552575
C3    C     C_R   0.382261 0.877773 0.500000 0.552576
C4    C     C_R   0.382260 0.122227 0.500000 0.552575
C5    C     C_3   0.821888 0.247167 0.632356 -0.228645
C6    C     C_3   0.821896 0.247159 0.367657 -0.228641
C7    C     C_3   0.821898 0.752843 0.632341 -0.228641
C8    C     C_3   0.821886 0.752831 0.367642 -0.228645
C9    C     C_3   0.321888 0.747167 0.632356 -0.228645
C10   C     C_3   0.321896 0.747158 0.367657 -0.228641
C11   C     C_3   0.321898 0.252843 0.632341 -0.228641
C12   C     C_R   0.121275 0.618737 0.500000 0.551469
C13   C     C_3   0.321886 0.252831 0.367642 -0.228645
C14   C     C_3   0.249748 0.675973 0.632549 -0.237143
C15   C     C_3   0.249756 0.675965 0.367464 -0.237145
C16   C     C_3   0.249758 0.324037 0.632533 -0.237145
C17   C     C_3   0.249746 0.324024 0.367449 -0.237143
C18   C     C_3   0.749748 0.175973 0.632549 -0.237143
C19   C     C_3   0.749756 0.175965 0.367464 -0.237145
C20   C     C_3   0.749758 0.824037 0.632533 -0.237145
C21   C     C_3   0.749746 0.824024 0.367449 -0.237143
C22   C     C_3   0.723756 0.353215 0.499989 -0.242290
C23   C     C_R   0.621275 0.881263 0.500000 0.551470
C24   C     C_3   0.723756 0.646784 0.500015 -0.242290
C25   C     C_3   0.223756 0.853215 0.499989 -0.242290
C26   C     C_3   0.223756 0.146785 0.500015 -0.242290
C27   C     C_3   0.814062 0.307816 0.500000 0.042329
C28   C     C_3   0.814062 0.692184 0.499999 0.042329
C29   C     C_3   0.314062 0.807816 0.500000 0.042329
C30   C     C_3   0.314062 0.192184 0.499999 0.042329
C31   C     C_3   0.191509 0.686531 0.500000 0.050295
C32   C     C_3   0.191509 0.313469 0.499999 0.050295
C33   C     C_3   0.691509 0.186531 0.500000 0.050295
C34   C     C_R   0.621275 0.118737 0.500000 0.551469
C35   C     C_3   0.691509 0.813469 0.499999 0.050295
C36   C     C_3   0.151513 0.781735 0.499989 -0.236024
C37   C     C_3   0.151513 0.218265 0.500015 -0.236024
C38   C     C_3   0.651513 0.281735 0.499989 -0.236024
C39   C     C_3   0.651513 0.718265 0.500015 -0.236024
C40   C     C_3   0.955747 0.580235 0.084128 -0.013003
C41   C     C_3   0.955747 0.580236 0.915870 -0.013004
C42   C     C_3   0.955747 0.419764 0.084129 -0.013004
C43   C     C_3   0.955747 0.419764 0.915872 -0.013003
C44   C     C_3   0.455747 0.080235 0.084128 -0.013003
C45   C     C_3   0.091007 0.500000 0.083137 -0.116631
C46   C     C_3   0.455747 0.080236 0.915870 -0.013004
C47   C     C_3   0.455747 0.919764 0.084129 -0.013004
C48   C     C_3   0.455747 0.919765 0.915872 -0.013003
C49   C     C_1   0.990910 0.664335 0.144415 0.235835
C50   C     C_1   0.990911 0.664335 0.855582 0.235835
C51   C     C_1   0.990911 0.335665 0.144418 0.235835
C52   C     C_1   0.990910 0.335664 0.855585 0.235835
C53   C     C_1   0.490910 0.164335 0.144415 0.235835
C54   C     C_1   0.490911 0.164335 0.855582 0.235835
C55   C     C_1   0.490911 0.835665 0.144418 0.235835
C56   C     C_3   0.091007 0.500000 0.916863 -0.116631
C57   C     C_1   0.490910 0.835665 0.855585 0.235835
C58   C     C_3   0.591007 0.000000 0.083137 -0.116631
C59   C     C_3   0.591007 1.000000 0.916863 -0.116631
C60   C     C_R   0.882261 0.377773 0.500000 0.552576
Cu1   Cu    Cu3+1 0.000100 0.500000 0.642410 0.913998
Cu2   Cu    Cu3+1 0.000100 0.500000 0.357590 0.913998
Cu3   Cu    Cu3+1 0.500100 0.000000 0.642410 0.913998
Cu4   Cu    Cu3+1 0.500100 0.000000 0.357590 0.913998
H1    H     H_    0.816444 0.287851 0.730207 0.130868
H2    H     H_    0.886335 0.213543 0.366532 0.138840
H3    H     H_    0.886337 0.786459 0.633462 0.138839
H4    H     H_    0.886325 0.786448 0.366498 0.138847
H5    H     H_    0.386327 0.713550 0.633496 0.138846
H6    H     H_    0.386335 0.713543 0.366532 0.138840
H7    H     H_    0.386337 0.286459 0.633462 0.138839
H8    H     H_    0.386325 0.286448 0.366498 0.138847
H9    H     H_    0.279125 0.607872 0.634811 0.104092
H10   H     H_    0.279134 0.607863 0.365219 0.104090
H11   H     H_    0.279136 0.392139 0.634774 0.104090
H12   H     H_    0.816458 0.287837 0.269798 0.130871
H13   H     H_    0.279123 0.392126 0.365182 0.104092
H14   H     H_    0.779125 0.107872 0.634811 0.104092
H15   H     H_    0.779134 0.107863 0.365219 0.104090
H16   H     H_    0.779136 0.892139 0.634774 0.104090
H17   H     H_    0.779123 0.892126 0.365182 0.104092
H18   H     H_    0.210427 0.683766 0.730194 0.143775
H19   H     H_    0.210442 0.683750 0.269810 0.143766
H20   H     H_    0.210445 0.316253 0.730189 0.143763
H21   H     H_    0.210424 0.316230 0.269805 0.143777
H22   H     H_    0.710427 0.183766 0.730194 0.143775
H23   H     H_    0.816461 0.712167 0.730201 0.130872
H24   H     H_    0.710442 0.183750 0.269810 0.143766
H25   H     H_    0.710445 0.816253 0.730189 0.143763
H26   H     H_    0.710424 0.816230 0.269805 0.143777
H27   H     H_    0.716771 0.396776 0.594527 0.115384
H28   H     H_    0.716777 0.396771 0.405444 0.115386
H29   H     H_    0.716779 0.603230 0.594562 0.115387
H30   H     H_    0.716770 0.603222 0.405479 0.115383
H31   H     H_    0.216771 0.896776 0.594527 0.115384
H32   H     H_    0.216777 0.896771 0.405444 0.115386
H33   H     H_    0.216779 0.103230 0.594562 0.115387
H34   H     H_    0.816441 0.712146 0.269792 0.130867
H35   H     H_    0.216770 0.103222 0.405479 0.115383
H36   H     H_    0.109714 0.791115 0.594178 0.149298
H37   H     H_    0.109720 0.791110 0.405791 0.149308
H38   H     H_    0.109722 0.208892 0.594215 0.149310
H39   H     H_    0.109713 0.208884 0.405828 0.149296
H40   H     H_    0.609714 0.291115 0.594178 0.149298
H41   H     H_    0.609720 0.291110 0.405791 0.149308
H42   H     H_    0.609722 0.708892 0.594215 0.149310
H43   H     H_    0.609713 0.708884 0.405828 0.149296
H44   H     H_    0.886629 0.578319 0.118103 0.080449
H45   H     H_    0.316444 0.787851 0.730207 0.130868
H46   H     H_    0.886629 0.578320 0.881895 0.080451
H47   H     H_    0.886629 0.421680 0.118105 0.080451
H48   H     H_    0.886629 0.421681 0.881897 0.080449
H49   H     H_    0.386629 0.078319 0.118103 0.080449
H50   H     H_    0.386629 0.078320 0.881895 0.080451
H51   H     H_    0.386629 0.921680 0.118105 0.080451
H52   H     H_    0.386629 0.921681 0.881897 0.080449
H53   H     H_    0.128035 0.559008 0.121288 0.120643
H54   H     H_    0.128036 0.559007 0.878711 0.120643
H55   H     H_    0.128036 0.440993 0.121289 0.120643
H56   H     H_    0.316458 0.787837 0.269798 0.130871
H57   H     H_    0.128035 0.440992 0.878712 0.120643
H58   H     H_    0.628035 0.059008 0.121288 0.120643
H59   H     H_    0.628036 0.059007 0.878711 0.120643
H60   H     H_    0.628036 0.940993 0.121289 0.120643
H61   H     H_    0.628035 0.940992 0.878712 0.120643
H62   H     H_    0.316461 0.212166 0.730201 0.130872
H63   H     H_    0.316441 0.212146 0.269792 0.130867
H64   H     H_    0.886327 0.213550 0.633496 0.138846
N1    N     N_3   0.001260 0.500000 0.143650 -0.256562
N2    N     N_1   0.518268 0.230516 0.810398 -0.353225
N3    N     N_1   0.518269 0.769484 0.189602 -0.353225
N4    N     N_1   0.518266 0.769483 0.810403 -0.353229
N5    N     N_3   0.001260 0.500000 0.856350 -0.256562
N6    N     N_3   0.501260 0.000000 0.143650 -0.256562
N7    N     N_3   0.501260 0.000000 0.856350 -0.256562
N8    N     N_1   0.018267 0.730517 0.189597 -0.353228
N9    N     N_1   0.018268 0.730516 0.810398 -0.353225
N10   N     N_1   0.018269 0.269484 0.189602 -0.353225
N11   N     N_1   0.018266 0.269483 0.810403 -0.353229
N12   N     N_1   0.518267 0.230517 0.189597 -0.353228
O1    O     O_R   0.091250 0.408820 0.620260 -0.503868
O2    O     O_R   0.908940 0.408800 0.379740 -0.512884
O3    O     O_R   0.908940 0.591200 0.620260 -0.512884
O4    O     O_R   0.908940 0.591200 0.379740 -0.512883
O5    O     O_R   0.408940 0.908800 0.620260 -0.512883
O6    O     O_R   0.408940 0.908800 0.379740 -0.512884
O7    O     O_R   0.408940 0.091200 0.620260 -0.512884
O8    O     O_R   0.408940 0.091200 0.379740 -0.512883
O9    O     O_R   0.091250 0.408820 0.379740 -0.503869
O10   O     O_R   0.091250 0.591180 0.620260 -0.503869
O11   O     O_R   0.091250 0.591180 0.379740 -0.503868
O12   O     O_R   0.591250 0.908820 0.620260 -0.503868
O13   O     O_R   0.591250 0.908820 0.379740 -0.503869
O14   O     O_R   0.591250 0.091180 0.620260 -0.503869
O15   O     O_R   0.591250 0.091180 0.379740 -0.503868
O16   O     O_R   0.908940 0.408800 0.620260 -0.512883

loop_
_geom_bond_atom_site_label_1
_geom_bond_atom_site_label_2
_ccdc_geom_bond_type
C39   H42   S    
C40   N1    S    
C45   N1    S    
Cu2   O9    S    
C16   H11   S    
C2    O4    A    
C57   N4    T    
C12   O11   A    
C14   C31   S    
C23   O12   A    
C24   C39   S    
C41   N5    S    
C56   N5    S    
C50   N9    T    
Cu1   N5    S    
C48   C57   S    
C34   O15   A    
C58   N6    S    
C47   H51   S    
C6    C19   S    
Cu4   O15   S    
C18   H22   S    
C17   H21   S    
C9    H5    S    
C27   C60   S    
C37   H38   S    
C11   H7    S    
C43   C52   S    
C40   C49   S    
C4    O8    A    
C16   H20   S    
C52   N11   T    
C15   C31   S    
C43   N5    S    
C3    C29   S    
C8    H34   S    
C38   H40   S    
C48   N7    S    
C60   O2    A    
C46   N7    S    
C5    C27   S    
C20   C35   S    
C44   C53   S    
Cu1   O3    S    
C7    H23   S    
C47   C48   S    
C11   C30   S    
C22   H27   S    
C1    O9    A    
Cu1   O10   S    
C9    C29   S    
C26   H35   S    
C48   H52   S    
C45   H55   S    
Cu4   O8    S    
C59   H59   S    
C2    O3    A    
Cu2   N1    S    
Cu2   O2    S    
Cu3   O7    S    
C18   C33   S    
C44   C46   S    
C8    C21   S    
C21   H26   S    
C34   O14   A    
C25   C29   S    
C54   N2    T    
Cu4   N6    S    
C58   H58   S    
Cu2   O11   S    
C20   H16   S    
C14   H9    S    
C12   O10   A    
C13   C30   S    
C11   H62   S    
C1    O1    A    
C45   C56   S    
C5    H1    S    
C19   H24   S    
C19   C33   S    
C37   H39   S    
C9    C14   S    
C46   H50   S    
C15   H19   S    
C5    C18   S    
C26   H33   S    
C58   C59   S    
C4    O7    A    
Cu4   O13   S    
C1    C32   S    
C7    C28   S    
C36   H37   S    
C9    H45   S    
Cu3   N7    S    
C35   C39   S    
C42   H47   S    
C60   O16   A    
C24   H30   S    
C11   C16   S    
C6    C27   S    
C18   H14   S    
C46   C54   S    
C17   H13   S    
C33   C34   S    
C36   H36   S    
C32   C37   S    
C19   H15   S    
C44   N6    S    
C3    O6    A    
C10   H6    S    
Cu1   O1    S    
C40   C41   S    
C49   N8    T    
C21   H17   S    
C44   H49   S    
C3    O5    A    
C55   N3    T    
C41   H46   S    
C23   O13   A    
C12   C31   S    
C8    C28   S    
C25   H31   S    
C16   C32   S    
C42   C43   S    
C14   H18   S    
Cu1   O16   S    
C41   C50   S    
C47   C55   S    
C45   H53   S    
Cu4   O6    S    
C10   C15   S    
C31   C36   S    
C56   H54   S    
C6    H12   S    
C24   C28   S    
Cu3   O14   S    
Cu2   O4    S    
C39   H43   S    
C26   C37   S    
C8    H4    S    
C21   C35   S    
C13   H8    S    
C59   H61   S    
C20   H25   S    
C42   C51   S    
C58   H60   S    
C33   C38   S    
C13   C17   S    
C22   C27   S    
C56   H57   S    
C38   H41   S    
C47   N6    S    
C24   H29   S    
C10   C29   S    
C5    H64   S    
C59   N7    S    
C42   N1    S    
Cu1   Cu2   S    
C23   C35   S    
Cu3   O12   S    
C10   H56   S    
C25   C36   S    
C7    H3    S    
Cu3   Cu4   S    
C13   H63   S    
C51   N10   T    
C40   H44   S    
C6    H2    S    
C15   H10   S    
C25   H32   S    
C7    C20   S    
C43   H48   S    
C17   C32   S    
C22   H28   S    
C53   N12   T    
C2    C28   S    
Cu3   O5    S    
C4    C30   S    
C26   C30   S    
C22   C38   S    
