data_mof_unit_53366.cif
_audit_creation_date              2012-12-10T18:05:52-0500
_audit_creation_method            fapswitch 2.2
_symmetry_space_group_name_H-M    P1
_symmetry_Int_Tables_number       1
_space_group_crystal_system       triclinic
_cell_length_a                    12.632526
_cell_length_b                    13.082587
_cell_length_c                    14.955494
_cell_angle_alpha                 90.814753
_cell_angle_beta                  102.528228
_cell_angle_gamma                 81.440413
_cell_volume                      2385.49253032

loop_
_atom_site_label
_atom_site_type_symbol
_atom_type_description
_atom_site_fract_x
_atom_site_fract_y
_atom_site_fract_z
_atom_type_partial_charge
C1    C     C_R   0.437828 0.691702 0.486537 0.950662
C2    C     C_R   0.596615 0.465603 0.110209 0.040851
C3    C     C_R   0.302814 0.566464 0.012484 -0.264642
C4    C     C_R   0.304356 0.575833 0.920486 -0.151631
C5    C     C_R   0.401690 0.544274 0.890151 0.096081
C6    C     C_R   0.498691 0.502927 0.953263 -0.083298
C7    C     C_R   0.596851 0.468448 0.923918 -0.011827
C8    C     C_R   0.694016 0.430754 0.988025 0.502622
C9    C     C_R   0.693950 0.433368 0.081155 -0.303868
C10   C     C_R   0.404332 0.555162 0.798263 0.393107
C11   C     C_R   0.499551 0.511587 0.768637 -0.185423
C12   C     C_R   0.499610 0.503749 0.672606 0.853581
C13   C     C_R   0.595349 0.471358 0.831002 -0.266080
C14   C     C_R   0.707522 0.055602 0.450900 -0.293791
C15   C     C_R   0.601168 0.197032 0.513016 -0.218565
C16   C     C_R   0.294087 0.842601 0.495870 0.443817
C17   C     C_R   0.265117 0.949883 0.499775 -0.289458
C18   C     C_R   0.340361 0.015092 0.492844 -0.119569
C19   C     C_R   0.445122 0.974805 0.478017 0.053830
C20   C     C_R   0.463575 0.870816 0.452360 -0.125369
C21   C     C_R   0.530520 0.035115 0.483938 0.044092
C22   C     C_R   0.623172 0.996644 0.447516 -0.024786
C23   C     C_R   0.562026 0.308211 0.511722 0.855224
C24   C     C_R   0.629871 0.900460 0.406486 -0.284214
C25   C     C_R   0.548268 0.839131 0.404752 0.523813
C26   C     C_R   0.529262 0.130489 0.528308 0.327084
C27   C     C_R   0.696289 0.157306 0.481917 0.406447
C28   C     C_R   0.395684 0.802581 0.474123 -0.164850
C29   C     C_R   0.085570 0.360242 0.359337 -0.248940
C30   C     C_R   0.797128 0.634307 0.605096 0.635976
C31   C     C_R   0.896927 0.672054 0.616108 -0.372500
C32   C     C_R   0.976003 0.624591 0.571386 -0.208902
C33   C     C_R   0.959083 0.535352 0.519235 0.002460
C34   C     C_R   0.499547 0.498802 0.327204 0.879472
C35   C     C_R   0.853760 0.505929 0.503107 0.107570
C36   C     C_R   0.040341 0.478325 0.478279 -0.198309
C37   C     C_R   0.008962 0.407011 0.408358 0.088992
C38   C     C_R   0.902457 0.382243 0.389339 0.405847
C39   C     C_R   0.827691 0.428978 0.439711 -0.235042
C40   C     C_R   0.152824 0.487906 0.504192 0.580190
C41   C     C_R   0.191675 0.382862 0.380973 -0.116418
C42   C     C_R   0.596384 0.466825 0.202685 -0.240105
C43   C     C_R   0.498338 0.496227 0.231125 -0.065144
C44   C     C_R   0.399672 0.525196 0.168055 -0.260503
C45   C     C_R   0.399348 0.529256 0.075542 0.137323
C46   C     C_R   0.498059 0.498480 0.046206 0.080552
H1    H     H_    0.672177 0.444525 0.252508 0.159209
H2    H     H_    0.697804 0.872897 0.374517 0.158330
H3    H     H_    0.779322 0.024472 0.425031 0.150936
H4    H     H_    0.313541 0.097113 0.496020 0.212607
H5    H     H_    0.185985 0.982980 0.512399 0.149307
H6    H     H_    0.250953 0.349441 0.342269 0.160221
H7    H     H_    0.063865 0.307512 0.304192 0.205376
H8    H     H_    0.324233 0.548770 0.191286 0.159223
H9    H     H_    0.048126 0.661121 0.576213 0.230317
H10   H     H_    0.912694 0.738873 0.657676 0.159047
H11   H     H_    0.748838 0.405205 0.427126 0.228556
H12   H     H_    0.226933 0.590885 0.034672 0.161702
H13   H     H_    0.228928 0.606901 0.873225 0.200129
H14   H     H_    0.668253 0.440950 0.806409 0.203375
H15   H     H_    0.769844 0.409186 0.130634 0.187827
N1    N     N_R   0.222190 0.444670 0.452360 -0.104984
N2    N     N_R   0.776970 0.554790 0.547140 -0.131287
O1    O     O_R   0.366740 0.627160 0.477250 -0.552920
O2    O     O_R   0.544830 0.662520 0.507680 -0.536651
O3    O     O_R   0.410940 0.482340 0.616930 -0.547932
O4    O     O_R   0.589030 0.517700 0.647360 -0.579006
O5    O     O_R   0.455170 0.337480 0.492320 -0.606737
O6    O     O_R   0.633260 0.372840 0.522750 -0.587238
O7    O     O_R   0.410970 0.482300 0.352640 -0.641881
O8    O     O_R   0.589060 0.517660 0.383070 -0.620632
Zn1   Zn    Zn3+2 0.381090 0.476390 0.479680 1.014348
Zn2   Zn    Zn3+2 0.618910 0.523610 0.520320 1.018589
O9    O     O_3   0.461384 0.156038 0.589049 -0.768376
H16   H     H_    0.487880 0.212205 0.629048 0.335527
O10   O     O_3   0.225457 0.776369 0.514196 -0.740834
H17   H     H_    0.158965 0.817386 0.528840 0.327072
O11   O     O_3   0.549829 0.749192 0.354652 -0.635732
C47   C     C_3   0.517793 0.773651 0.259705 0.053119
H18   H     H_    0.549158 0.705690 0.222555 0.186897
H19   H     H_    0.554882 0.839599 0.239605 0.132289
C48   C     C_3   0.392477 0.794800 0.228505 -0.383387
H20   H     H_    0.357049 0.727250 0.246724 0.226475
H21   H     H_    0.359155 0.863335 0.263983 0.218773
C49   C     C_3   0.357509 0.815544 0.125384 -0.915385
H22   H     H_    0.385341 0.887653 0.107318 0.263935
H23   H     H_    0.266738 0.824689 0.103943 0.265160
H24   H     H_    0.393187 0.750416 0.087594 0.275025
O12   O     O_3   0.874173 0.310120 0.323281 -0.805101
H25   H     H_    0.797214 0.299797 0.319582 0.335095
O13   O     O_3   0.197455 0.532245 0.584359 -0.704508
H26   H     H_    0.162371 0.509535 0.632396 0.336397
O14   O     O_3   0.716600 0.678699 0.648753 -0.733248
H27   H     H_    0.743549 0.735688 0.687395 0.310959
O15   O     O_3   0.315136 0.611356 0.740309 -0.748333
H28   H     H_    0.340620 0.642407 0.690234 0.371894
O16   O     O_3   0.791627 0.399146 0.960966 -0.641465
C50   C     C_3   0.800064 0.292865 0.939441 0.057128
H29   H     H_    0.846256 0.280744 0.883904 0.177869
H30   H     H_    0.719116 0.266663 0.912150 0.123146
C51   C     C_3   0.863836 0.226274 0.022830 -0.339590
H31   H     H_    0.943196 0.254375 0.050300 0.239953
H32   H     H_    0.815920 0.232466 0.077265 0.223411
C52   C     C_3   0.886211 0.112822 0.997793 -0.937619
H33   H     H_    0.807807 0.082782 0.971192 0.266096
H34   H     H_    0.931754 0.066637 0.059636 0.268588
H35   H     H_    0.936536 0.103693 0.945011 0.266004
O17   O     O_3   0.775824 0.218624 0.481184 -0.776460
H36   H     H_    0.838224 0.177430 0.460393 0.343039

loop_
_geom_bond_atom_site_label_1
_geom_bond_atom_site_label_2
_ccdc_geom_bond_type
C16   C28   A    
C21   C26   A    
O14   H27   S    
C23   O6    A    
C19   C20   A    
C41   H6    S    
C43   C44   A    
C17   H5    S    
C52   H34   S    
O16   C50   S    
C40   N1    A    
C7    C8    A    
C13   H14   S    
C49   H22   S    
C2    C46   A    
C38   O12   S    
C51   H31   S    
C9    H15   S    
C10   O15   S    
C36   C37   A    
C19   C21   A    
C30   O14   S    
C5    C6    A    
C14   H3    S    
C20   C25   A    
C39   H11   S    
C33   C36   A    
O2    Zn2   S    
O17   H36   S    
C18   C19   A    
C33   C35   A    
O3    Zn1   S    
O15   H28   S    
C8    C9    A    
C1    C28   S    
C1    O2    A    
O6    Zn2   S    
O4    Zn2   S    
C31   H10   S    
C34   O7    A    
C32   H9    S    
C15   C23   S    
C51   H32   S    
C30   N2    A    
C41   N1    A    
C52   H33   S    
C49   H23   S    
C12   O4    A    
O9    H16   S    
C25   O11   S    
C24   H2    S    
C36   C40   A    
C24   C25   A    
O13   H26   S    
O8    Zn2   S    
O11   C47   S    
C16   C17   A    
C15   C26   A    
C20   C28   A    
C45   C46   A    
C12   O3    A    
C3    C45   A    
C23   O5    A    
C35   C39   A    
C8    O16   S    
C37   C38   A    
C15   C27   A    
C31   C32   A    
C30   C31   A    
O5    Zn1   S    
C17   C18   A    
N1    Zn1   S    
O10   H17   S    
C48   H20   S    
C51   C52   S    
C48   H21   S    
C14   C27   A    
C22   C24   A    
C42   C43   A    
C3    C4    A    
C48   C49   S    
C1    O1    A    
C44   C45   A    
C18   H4    S    
C47   H19   S    
C49   H24   S    
C6    C46   A    
C29   C41   A    
C16   O10   S    
C34   C43   S    
C4    C5    A    
C47   C48   S    
O7    Zn1   S    
C11   C12   S    
C6    C7    A    
C50   C51   S    
N2    Zn2   S    
C50   H30   S    
C32   C33   A    
C14   C22   A    
C5    C10   A    
C11   C13   A    
C38   C39   A    
C29   H7    S    
C27   O17   S    
C2    C42   A    
C4    H13   S    
C26   O9    S    
C42   H1    S    
O1    Zn1   S    
C40   O13   S    
C10   C11   A    
C47   H18   S    
C3    H12   S    
C44   H8    S    
C7    C13   A    
C50   H29   S    
C29   C37   A    
C35   N2    A    
O12   H25   S    
C21   C22   A    
C2    C9    A    
C34   O8    A    
C52   H35   S    
