data_mof_unit_23708.cif
_audit_creation_date              2013-03-05T15:53:02-0500
_audit_creation_method            fapswitch 2.2
_symmetry_space_group_name_H-M    P1
_symmetry_Int_Tables_number       1
_space_group_crystal_system       triclinic
_cell_length_a                    8.461976
_cell_length_b                    17.37804
_cell_length_c                    19.176148
_cell_angle_alpha                 100.270297
_cell_angle_beta                  92.252879
_cell_angle_gamma                 96.395854
_cell_volume                      2752.39710195

loop_
_atom_site_label
_atom_site_type_symbol
_atom_site_description
_atom_site_fract_x
_atom_site_fract_y
_atom_site_fract_z
_atom_type_partial_charge
P1    P     P_3+3 0.048060 0.426210 0.336320 0.550840
O1    O     O_2   0.878040 0.448040 0.325130 -0.330199
O2    O     O_3   0.126800 0.453980 0.414370 -0.295638
O3    O     O_3   0.651020 0.589120 0.368830 -0.301742
O4    O     O_2   0.764648 0.536369 0.247776 -0.394177
O5    O     O_3   0.007155 0.324038 0.308041 -0.648136
O6    O     O_3   0.680685 0.677538 0.262842 -0.550141
H1    H     H_    0.486262 0.713497 0.317670 0.050329
C1    C     C_3   0.593743 0.807065 0.266542 0.366280
P2    P     P_3+3 0.655920 0.678120 0.556130 0.546297
P3    P     P_3+3 0.106045 0.733680 0.412665 0.569164
O7    O     O_2   0.830300 0.688050 0.534560 -0.305373
O8    O     O_3   0.068750 0.630380 0.404830 -0.337723
O9    O     O_2   0.981756 0.770493 0.460893 -0.338364
O10   O     O_3   0.674466 0.709256 0.648244 -0.579889
O11   O     O_3   0.060272 0.759761 0.330902 -0.495154
C2    C     C_3   0.087857 0.698700 0.275790 0.358529
H2    H     H_    0.006582 0.644501 0.277666 0.128291
H3    H     H_    0.212952 0.685825 0.279676 -0.013253
C3    C     C_3   0.054185 0.724667 0.205019 -0.465125
H4    H     H_    0.927650 0.734033 0.200371 0.259929
H5    H     H_    0.127887 0.781189 0.203207 0.288142
C4    C     C_3   0.300734 0.718523 0.673202 0.633305
H6    H     H_    0.376579 0.681322 0.639611 0.027767
C5    C     C_3   0.386958 0.748567 0.746617 -0.160512
H7    H     H_    0.430914 0.698443 0.766122 0.120712
H8    H     H_    0.494118 0.790490 0.743012 0.164431
Ba1   Ba    Ba6+2 0.849550 0.533890 0.465080 1.727313
C6    C     C_3   0.111958 0.273343 0.326957 0.500181
H9    H     H_    0.236764 0.300349 0.327577 0.096789
C7    C     C_3   0.076273 0.196804 0.268879 0.250201
H10   H     H_    0.945586 0.179420 0.267234 0.065157
C8    C     C_3   0.750127 0.656585 0.681130 0.285848
H11   H     H_    0.842283 0.630148 0.648618 0.131306
H12   H     H_    0.659623 0.609230 0.691519 0.112058
C9    C     C_3   0.830140 0.702162 0.751197 -0.649096
H13   H     H_    0.922987 0.748557 0.741072 0.283040
H14   H     H_    0.885947 0.662284 0.781152 0.215941
H15   H     H_    0.741307 0.731305 0.784130 0.269096
P4    P     P_3+3 0.141640 0.573850 0.663690 0.509968
O12   O     O_2   0.311660 0.551990 0.674910 -0.393389
O13   O     O_3   0.062910 0.546080 0.585630 -0.318185
O14   O     O_3   0.538690 0.410940 0.631180 -0.382378
O15   O     O_3   0.151209 0.677426 0.680890 -0.594197
P5    P     P_3+3 0.091630 0.267521 0.594002 0.578806
O16   O     O_3   0.620260 0.406250 0.463620 -0.386792
O17   O     O_3   0.120960 0.369680 0.595180 -0.327977
O18   O     O_2   0.210113 0.230440 0.542558 -0.291855
O19   O     O_3   0.161004 0.249612 0.675964 -0.474122
Ba2   Ba    Ba6+2 0.340280 0.466170 0.534930 1.685116
P6    P     P_3+3 0.626520 0.581287 0.277218 0.505082
C10   C     C_3   0.545758 0.718544 0.267587 0.089684
H16   H     H_    0.460440 0.693518 0.221520 0.070782
O20   O     O_3   0.569440 0.593820 0.536390 -0.351106
C11   C     C_3   0.596797 0.265199 0.307884 0.691883
C12   C     C_3   0.591531 0.190643 0.248092 -0.356792
H17   H     H_    0.682526 0.205101 0.210146 0.153986
P7    P     P_3+3 0.533544 0.304748 0.445309 0.486631
O21   O     O_2   0.359400 0.311980 0.465480 -0.258458
O22   O     O_3   0.483266 0.253610 0.357210 -0.584046
C13   C     C_3   0.046236 0.266161 0.725476 0.205840
H18   H     H_    0.031495 0.329996 0.733618 0.028892
H19   H     H_    0.930837 0.230028 0.706730 0.011158
C14   C     C_3   0.101452 0.244892 0.796326 0.040756
H20   H     H_    0.228493 0.269363 0.808983 0.129265
P8    P     P_3+3 0.558419 0.418231 0.721858 0.484119
C15   C     C_3   0.619265 0.276630 0.715067 0.346324
H21   H     H_    0.730397 0.300498 0.748051 -0.011628
O23   O     O_2   0.424765 0.465842 0.751690 -0.344119
O24   O     O_3   0.497459 0.322816 0.735463 -0.504856
H22   H     H_    0.640342 0.275419 0.658230 0.052853
H23   H     H_    0.658829 0.154358 0.699423 0.176905
C16   C     C_3   0.571228 0.192065 0.724647 -0.525654
H24   H     H_    0.452058 0.169762 0.697571 0.265679
C17   C     C_R   0.004299 0.456384 0.042405 0.021866
C18   C     C_R   0.912774 0.415387 0.086804 0.039718
C19   C     C_R   0.763725 0.375106 0.060257 -0.207013
C20   C     C_R   0.699406 0.378815 0.993486 0.008403
C21   C     C_R   0.785461 0.423590 0.949106 0.036680
C22   C     C_R   0.942078 0.458995 0.972420 -0.018532
C23   C     C_R   0.718249 0.435077 0.883173 -0.041488
C24   C     C_R   0.816306 0.465139 0.832841 -0.013218
C25   C     C_R   0.975870 0.497710 0.855062 -0.015166
C26   C     C_R   0.035420 0.497433 0.926301 0.019047
C27   C     C_R   0.761616 0.463431 0.760871 0.229493
C28   C     C_R   0.866019 0.492709 0.713433 -0.525291
C29   C     C_R   0.021895 0.528055 0.733748 0.204100
C30   C     C_R   0.075374 0.532227 0.807051 -0.049013
C31   C     C_R   0.158276 0.492945 0.067461 0.001750
C32   C     C_R   0.215351 0.493335 0.139341 -0.051850
C33   C     C_R   0.114175 0.458471 0.187299 0.009148
C34   C     C_R   0.969517 0.413966 0.157009 0.055534
H25   H     H_    0.691118 0.340366 0.091192 0.154887
H26   H     H_    0.822276 0.491370 0.659660 0.139849
C35   C     C_R   0.225043 0.570657 0.834477 -0.017892
C36   C     C_R   0.284040 0.571222 0.904651 -0.066201
C37   C     C_R   0.190653 0.533186 0.950744 -0.006554
C38   C     C_R   0.252793 0.530834 0.020958 -0.016754
C39   C     C_R   0.437137 0.608651 0.928936 0.359890
C40   C     C_R   0.502207 0.603814 0.996444 -0.137696
C41   C     C_R   0.411099 0.564013 0.043480 0.033853
C42   C     C_R   0.374222 0.527114 0.162215 -0.065675
C43   C     C_R   0.474702 0.554815 0.111383 0.005733
C44   C     C_R   0.427118 0.530843 0.234988 0.207369
C45   C     C_R   0.322929 0.499856 0.281249 -0.346351
C46   C     C_R   0.165686 0.466517 0.262028 0.189607
H27   H     H_    0.298036 0.599689 0.800504 0.166806
H28   H     H_    0.369259 0.497451 0.333389 0.226606
H29   H     H_    0.472258 0.139409 0.464071 0.194496
H30   H     H_    0.296312 0.893540 0.443122 0.189353
C47   C     C_R   0.402602 0.720716 0.477432 -0.023198
C48   C     C_R   0.554963 0.745950 0.509573 0.168603
C49   C     C_R   0.617196 0.825302 0.515342 -0.194764
C50   C     C_R   0.524258 0.878723 0.491135 0.044276
C51   C     C_R   0.369899 0.852287 0.460043 -0.139803
C52   C     C_R   0.309793 0.772621 0.451937 0.148420
C53   C     C_R   0.584051 0.164049 0.493261 -0.222383
C54   C     C_R   0.634993 0.244630 0.499965 0.171168
C55   C     C_R   0.884415 0.225842 0.560606 0.248352
C56   C     C_R   0.832171 0.145276 0.553349 -0.251249
C57   C     C_R   0.681252 0.114470 0.520491 0.059652
C58   C     C_1   0.629199 0.031053 0.510611 0.032446
C59   C     C_1   0.583003 0.961461 0.501734 0.062186
C60   C     C_R   0.783934 0.275614 0.535832 -0.267083
H31   H     H_    0.909950 0.106646 0.571787 0.169852
H32   H     H_    0.733417 0.846123 0.541932 0.186117
N1    N     N_R   0.281748 0.787166 0.796729 0.289881
O25   O     O_R   0.236329 0.854437 0.789086 -0.272088
O26   O     O_R   0.237775 0.756151 0.850858 -0.339089
N2    N     N_R   0.073343 0.256559 0.396906 0.220231
O27   O     O_R   0.018486 0.186297 0.406670 -0.412178
O28   O     O_R   0.067786 0.315380 0.448117 -0.378178
N3    N     N_R   0.113267 0.210969 0.197798 0.213823
O29   O     O_R   0.185866 0.277972 0.188236 -0.393091
O30   O     O_R   0.064612 0.157194 0.142527 -0.333171
N4    N     N_R   0.151819 0.128942 0.284047 0.237106
O31   O     O_R   0.102477 0.059190 0.247611 -0.288679
O32   O     O_R   0.258372 0.135240 0.336087 -0.370047
N5    N     N_3   0.678619 0.844221 0.334620 -0.223913
H33   H     H_    0.787946 0.822162 0.338666 0.189448
H34   H     H_    0.702487 0.904961 0.336385 0.154659
N6    N     N_R   0.449551 0.845278 0.257927 0.212982
O33   O     O_R   0.425911 0.878928 0.203550 -0.299751
O34   O     O_R   0.349167 0.851242 0.307554 -0.433571
N7    N     N_R   0.564848 0.334874 0.278384 0.198291
O35   O     O_R   0.506979 0.328365 0.213375 -0.447659
O36   O     O_R   0.566967 0.402087 0.320765 -0.391071
N8    N     N_3   0.754723 0.276054 0.341951 -0.210756
H35   H     H_    0.779101 0.331197 0.374588 0.164698
H36   H     H_    0.765924 0.232731 0.372605 0.103074
N9    N     N_3   0.434791 0.170654 0.209401 -0.110695
H37   H     H_    0.447326 0.175069 0.155824 0.195930
H38   H     H_    0.391931 0.111288 0.208192 0.208016
N10   N     N_3   0.639110 0.122974 0.277079 -0.201655
H39   H     H_    0.643275 0.075719 0.235083 0.192528
H40   H     H_    0.554312 0.105551 0.311540 0.201559
N11   N     N_R   0.695452 0.816086 0.207211 0.251605
O37   O     O_R   0.818818 0.869588 0.215563 -0.335609
O38   O     O_R   0.648345 0.779520 0.143257 -0.379774
N12   N     N_3   0.085288 0.665920 0.144517 -0.191979
H41   H     H_    0.205199 0.657177 0.148534 0.139337
H42   H     H_    0.015021 0.613106 0.146875 0.125020
N13   N     N_3   0.009284 0.279446 0.854427 -0.193812
H43   H     H_    0.887613 0.264589 0.840493 0.137553
H44   H     H_    0.033536 0.340615 0.861461 0.078214
N14   N     N_R   0.088227 0.159089 0.790556 0.271614
O39   O     O_R   0.174108 0.117899 0.746874 -0.344415
O40   O     O_R   0.993840 0.123204 0.829752 -0.323864
N15   N     N_3   0.570002 0.187473 0.799908 -0.174167
H45   H     H_    0.474594 0.215022 0.821316 0.170673
H46   H     H_    0.546130 0.128061 0.803664 0.209960
N16   N     N_3   0.548414 0.333285 0.971016 -0.234266
H47   H     H_    0.464775 0.352404 0.006944 0.140432
H48   H     H_    0.558638 0.274178 0.972573 0.147460
N17   N     N_3   0.548437 0.426810 0.871704 -0.151411
H49   H     H_    0.498191 0.454404 0.916873 0.112131
H50   H     H_    0.503389 0.367416 0.860478 0.156615
N18   N     N_3   0.881513 0.363743 0.196276 -0.146894
H51   H     H_    0.868075 0.305820 0.168151 0.143874
H52   H     H_    0.771408 0.384100 0.202941 0.194345
N19   N     N_R   0.533272 0.648575 0.883524 0.208116
O41   O     O_R   0.566776 0.724813 0.898232 -0.365972
O42   O     O_R   0.605546 0.607859 0.833784 -0.478912
N20   N     N_3   0.663069 0.639117 0.015734 -0.200779
H53   H     H_    0.738181 0.613487 0.978617 0.146126
H54   H     H_    0.670841 0.699415 0.015325 0.241826
N21   N     N_3   0.643512 0.564209 0.125909 -0.168421
H55   H     H_    0.688500 0.623674 0.134495 0.188923
H56   H     H_    0.697667 0.531923 0.084271 0.120374
N22   N     N_R   0.330372 0.644891 0.481889 0.242927
O43   O     O_R   0.355003 0.584953 0.434780 -0.393984
O44   O     O_R   0.217251 0.638459 0.524622 -0.328484
N23   N     N_3   0.839264 0.357676 0.545759 -0.164770
H57   H     H_    0.860918 0.374848 0.497527 0.198252
H58   H     H_    0.757189 0.390169 0.571421 0.137793
N24   N     N_R   0.275731 0.785959 0.639495 0.226271
O45   O     O_R   0.394486 0.838704 0.634614 -0.429583
O46   O     O_R   0.133515 0.796046 0.617203 -0.311672

loop_
_geom_bond_atom_site_label_1
_geom_bond_atom_site_label_2
_geom_bond_distance
_ccdc_geom_bond_type
C19   C20   1.386470 A    
C11   C12   1.564839 S    
N22   O43   1.293102 A    
C35   C36   1.414743 A    
N5    H34   1.046581 S    
N15   H45   1.044804 S    
N20   H53   1.046214 S    
N13   H43   1.045289 S    
C7    N3    1.467153 S    
C2    C3    1.530736 S    
P8    C27   1.876589 S    
N7    O35   1.302323 A    
C11   N8    1.442040 S    
H29   C53   1.083620 S    
N17   H50   1.040970 S    
P8    O24   1.748653 S    
C55   C60   1.405478 A    
C10   H16   1.110693 S    
Ba1   O16   2.774921 S    
N11   O37   1.302833 A    
O7    Ba1   2.796473 S    
C26   C37   1.413192 A    
C23   N17   1.432378 S    
P4    C29   1.942552 S    
C9    H13   1.109827 S    
N13   H44   1.043241 S    
N8    H36   1.044341 S    
O6    C10   1.409249 S    
P2    O10   1.748153 S    
C27   C28   1.412419 A    
N16   H47   1.046439 S    
C8    H12   1.110622 S    
P3    O9    1.544698 D    
C11   N7    1.471174 S    
P8    O23   1.543212 D    
P7    O22   1.774465 S    
C51   C52   1.399884 A    
C36   C39   1.405377 A    
P7    C54   1.856471 S    
C8    C9    1.523347 S    
C12   H17   1.118777 S    
C29   C30   1.446483 A    
C2    H2    1.109559 S    
P1    O1    1.544728 D    
C16   H24   1.112071 S    
C19   H25   1.080549 S    
C13   H19   1.110123 S    
C53   C57   1.405729 A    
C32   C42   1.424888 A    
C14   N14   1.466676 S    
C28   H26   1.077202 S    
N7    O36   1.296445 A    
C1    N5    1.469485 S    
Ba1   Ba2   4.651482 S    
C7    H10   1.111140 S    
O11   C2    1.404301 S    
N23   H58   1.028844 S    
C4    N24   1.466464 S    
P1    Ba1   3.434925 S    
N9    H37   1.052407 S    
O8    Ba1   2.784496 S    
P2    C48   1.859038 S    
C47   C52   1.397956 A    
C15   C16   1.525682 S    
P5    O19   1.747672 S    
C17   C22   1.432428 A    
H1    C10   1.114324 S    
N10   H40   1.050461 S    
C22   C26   1.414292 A    
P1    C46   1.955233 S    
P5    C55   1.863514 S    
P4    O13   1.584229 S    
C25   C30   1.435874 A    
C30   C35   1.400201 A    
N11   O38   1.301535 A    
C11   O22   1.398011 S    
O16   P7    1.801000 S    
N14   O40   1.301961 A    
N15   H46   1.045546 S    
C33   C46   1.459079 A    
C42   C43   1.430433 A    
C1    C10   1.550555 S    
C14   N13   1.464343 S    
P2    O20   1.538369 S    
P2    O7    1.547568 D    
C44   C45   1.407231 A    
O3    Ba1   2.810198 S    
O2    Ba2   2.839846 S    
N16   H48   1.045930 S    
C37   C38   1.435202 A    
O17   Ba2   2.785122 S    
C58   C59   1.208476 T    
P5    O17   1.760954 S    
C45   H28   1.069043 S    
O19   C13   1.401657 S    
O3    P6    1.739980 S    
C15   H21   1.108706 S    
N18   H51   1.045527 S    
C43   N21   1.430141 S    
N8    H35   1.041397 S    
C12   N10   1.474765 S    
N19   O42   1.298486 A    
C33   C34   1.416669 A    
C21   C23   1.421492 A    
Ba1   O20   2.978222 S    
C20   C21   1.420764 A    
N24   O45   1.300597 A    
C54   C60   1.414220 A    
C49   H32   1.083337 S    
P7    O21   1.551014 D    
N19   O41   1.300776 A    
C23   C24   1.427999 A    
C4    O15   1.408402 S    
P1    O5    1.752549 S    
P1    O2    1.584091 S    
N12   H42   1.045603 S    
C60   N23   1.427087 S    
C13   C14   1.538973 S    
N2    O28   1.291462 A    
C17   C18   1.406232 A    
N1    O26   1.300588 A    
C6    H9    1.105591 S    
C7    N4    1.469587 S    
P3    O11   1.748867 S    
C25   C26   1.438386 A    
C1    N11   1.473182 S    
C55   C56   1.401006 A    
C36   C37   1.410505 A    
O5    C6    1.398901 S    
C20   N16   1.433215 S    
C8    H11   1.106253 S    
N10   H39   1.047385 S    
Ba2   O20   2.774377 S    
C18   C19   1.402016 A    
C12   N9    1.469140 S    
C42   C44   1.436724 A    
P3    C52   1.858468 S    
C57   C58   1.443810 S    
C35   H27   1.067665 S    
O13   Ba2   2.967603 S    
C50   C59   1.443719 S    
C34   N18   1.420172 S    
N4    O32   1.299670 A    
P4    O12   1.545009 D    
C18   C34   1.416777 A    
N23   H57   1.038082 S    
N3    O29   1.300941 A    
N6    O34   1.298439 A    
Ba2   O21   2.796551 S    
C16   N15   1.459924 S    
N1    O25   1.300995 A    
C24   C27   1.432434 A    
O12   Ba2   2.862219 S    
C56   C57   1.406639 A    
N5    H33   1.045375 S    
C49   C50   1.408345 A    
P5    O18   1.545544 D    
P2    Ba1   3.405106 S    
O2    Ba1   2.966788 S    
N22   O44   1.292580 A    
P6    C44   1.892423 S    
C47   C48   1.396269 A    
C28   C29   1.400946 A    
C9    H15   1.108360 S    
O4    P6    1.546689 D    
C3    H5    1.110126 S    
H23   C16   1.111855 S    
N18   H52   1.037414 S    
C1    N6    1.469969 S    
O14   Ba2   2.809576 S    
C50   C51   1.407153 A    
C5    H8    1.110631 S    
C38   C41   1.416718 A    
C45   C46   1.398400 A    
O16   Ba2   2.977222 S    
C15   H22   1.108208 S    
C39   C40   1.406834 A    
C31   C38   1.420066 A    
C15   O24   1.401287 S    
C14   H20   1.111876 S    
C9    H14   1.107583 S    
N2    O27   1.305181 A    
C5    H7    1.101996 S    
O6    P6    1.757091 S    
N21   H55   1.042437 S    
C6    C7    1.567337 S    
N17   H49   1.042701 S    
C53   C54   1.400085 A    
N12   H41   1.044500 S    
P3    O8    1.765960 S    
C32   C33   1.445981 A    
N14   O39   1.300808 A    
O14   P8    1.720896 S    
P4    Ba2   3.435563 S    
Ba1   O13   2.839093 S    
C40   C41   1.429911 A    
C2    H3    1.108446 S    
N20   H54   1.044030 S    
C48   C49   1.403697 A    
N9    H38   1.050657 S    
C56   H31   1.083355 S    
C5    N1    1.461657 S    
C13   H18   1.114062 S    
C40   N20   1.435112 S    
N21   H56   1.043360 S    
N24   O46   1.301910 A    
C17   C31   1.410563 A    
C4    H6    1.105075 S    
C21   C22   1.417209 A    
C6    N2    1.464187 S    
P4    O15   1.763208 S    
C4    C5    1.535956 S    
C3    H4    1.103370 S    
C47   N22   1.407843 S    
C41   C43   1.431429 A    
C24   C25   1.422517 A    
C3    N12   1.455715 S    
N3    O30   1.301139 A    
N6    O33   1.302454 A    
N4    O31   1.301590 A    
C39   N19   1.430683 S    
O1    Ba1   2.861720 S    
C31   C32   1.441115 A    
H30   C51   1.083276 S    
O10   C8    1.396433 S    
