data_mof_unit_55159.cif
_audit_creation_date              2012-12-10T17:44:26-0500
_audit_creation_method            fapswitch 2.2
_symmetry_space_group_name_H-M    P1
_symmetry_Int_Tables_number       1
_space_group_crystal_system       triclinic
_cell_length_a                    13.863834
_cell_length_b                    14.998242
_cell_length_c                    17.373977
_cell_angle_alpha                 87.63733
_cell_angle_beta                  87.261824
_cell_angle_gamma                 89.876347
_cell_volume                      3605.43324397

loop_
_atom_site_label
_atom_site_type_symbol
_atom_type_description
_atom_site_fract_x
_atom_site_fract_y
_atom_site_fract_z
_atom_type_partial_charge
C1    C     C_R   0.499924 0.670640 0.498801 0.774280
C2    C     C_R   0.500077 0.329333 0.500568 0.782982
C3    C     C_R   0.486257 0.183625 0.570125 0.186680
C4    C     C_R   0.511343 0.816006 0.428333 0.197729
C5    C     C_R   0.501181 0.232800 0.500405 -0.118177
C6    C     C_R   0.498573 0.767108 0.498447 -0.125302
C7    C     C_R   0.518603 0.191199 0.430475 0.147607
C8    C     C_R   0.481382 0.808916 0.568250 0.176093
C9    C     C_R   0.522922 0.097319 0.429633 -0.009297
C10   C     C_R   0.475690 0.902614 0.568699 0.006330
C11   C     C_R   0.502173 0.046868 0.499643 -0.105073
C12   C     C_R   0.496236 0.953006 0.498709 -0.102246
C13   C     C_R   0.491401 0.089842 0.571050 -0.006557
C14   C     C_R   0.506338 0.909908 0.427362 0.006647
C15   C     C_R   0.542115 0.052151 0.360394 0.333070
C16   C     C_R   0.455137 0.947554 0.637690 0.329923
C17   C     C_R   0.516070 0.962198 0.357640 0.318598
C18   C     C_R   0.480463 0.037561 0.640795 0.331238
C19   C     C_R   0.203301 0.577937 0.485705 0.430347
C20   C     C_R   0.796562 0.422407 0.517250 0.531113
C21   C     C_R   0.203953 0.422600 0.516014 0.349365
C22   C     C_R   0.796930 0.577418 0.483172 0.293564
C23   C     C_R   0.488627 0.500059 0.649707 0.842266
C24   C     C_R   0.511361 0.499152 0.350276 0.836602
C25   C     C_R   0.103540 0.419218 0.500117 -0.140077
C26   C     C_R   0.897309 0.581399 0.499157 -0.091098
C27   C     C_R   0.051275 0.499601 0.501671 -0.043477
C28   C     C_R   0.949090 0.500480 0.500448 -0.072023
C29   C     C_R   0.102051 0.579331 0.504580 -0.148989
C30   C     C_R   0.898382 0.420202 0.500073 -0.099129
C31   C     C_R   0.053954 0.339942 0.483453 0.355984
C32   C     C_R   0.947994 0.661920 0.513173 0.347725
C33   C     C_R   0.950874 0.340395 0.485596 0.095436
C34   C     C_R   0.049907 0.658369 0.521467 0.114112
C35   C     C_R   0.487321 0.495836 0.734304 -0.035384
C36   C     C_R   0.512830 0.500160 0.265631 -0.059052
C37   C     C_R   0.562940 0.536614 0.772103 0.065293
C38   C     C_R   0.435021 0.461548 0.228777 0.096608
C39   C     C_R   0.569728 0.522875 0.852165 0.150781
C40   C     C_R   0.429169 0.471751 0.148718 0.143769
C41   C     C_R   0.499921 0.470451 0.893916 0.119871
C42   C     C_R   0.503352 0.517289 0.105101 0.054879
C43   C     C_R   0.425091 0.431074 0.856770 -0.244366
C44   C     C_R   0.580539 0.554188 0.141267 -0.184609
C45   C     C_R   0.417800 0.443616 0.777353 0.101752
C46   C     C_R   0.586041 0.546119 0.221108 0.101215
C47   C     C_2   0.501980 0.458015 0.977449 -0.159500
C48   C     C_2   0.501782 0.528734 0.021527 -0.166977
Cu1   Cu    Cu3+1 0.402580 0.500010 0.500000 1.024349
Cu2   Cu    Cu3+1 0.597420 0.499990 0.500000 1.020763
H1    H     H_    0.505824 0.596012 0.995797 0.189241
H2    H     H_    0.499489 0.390606 0.002797 0.159372
H3    H     H_    0.371631 0.390743 0.889738 0.163675
H4    H     H_    0.636777 0.589943 0.107256 0.173907
N1    N     N_R   0.256180 0.500070 0.500030 -0.253242
N2    N     N_R   0.743820 0.499930 0.499970 -0.269756
O1    O     O_R   0.417720 0.629750 0.499980 -0.515005
O2    O     O_R   0.582280 0.370250 0.500020 -0.517179
O3    O     O_R   0.582260 0.629730 0.499990 -0.617775
O4    O     O_R   0.417740 0.370270 0.500010 -0.560627
O5    O     O_R   0.408190 0.500030 0.613590 -0.600689
O6    O     O_R   0.591810 0.499970 0.386410 -0.594632
O7    O     O_R   0.572730 0.500000 0.613600 -0.499511
O8    O     O_R   0.427270 0.500000 0.386400 -0.519200
N3    N     N_3   0.632515 0.591797 0.728829 -0.555514
H5    H     H_    0.701102 0.563874 0.734295 0.253747
H6    H     H_    0.631880 0.655244 0.751540 0.241012
N4    N     N_3   0.361826 0.411375 0.272827 -0.536646
H7    H     H_    0.295062 0.442060 0.264814 0.259148
H8    H     H_    0.359249 0.347301 0.251463 0.263806
S1    S     S_3+6 0.243527 0.666012 0.418510 0.065072
O9    O     O_2   0.158174 0.701981 0.376768 -0.263560
O10   O     O_2   0.285471 0.742139 0.459404 -0.228408
O11   O     O_3   0.324557 0.632275 0.351309 -0.511834
H9    H     H_    0.286447 0.600846 0.313981 0.350742
S2    S     S_3+6 0.753456 0.334230 0.583226 0.063372
O12   O     O_2   0.715701 0.258059 0.539848 -0.241089
O13   O     O_2   0.836959 0.299990 0.628195 -0.276305
O14   O     O_3   0.668562 0.366484 0.647906 -0.531456
H10   H     H_    0.668169 0.320227 0.690280 0.383158
N5    N     N_3   0.246260 0.350506 0.559385 -0.481419
H11   H     H_    0.192088 0.310837 0.586907 0.232048
H12   H     H_    0.279224 0.378923 0.605097 0.229698
N6    N     N_3   0.761532 0.644962 0.431304 -0.525359
H13   H     H_    0.724503 0.693676 0.461564 0.300559
H14   H     H_    0.715865 0.616190 0.393583 0.256976
S3    S     S_3+6 0.119502 0.244406 0.450868 0.021155
O15   O     O_2   0.124053 0.176574 0.516756 -0.259506
O16   O     O_2   0.070493 0.203039 0.385832 -0.248767
O17   O     O_3   0.232347 0.272174 0.418596 -0.508716
H15   H     H_    0.268461 0.215129 0.417671 0.381776
S4    S     S_3+6 0.884414 0.764699 0.528069 0.052596
O18   O     O_2   0.794269 0.746209 0.577680 -0.280453
O19   O     O_2   0.942316 0.833104 0.566601 -0.199046
O20   O     O_3   0.854155 0.809834 0.442318 -0.478568
H16   H     H_    0.915849 0.814895 0.411243 0.380442
N7    N     N_3   0.898343 0.262256 0.467620 -0.459556
H17   H     H_    0.906755 0.252430 0.408562 0.275587
H18   H     H_    0.923737 0.206891 0.499111 0.310936
N8    N     N_3   0.097906 0.730914 0.555777 -0.421702
H19   H     H_    0.169204 0.714506 0.566653 0.243538
H20   H     H_    0.067073 0.735248 0.611593 0.238975
N9    N     N_3   0.664392 0.587584 0.256699 -0.587963
H21   H     H_    0.663609 0.655763 0.241487 0.250698
H22   H     H_    0.728961 0.560905 0.234118 0.244047
N10   N     N_3   0.341434 0.400628 0.740536 -0.603152
H23   H     H_    0.275763 0.423641 0.764311 0.236276
H24   H     H_    0.345511 0.332097 0.753654 0.247759
N11   N     N_3   0.344883 0.439414 0.113799 -0.582280
H25   H     H_    0.363999 0.386165 0.079431 0.232169
H26   H     H_    0.316112 0.490823 0.079457 0.242417
N12   N     N_3   0.648499 0.559561 0.891320 -0.581019
H27   H     H_    0.713384 0.535298 0.867227 0.238172
H28   H     H_    0.647491 0.629004 0.883497 0.235202
N13   N     N_3   0.454174 0.228553 0.638069 -0.499852
H29   H     H_    0.387496 0.258112 0.628249 0.229242
H30   H     H_    0.503544 0.278421 0.648994 0.246472
N14   N     N_3   0.539875 0.770568 0.359724 -0.494059
H31   H     H_    0.488758 0.721683 0.350122 0.272977
H32   H     H_    0.606243 0.739499 0.367719 0.210202
N15   N     N_3   0.519135 0.244234 0.359724 -0.493924
H33   H     H_    0.574308 0.291654 0.359722 0.244132
H34   H     H_    0.453095 0.277597 0.356902 0.225286
N16   N     N_3   0.482365 0.756511 0.639283 -0.496507
H35   H     H_    0.549050 0.724233 0.641719 0.234038
H36   H     H_    0.428070 0.708174 0.639936 0.237027
S5    S     S_3+6 0.618584 0.098721 0.283384 0.099414
O21   O     O_2   0.692568 0.158530 0.315222 -0.267177
O22   O     O_2   0.670651 0.025874 0.241429 -0.194205
O23   O     O_3   0.552382 0.158023 0.220727 -0.468539
H37   H     H_    0.600182 0.187444 0.183883 0.375506
S6    S     S_3+6 0.375746 0.900900 0.712656 0.097043
O24   O     O_2   0.432573 0.849450 0.771216 -0.227600
O25   O     O_2   0.320248 0.973680 0.751994 -0.188873
O26   O     O_3   0.296294 0.832368 0.674796 -0.522527
H38   H     H_    0.260177 0.803800 0.719779 0.372390
S7    S     S_3+6 0.471722 0.924420 0.269818 0.103376
O27   O     O_2   0.435857 0.002007 0.221669 -0.194695
O28   O     O_2   0.550746 0.877870 0.224744 -0.229124
O29   O     O_3   0.379124 0.853487 0.289731 -0.462000
H39   H     H_    0.367120 0.826215 0.240119 0.386194
S8    S     S_3+6 0.520588 0.075925 0.729885 0.099754
O30   O     O_2   0.553873 0.998670 0.779709 -0.193488
O31   O     O_2   0.603946 0.139137 0.714261 -0.264095
O32   O     O_3   0.430023 0.128527 0.777407 -0.470991
H40   H     H_    0.460848 0.157967 0.819928 0.371629

loop_
_geom_bond_atom_site_label_1
_geom_bond_atom_site_label_2
_ccdc_geom_bond_type
C25   C31   A    
S3    O15   D    
C26   C32   A    
C27   C29   A    
C19   S1    S    
O20   H16   S    
S8    O32   S    
S2    O14   S    
C20   N2    A    
N12   H28   S    
N5    H11   S    
O26   H38   S    
C39   C41   A    
C20   C30   A    
S7    O28   D    
C24   C36   S    
Cu1   O4    S    
C13   C18   A    
Cu2   O3    S    
N16   H36   S    
C17   S7    S    
C35   C37   A    
S2    O13   D    
C1    O3    A    
C2    O4    A    
C23   O7    A    
N10   H23   S    
N13   H29   S    
N7    H17   S    
Cu1   O1    S    
C20   S2    S    
C7    C9    A    
N14   H31   S    
N8    H19   S    
N5    H12   S    
N4    H7    S    
N6    H13   S    
C43   H3    S    
C48   H1    S    
S6    O24   D    
N3    H6    S    
C37   N3    S    
C34   N8    S    
C31   C33   A    
C36   C46   A    
C3    C13   A    
C40   C42   A    
C24   O8    A    
Cu1   O8    S    
C15   S5    S    
C4    C14   A    
Cu2   O7    S    
C41   C43   A    
C14   C17   A    
C4    N14   S    
C42   C44   A    
C7    N15   S    
N8    H20   S    
N12   H27   S    
N7    H18   S    
C44   C46   A    
O32   H40   S    
S7    O29   S    
Cu1   O5    S    
O11   H9    S    
C1    C6    S    
Cu2   O2    S    
C18   S8    S    
C31   S3    S    
S2    O12   D    
C4    C6    A    
C5    C7    A    
C8    N16   S    
C22   N2    A    
N13   H30   S    
Cu1   N1    S    
C29   C34   A    
S4    O20   S    
Cu2   N2    S    
C22   N6    S    
S5    O22   D    
C1    O1    A    
C43   C45   A    
C47   C48   D    
S4    O19   D    
C41   C47   S    
N9    H22   S    
C16   C18   A    
C42   C48   S    
O29   H39   S    
C9    C11   A    
N15   H33   S    
C47   H2    S    
C10   C12   A    
N4    H8    S    
C39   N12   S    
C21   N5    S    
Cu1   Cu2   S    
C23   C35   S    
S3    O16   D    
Cu2   O6    S    
S8    O31   D    
C2    C5    S    
S5    O21   D    
C19   C29   A    
N9    H21   S    
C45   N10   S    
C21   N1    A    
C46   N9    S    
C19   N1    A    
C15   C17   A    
C21   C25   A    
C24   O6    A    
C30   C33   A    
C8    C10   A    
C38   N4    S    
C3    C5    A    
S1    O11   S    
C6    C8    A    
C11   C12   A    
C2    O2    A    
C40   N11   S    
C25   C27   A    
S7    O27   D    
C26   C28   A    
N11   H26   S    
O23   H37   S    
C12   C14   A    
S5    O23   S    
S1    O9    D    
C37   C39   A    
C10   C16   A    
N11   H25   S    
C36   C38   A    
C38   C40   A    
C11   C13   A    
O17   H15   S    
C32   S4    S    
N10   H24   S    
S6    O26   S    
C28   C30   A    
S4    O18   D    
C33   N7    S    
C9    C15   A    
C16   S6    S    
N14   H32   S    
N15   H34   S    
O14   H10   S    
C44   H4    S    
C23   O5    A    
S6    O25   D    
N3    H5    S    
C22   C26   A    
S3    O17   S    
S1    O10   D    
C27   C28   A    
S8    O30   D    
N6    H14   S    
C3    N13   S    
C32   C34   A    
N16   H35   S    
C35   C45   A    
