data_mof_unit_40311.cif
_audit_creation_date              2012-12-10T19:02:42-0500
_audit_creation_method            fapswitch 2.2
_symmetry_space_group_name_H-M    P1
_symmetry_Int_Tables_number       1
_space_group_crystal_system       triclinic
_cell_length_a                    9.593113
_cell_length_b                    10.804293
_cell_length_c                    13.894057
_cell_angle_alpha                 91.602781
_cell_angle_beta                  85.585501
_cell_angle_gamma                 90.757917
_cell_volume                      1435.15197721

loop_
_atom_site_label
_atom_site_type_symbol
_atom_type_description
_atom_site_fract_x
_atom_site_fract_y
_atom_site_fract_z
_atom_type_partial_charge
C1    C     C_R   0.501278 0.737161 0.498225 0.803326
C2    C     C_1   0.467813 0.506837 0.785552 -0.153518
C3    C     C_R   0.424180 0.936670 0.567938 -0.134508
C4    C     C_R   0.506012 0.870469 0.497601 -0.074929
C5    C     C_R   0.602916 0.936341 0.434937 0.073748
C6    C     C_R   0.598934 0.066300 0.437246 -0.128684
C7    C     C_R   0.501063 0.129759 0.500077 -0.004411
C8    C     C_R   0.421912 0.063477 0.569619 -0.184138
C9    C     C_3   0.272828 0.067796 0.609771 0.358667
C10   C     C_3   0.275145 0.926718 0.606785 1.103494
C11   C     C_R   0.934502 0.448524 0.424409 0.039181
C12   C     C_R   0.478220 0.500953 0.682707 0.834671
C13   C     C_R   0.921674 0.567030 0.568679 0.038171
C14   C     C_R   0.070302 0.565162 0.567889 0.718314
C15   C     C_R   0.081131 0.451557 0.423061 0.019171
C16   C     C_3   0.092971 0.324262 0.379832 0.383327
C17   C     C_3   0.934075 0.318305 0.385576 0.354958
C18   C     C_R   0.499338 0.262778 0.500377 0.802230
C19   C     C_R   0.521875 0.498060 0.317332 0.790836
C20   C     C_1   0.533742 0.487904 0.214664 -0.125434
C21   C     C_2   0.556402 0.464153 0.024675 -0.051206
C22   C     C_2   0.462423 0.522891 0.975388 0.618105
C23   C     C_1   0.463415 0.513726 0.872088 -0.069371
C24   C     C_1   0.544222 0.477032 0.128262 0.107310
Cu1   Cu    Cu3+1 0.359330 0.500020 0.500000 1.077012
Cu2   Cu    Cu3+1 0.640670 0.499980 0.500000 0.966044
H1    H     H_    0.142730 0.257710 0.425012 0.212531
H2    H     H_    0.888136 0.307646 0.314735 0.099194
H3    H     H_    0.667825 0.117618 0.386855 0.171962
H4    H     H_    0.259608 0.110464 0.683576 0.074813
N1    N     N_R   0.852140 0.499070 0.499400 -0.184768
N2    N     N_R   0.148050 0.499110 0.499400 -0.261572
O1    O     O_R   0.381190 0.680360 0.500000 -0.494366
O2    O     O_R   0.618770 0.680320 0.499990 -0.626691
O3    O     O_R   0.364410 0.500000 0.637850 -0.506558
O4    O     O_R   0.602000 0.499960 0.637840 -0.603228
O5    O     O_R   0.381230 0.319680 0.500010 -0.565426
O6    O     O_R   0.618810 0.319640 0.500000 -0.522018
O7    O     O_R   0.398000 0.500040 0.362160 -0.530055
O8    O     O_R   0.635590 0.500000 0.362150 -0.604699
F1    F     F_    0.361903 0.593947 0.023268 -0.631804
F2    F     F_    0.136866 0.632613 0.634625 -0.602667
F3    F     F_    0.150871 0.326087 0.285506 -0.654962
F4    F     F_    0.882083 0.235691 0.454108 -0.647437
C25   C     C_3   0.670359 0.381144 0.977314 -0.495964
C26   C     C_3   0.814735 0.415001 0.011943 -0.330504
C27   C     C_3   0.930650 0.343303 0.954276 -0.744113
H5    H     H_    0.912791 0.242072 0.961419 0.255615
H6    H     H_    0.934266 0.366794 0.876778 0.244420
H7    H     H_    0.033093 0.368192 0.982104 0.267208
H8    H     H_    0.835880 0.515627 0.004429 0.228635
H9    H     H_    0.817157 0.393088 0.089514 0.228373
H10   H     H_    0.644381 0.283794 0.996181 0.223884
H11   H     H_    0.676062 0.385571 0.897390 0.208290
C28   C     C_3   0.704974 0.872903 0.361460 -0.427911
C29   C     C_3   0.849679 0.864664 0.400757 -0.262909
C30   C     C_3   0.949302 0.787791 0.333039 -0.751131
H12   H     H_    0.907486 0.692098 0.324340 0.244411
H13   H     H_    0.963744 0.830731 0.261200 0.256530
H14   H     H_    0.052535 0.782983 0.363775 0.279240
H15   H     H_    0.894620 0.959335 0.409564 0.273476
H16   H     H_    0.840669 0.821616 0.472644 0.236626
H17   H     H_    0.666156 0.779425 0.340665 0.206308
H18   H     H_    0.714033 0.925967 0.293753 0.195657
F5    F     F_    0.184903 0.114058 0.545696 -0.630081
F6    F     F_    0.260502 0.875656 0.697277 -0.654487
F7    F     F_    0.188342 0.872941 0.541813 -0.620097
C31   C     C_3   0.849537 0.653082 0.644473 -0.318374
C32   C     C_3   0.850061 0.603788 0.747171 -0.338588
C33   C     C_3   0.778416 0.694999 0.820429 -0.792479
H19   H     H_    0.837915 0.783867 0.821397 0.276586
H20   H     H_    0.670075 0.713157 0.802051 0.255288
H21   H     H_    0.773591 0.656371 0.893593 0.239279
H22   H     H_    0.795101 0.512868 0.751818 0.225860
H23   H     H_    0.958634 0.590039 0.766848 0.270548
H24   H     H_    0.904713 0.744321 0.641829 0.228027
H25   H     H_    0.742663 0.674890 0.630331 0.237763

loop_
_geom_bond_atom_site_label_1
_geom_bond_atom_site_label_2
_ccdc_geom_bond_type
C8    C9    S    
C28   C29   S    
C19   C20   S    
C2    C12   S    
C1    O1    A    
C7    C8    A    
C27   H6    S    
C10   F7    S    
C18   O5    A    
C5    C6    A    
C30   H13   S    
C22   F1    S    
C15   C16   S    
C26   H9    S    
C29   C30   S    
Cu1   O5    S    
C31   C32   S    
C11   C15   A    
Cu2   O2    S    
C20   C24   T    
C16   C17   S    
C28   H17   S    
C33   H19   S    
C12   O4    A    
C9    C10   S    
C14   F2    S    
Cu1   N2    S    
C11   N1    A    
Cu2   N1    S    
C21   C22   D    
C13   N1    A    
C1    O2    A    
C27   H7    S    
C21   C25   S    
C10   F6    S    
C15   N2    A    
C3    C8    A    
Cu2   O6    S    
C30   H14   S    
Cu1   Cu2   S    
C25   C26   S    
C26   H8    S    
C27   H5    S    
C7    C18   S    
C28   H18   S    
C33   H21   S    
C32   H22   S    
C12   O3    A    
C16   F3    S    
C19   O7    A    
C9    H4    S    
Cu1   O3    S    
Cu2   O4    S    
C25   H11   S    
C29   H16   S    
C3    C4    A    
C31   H25   S    
C26   C27   S    
C11   C17   S    
C22   C23   S    
C17   H2    S    
C5    C28   S    
C14   N2    A    
C4    C5    A    
C6    C7    A    
C31   H24   S    
C1    C4    S    
C18   O6    A    
C17   F4    S    
C3    C10   S    
Cu1   O7    S    
Cu2   O8    S    
C30   H12   S    
C16   H1    S    
C32   H23   S    
C32   C33   S    
C9    F5    S    
C19   O8    A    
C25   H10   S    
C6    H3    S    
C21   C24   S    
C2    C23   T    
C29   H15   S    
C33   H20   S    
C13   C14   A    
Cu1   O1    S    
C13   C31   S    
