data_mof_unit_8774.cif
_audit_creation_date              2012-10-26T21:14:51-0400
_audit_creation_method            fapswitch 2.2
_symmetry_space_group_name_H-M    P1
_symmetry_Int_Tables_number       1
_space_group_crystal_system       triclinic
_cell_length_a                    15.07873
_cell_length_b                    10.826463
_cell_length_c                    13.674389
_cell_angle_alpha                 90.414179
_cell_angle_beta                  89.884943
_cell_angle_gamma                 89.779383
_cell_volume                      2232.25510172

loop_
_atom_site_label
_atom_site_type_symbol
_atom_type_description
_atom_site_fract_x
_atom_site_fract_y
_atom_site_fract_z
_atom_type_partial_charge
C1    C     C_R   0.497732 0.262097 0.499478 0.541401
C2    C     C_R   0.581228 0.880658 0.666413 0.061315
C3    C     C_R   0.452579 0.096677 0.237219 0.301416
C4    C     C_R   0.545710 0.893970 0.761597 0.303203
C5    C     C_R   0.412689 0.155141 0.156684 -0.093489
C6    C     C_R   0.585425 0.829376 0.839414 -0.100741
C7    C     C_R   0.341260 0.235839 0.170516 -0.150263
C8    C     C_R   0.661621 0.758255 0.823589 -0.149360
C9    C     C_R   0.464160 0.932170 0.422111 -0.105894
C10   C     C_R   0.532801 0.067440 0.578826 -0.114673
C11   C     C_R   0.502311 0.871641 0.501718 -0.010899
C12   C     C_R   0.501657 0.737854 0.500552 0.545894
C13   C     C_R   0.495575 0.128196 0.498634 -0.015246
C14   C     C_R   0.537237 0.939562 0.581345 0.003965
C15   C     C_R   0.460429 0.060148 0.418947 -0.007536
C16   C     C_R   0.328442 0.500343 0.500090 0.545664
C17   C     C_R   0.671554 0.499847 0.499918 0.545642
C18   C     C_R   0.559167 0.427192 0.792697 0.031072
C19   C     C_R   0.440558 0.572400 0.207293 0.047656
C20   C     C_R   0.441149 0.573273 0.793754 0.046428
C21   C     C_R   0.559813 0.428363 0.206205 0.038598
C22   C     C_R   0.439725 0.575060 0.896870 -0.019994
C23   C     C_R   0.046563 0.528276 0.323382 -0.136925
C24   C     C_R   0.561203 0.426545 0.103078 -0.016025
C25   C     C_R   0.500193 0.500359 0.948134 0.047744
C26   C     C_R   0.500149 0.500311 0.051820 0.050485
C27   C     C_R   0.560835 0.425899 0.895769 -0.022805
C28   C     C_R   0.439363 0.574521 0.104193 -0.015147
C29   C     C_R   0.379682 0.649591 0.949693 -0.145896
C30   C     C_R   0.622148 0.353519 0.050217 -0.158563
C31   C     C_R   0.379374 0.649126 0.052461 -0.146643
C32   C     C_R   0.621629 0.352612 0.947482 -0.161555
C33   C     C_R   0.814550 0.485757 0.588039 -0.148464
C34   C     C_R   0.953420 0.472880 0.676734 -0.137437
C35   C     C_R   0.185434 0.515300 0.412070 -0.147223
C36   C     C_R   0.768359 0.499632 0.499834 -0.016682
C37   C     C_R   0.231632 0.500942 0.500215 -0.015503
C38   C     C_R   0.814837 0.513304 0.411631 -0.141158
C39   C     C_R   0.185152 0.487243 0.588417 -0.137412
C40   C     C_R   0.907237 0.513790 0.411099 0.011241
C41   C     C_R   0.092749 0.487057 0.588983 0.012258
C42   C     C_R   0.953510 0.500274 0.499996 0.062425
C43   C     C_R   0.046474 0.500702 0.500101 0.062282
C44   C     C_R   0.906914 0.486243 0.588779 0.010107
C45   C     C_R   0.307031 0.256176 0.264130 -0.112141
C46   C     C_R   0.093069 0.514839 0.411331 0.011198
C47   C     C_R   0.954100 0.527704 0.323261 -0.135334
C48   C     C_R   0.045885 0.473262 0.676834 -0.133484
C49   C     C_3   0.595796 0.068392 0.186500 -0.126347
C50   C     C_3   0.481124 0.055579 0.844793 -0.131814
C51   C     C_R   0.698835 0.749999 0.730279 -0.114365
C52   C     C_R   0.344829 0.197237 0.344530 -0.096835
C53   C     C_R   0.658908 0.810595 0.651952 -0.108374
C54   C     C_R   0.418518 0.118569 0.332210 0.056918
Cu1   Cu    Cu3+1 0.500010 0.499980 0.597420 0.942090
Cu2   Cu    Cu3+1 0.499990 0.500020 0.402580 0.939942
H1    H     H_    0.778734 0.474156 0.656183 0.117428
H2    H     H_    0.670309 0.297209 0.088276 0.090366
H3    H     H_    0.332321 0.707230 0.091453 0.108300
H4    H     H_    0.668994 0.294989 0.908504 0.096997
H5    H     H_    0.779232 0.524066 0.343378 0.125652
H6    H     H_    0.220756 0.476236 0.656644 0.125574
H7    H     H_    0.919248 0.538158 0.254569 0.105937
H8    H     H_    0.080737 0.462753 0.745520 0.106590
H9    H     H_    0.081698 0.539102 0.254781 0.103016
H10   H     H_    0.918285 0.462145 0.745344 0.102955
H11   H     H_    0.311523 0.281229 0.108324 0.114961
H12   H     H_    0.221244 0.527309 0.343982 0.115209
H13   H     H_    0.691635 0.709002 0.883740 0.118369
H14   H     H_    0.250765 0.317191 0.274306 0.114806
H15   H     H_    0.758236 0.695538 0.718446 0.116833
H16   H     H_    0.317330 0.213919 0.416696 0.110849
H17   H     H_    0.687693 0.801458 0.579596 0.107433
H18   H     H_    0.436267 0.137138 0.083152 0.102482
H19   H     H_    0.556628 0.832380 0.911935 0.120783
H20   H     H_    0.615148 0.149388 0.232156 0.110242
H21   H     H_    0.586502 0.095236 0.108935 0.105858
H22   H     H_    0.651648 0.001503 0.188551 0.142850
H23   H     H_    0.435323 0.879262 0.362546 0.155717
H24   H     H_    0.543584 0.107587 0.831353 0.098026
H25   H     H_    0.480218 0.018252 0.920222 0.114535
H26   H     H_    0.425559 0.122589 0.839228 0.150528
H27   H     H_    0.561360 0.119965 0.638748 0.130556
H28   H     H_    0.605135 0.370208 0.751268 0.113760
H29   H     H_    0.394276 0.628870 0.248733 0.118320
H30   H     H_    0.395462 0.630626 0.753132 0.135532
H31   H     H_    0.606483 0.372752 0.246867 0.112490
H32   H     H_    0.332896 0.708085 0.911552 0.120445
N1    N     N_R   0.499960 0.499900 0.743810 -0.237044
N2    N     N_R   0.500040 0.500100 0.256190 -0.234160
O1    O     O_R   0.500000 0.319630 0.582270 -0.508955
O2    O     O_3   0.467850 0.960626 0.775041 -0.569006
O3    O     O_R   0.500000 0.680370 0.417730 -0.504179
O4    O     O_R   0.499990 0.319660 0.417730 -0.497813
O5    O     O_R   0.500010 0.680340 0.582270 -0.487359
O6    O     O_R   0.370260 0.499960 0.582280 -0.509745
O7    O     O_R   0.629740 0.500040 0.417720 -0.509585
O8    O     O_R   0.370250 0.499990 0.417740 -0.513108
O9    O     O_R   0.629750 0.500010 0.582260 -0.509367
O10   O     O_3   0.519540 0.010199 0.223616 -0.577801

loop_
_geom_bond_atom_site_label_1
_geom_bond_atom_site_label_2
_ccdc_geom_bond_type
C40   C47   A    
C38   C40   A    
Cu1   Cu2   S    
C21   H31   S    
C22   C29   A    
Cu2   O8    S    
C34   H10   S    
C6    H19   S    
C39   C41   A    
Cu2   O4    S    
C8    H13   S    
C51   H15   S    
C7    C45   A    
C35   C37   A    
C24   C26   A    
C47   H7    S    
C3    C54   A    
C48   H8    S    
C10   H27   S    
C33   C36   A    
C49   H22   S    
C9    H23   S    
C31   H3    S    
C5    H18   S    
C29   H32   S    
Cu1   O1    S    
C3    O10   S    
C1    O4    A    
C22   C25   A    
C20   H30   S    
C18   H28   S    
C12   O5    A    
C17   C36   S    
C16   C37   S    
C38   H5    S    
C40   C42   A    
C27   C32   A    
C1    O1    A    
C23   C46   A    
C41   C43   A    
C42   C44   A    
Cu2   O7    S    
C52   C54   A    
C21   N2    A    
Cu2   O3    S    
C16   O6    A    
C23   C47   A    
C15   C54   S    
C34   C44   A    
Cu1   O5    S    
C10   C14   A    
C5    C7    A    
C6    C8    A    
C18   N1    A    
C45   C52   A    
C19   H29   S    
C25   C26   A    
C10   C13   A    
C51   C53   A    
C2    C4    A    
C52   H16   S    
C9    C11   A    
C29   C31   A    
C49   H20   S    
C19   C28   A    
C17   O9    A    
C8    C51   A    
C4    C6    A    
C20   C22   A    
C13   C15   A    
C12   O3    A    
C1    C13   S    
C42   C43   A    
C32   H4    S    
C50   H26   S    
C50   O2    S    
C39   H6    S    
C33   H1    S    
C45   H14   S    
C33   C44   A    
C28   C31   A    
C53   H17   S    
C18   C27   A    
Cu1   O6    S    
C3    C5    A    
C2    C53   A    
C50   H24   S    
C11   C12   S    
C25   C27   A    
C20   N1    A    
C26   C28   A    
C23   H9    S    
C36   C38   A    
C9    C15   A    
Cu1   N1    S    
C19   N2    A    
C49   O10   S    
C30   C32   A    
C16   O8    A    
C35   H12   S    
C30   H2    S    
Cu2   N2    S    
C11   C14   A    
C41   C48   A    
C49   H21   S    
C2    C14   S    
C43   C46   A    
C24   C30   A    
C7    H11   S    
C34   C48   A    
C37   C39   A    
C21   C24   A    
Cu1   O9    S    
C35   C46   A    
C17   O7    A    
C50   H25   S    
C4    O2    S    
