data_mof_unit_35687.cif
_audit_creation_date              2012-12-10T18:50:00-0500
_audit_creation_method            fapswitch 2.2
_symmetry_space_group_name_H-M    P1
_symmetry_Int_Tables_number       1
_space_group_crystal_system       triclinic
_cell_length_a                    10.703491
_cell_length_b                    9.836817
_cell_length_c                    10.635728
_cell_angle_alpha                 89.958491
_cell_angle_beta                  89.994821
_cell_angle_gamma                 90.021329
_cell_volume                      1119.8171553

loop_
_atom_site_label
_atom_site_type_symbol
_atom_type_description
_atom_site_fract_x
_atom_site_fract_y
_atom_site_fract_z
_atom_type_partial_charge
C1    C     C_R   0.259877 0.499968 0.499538 0.872251
C2    C     C_R   0.576783 0.928000 0.578906 -0.077924
C3    C     C_R   0.423068 0.928087 0.421146 -0.079968
C4    C     C_R   0.423116 0.072013 0.421068 -0.076738
C5    C     C_R   0.494644 0.500309 0.257920 0.848778
C6    C     C_R   0.740081 0.500009 0.499767 0.868707
C7    C     C_R   0.495973 0.500188 0.742292 0.848836
C8    C     C_3   0.454810 0.646938 0.070452 -0.140409
C9    C     C_3   0.395834 0.391325 0.070685 -0.144790
C10   C     C_3   0.458981 0.646008 0.926802 -0.421027
C11   C     C_3   0.389951 0.400898 0.926209 -0.434195
C12   C     C_3   0.621350 0.458731 0.929141 -0.412298
C13   C     C_3   0.621436 0.465091 0.073085 -0.456103
C14   C     C_3   0.488781 0.501571 0.121433 0.083033
C15   C     C_3   0.491637 0.501163 0.878552 0.140816
C16   C     C_1   0.332638 0.697722 0.115537 0.173541
C17   C     C_1   0.269672 0.399250 0.126701 0.153412
C18   C     C_R   0.063955 0.381166 0.532220 -0.190539
C19   C     C_R   0.064073 0.618312 0.464631 -0.169059
C20   C     C_R   0.935980 0.381221 0.532412 -0.192987
C21   C     C_R   0.936043 0.618385 0.464869 -0.196556
C22   C     C_R   0.872525 0.499919 0.499038 -0.018548
C23   C     C_R   0.127478 0.499822 0.498722 -0.006258
C24   C     C_R   0.576778 0.071937 0.578913 -0.077121
H1    H     H_    0.526330 0.721043 0.103589 0.141824
H2    H     H_    0.652397 0.365181 0.111334 0.186085
H3    H     H_    0.695159 0.527409 0.891452 0.166320
H4    H     H_    0.644103 0.353483 0.898191 0.178313
H5    H     H_    0.112824 0.289275 0.559442 0.155026
H6    H     H_    0.113093 0.710091 0.437204 0.159173
H7    H     H_    0.887056 0.289363 0.559774 0.150891
H8    H     H_    0.887114 0.710241 0.437662 0.156866
H9    H     H_    0.638167 0.126504 0.642004 0.120151
H10   H     H_    0.638152 0.873388 0.642011 0.123897
H11   H     H_    0.432752 0.288923 0.095580 0.143978
H12   H     H_    0.361492 0.873573 0.358322 0.139642
H13   H     H_    0.361696 0.126630 0.357993 0.132006
H14   H     H_    0.368408 0.679616 0.885221 0.176886
H15   H     H_    0.296493 0.436070 0.893318 0.167004
H16   H     H_    0.531250 0.720171 0.895229 0.170929
H17   H     H_    0.404771 0.297542 0.886300 0.175497
H18   H     H_    0.690376 0.542566 0.105055 0.176567
N1    N     N_R   0.499970 0.857200 0.499970 -0.080394
N2    N     N_R   0.499970 0.142800 0.499970 -0.079688
N3    N     N_1   0.237184 0.737730 0.150774 -0.225086
N4    N     N_1   0.170938 0.405031 0.170759 -0.198706
O1    O     O_R   0.316750 0.614620 0.499990 -0.626286
O2    O     O_R   0.316750 0.385380 0.499990 -0.626002
O3    O     O_R   0.499970 0.614670 0.314790 -0.627564
O4    O     O_R   0.499970 0.385330 0.314790 -0.626690
O5    O     O_R   0.683220 0.614710 0.500010 -0.626129
O6    O     O_R   0.683220 0.385290 0.500010 -0.623141
O7    O     O_R   0.500010 0.614660 0.685200 -0.629241
O8    O     O_R   0.500010 0.385340 0.685200 -0.629958
Zn1   Zn    Zn3+2 0.499980 0.653120 0.500000 0.942064
Zn2   Zn    Zn3+2 0.499980 0.346880 0.500000 0.940913

loop_
_geom_bond_atom_site_label_1
_geom_bond_atom_site_label_2
_ccdc_geom_bond_type
C16   N3    T    
C19   C23   A    
C9    C14   S    
C1    O2    A    
C1    C23   S    
C13   H2    S    
C6    O5    A    
N2    Zn2   S    
C18   C20   A    
C24   H9    S    
C12   C15   S    
C2    N1    A    
C10   H14   S    
C5    O3    A    
C2    H10   S    
C7    C15   S    
C8    C16   S    
C18   H5    S    
O3    Zn1   S    
C13   C14   S    
C17   N4    T    
C11   H15   S    
C8    H1    S    
C9    C11   S    
C3    N1    A    
C5    C14   S    
C3    H12   S    
C12   H4    S    
N1    Zn1   S    
C13   H18   S    
C19   C21   A    
C20   C22   A    
C11   H17   S    
O5    Zn1   S    
C10   C15   S    
O7    Zn1   S    
C2    C24   A    
C24   N2    A    
C21   H8    S    
O8    Zn2   S    
C5    O4    A    
C7    O7    A    
C12   H3    S    
C9    H11   S    
C18   C23   A    
C6    C22   S    
C6    O6    A    
C4    H13   S    
O1    Zn1   S    
C9    C17   S    
O2    Zn2   S    
C1    O1    A    
C10   H16   S    
C8    C14   S    
C4    N2    A    
C7    O8    A    
C12   C13   S    
C21   C22   A    
C19   H6    S    
C11   C15   S    
C8    C10   S    
O4    Zn2   S    
C3    C4    A    
O6    Zn2   S    
C20   H7    S    
