data_mof_unit_66633.cif
_audit_creation_date              2012-12-11T15:35:54-0500
_audit_creation_method            fapswitch 2.2
_symmetry_space_group_name_H-M    P1
_symmetry_Int_Tables_number       1
_space_group_crystal_system       triclinic
_cell_length_a                    7.194813
_cell_length_b                    12.462317
_cell_length_c                    34.962843
_cell_angle_alpha                 89.99998
_cell_angle_beta                  91.392664
_cell_angle_gamma                 90.0
_cell_volume                      3133.98374435

loop_
_atom_site_label
_atom_site_type_symbol
_atom_type_description
_atom_site_fract_x
_atom_site_fract_y
_atom_site_fract_z
_atom_type_partial_charge
O1    O     O_R   0.379730 0.148600 0.662710 -0.539502
O2    O     O_R   0.620270 0.851400 0.337290 -0.539502
O3    O     O_R   0.120270 0.648600 0.337290 -0.539502
O4    O     O_R   0.879730 0.351400 0.662710 -0.539502
O5    O     O_R   0.722480 0.134490 0.741330 -0.539942
O6    O     O_R   0.277520 0.865510 0.258670 -0.539942
O7    O     O_R   0.777520 0.634490 0.258670 -0.539942
O8    O     O_R   0.222480 0.365510 0.741330 -0.539942
O9    O     O_R   0.892880 0.345890 0.741600 -0.533787
O10   O     O_R   0.107120 0.654110 0.258400 -0.533788
O11   O     O_R   0.607120 0.845890 0.258400 -0.533788
O12   O     O_R   0.392880 0.154110 0.741600 -0.533787
C1    C     C_R   0.553113 0.111990 0.753610 0.699220
C2    C     C_R   0.446887 0.888010 0.246390 0.699219
C3    C     C_R   0.946887 0.611990 0.246390 0.699219
C4    C     C_R   0.053113 0.388010 0.753610 0.699220
O13   O     O_R   0.709490 0.135560 0.662990 -0.539830
O14   O     O_R   0.290510 0.864440 0.337010 -0.539829
O15   O     O_R   0.790510 0.635560 0.337010 -0.539829
O16   O     O_R   0.209490 0.364440 0.662990 -0.539830
C5    C     C_R   0.538704 0.107949 0.651604 0.690056
C6    C     C_R   0.461296 0.892052 0.348395 0.690057
C7    C     C_R   0.961296 0.607948 0.348395 0.690057
C8    C     C_R   0.038704 0.392051 0.651604 0.690057
O17   O     O_3   0.552800 0.316610 0.702160 -0.373342
O18   O     O_3   0.447200 0.683390 0.297840 -0.373342
O19   O     O_3   0.947200 0.816610 0.297840 -0.373343
O20   O     O_3   0.052800 0.183390 0.702160 -0.373343
V1    V     V_3+5 0.827630 0.234380 0.702160 1.428346
V2    V     V_3+5 0.172370 0.765620 0.297840 1.428346
V3    V     V_3+5 0.672370 0.734380 0.297840 1.428347
V4    V     V_3+5 0.327630 0.265620 0.702160 1.428346
C9    C     C_R   0.952508 0.660439 0.918737 0.562841
C10   C     C_R   0.047492 0.339561 0.081263 0.562840
C11   C     C_R   0.547492 0.160439 0.081262 0.562840
C12   C     C_R   0.452508 0.839561 0.918738 0.562841
O21   O     O_2   0.904307 0.560707 0.928269 -0.554759
O22   O     O_2   0.095693 0.439293 0.071731 -0.554759
O23   O     O_2   0.595693 0.060707 0.071731 -0.554759
O24   O     O_2   0.404307 0.939293 0.928269 -0.554759
N1    N     N_R   0.000854 0.685529 0.881766 -0.529596
N2    N     N_R   0.999147 0.314471 0.118234 -0.529596
N3    N     N_R   0.499146 0.185529 0.118234 -0.529596
N4    N     N_R   0.500854 0.814471 0.881766 -0.529596
C13   C     C_R   0.033241 0.792460 0.873653 0.551194
C14   C     C_R   0.966759 0.207540 0.126347 0.551195
C15   C     C_R   0.466759 0.292459 0.126347 0.551193
C16   C     C_R   0.533241 0.707541 0.873653 0.551194
C17   C     C_R   0.935080 0.632382 0.813474 -0.075745
C18   C     C_R   0.064920 0.367618 0.186526 -0.075745
C19   C     C_R   0.564922 0.132381 0.186525 -0.075745
C20   C     C_R   0.435079 0.867619 0.813474 -0.075745
C21   C     C_R   0.951003 0.565532 0.781380 0.101838
C22   C     C_R   0.048997 0.434468 0.218620 0.101838
C23   C     C_R   0.548999 0.065532 0.218620 0.101837
C24   C     C_R   0.451002 0.934468 0.781380 0.101838
C25   C     C_R   0.106436 0.434435 0.821449 -0.252376
C26   C     C_R   0.893564 0.565565 0.178551 -0.252376
C27   C     C_R   0.393562 0.934436 0.178551 -0.252375
C28   C     C_R   0.606438 0.065564 0.821449 -0.252376
C29   C     C_R   0.088519 0.500147 0.853978 0.157047
C30   C     C_R   0.911481 0.499853 0.146021 0.157046
C31   C     C_R   0.411480 0.000147 0.146021 0.157046
C32   C     C_R   0.588520 0.999853 0.853978 0.157046
C33   C     C_R   0.006255 0.604827 0.850476 0.304736
C34   C     C_R   0.993745 0.395173 0.149524 0.304736
C35   C     C_R   0.493746 0.104827 0.149524 0.304737
C36   C     C_R   0.506255 0.895174 0.850476 0.304736
C37   C     C_R   0.986098 0.845904 0.939740 -0.059524
C38   C     C_R   0.013902 0.154096 0.060260 -0.059524
C39   C     C_R   0.513902 0.345904 0.060260 -0.059523
C40   C     C_R   0.486098 0.654096 0.939740 -0.059523
C41   C     C_R   0.942870 0.739016 0.947590 -0.016285
C42   C     C_R   0.057131 0.260984 0.052410 -0.016285
C43   C     C_R   0.557131 0.239016 0.052410 -0.016285
C44   C     C_R   0.442870 0.760984 0.947590 -0.016285
C45   C     C_R   0.878701 0.712957 0.983709 -0.130352
C46   C     C_R   0.121300 0.287043 0.016291 -0.130352
C47   C     C_R   0.621300 0.212957 0.016291 -0.130352
C48   C     C_R   0.378700 0.787043 0.983709 -0.130352
C49   C     C_R   0.028390 0.872548 0.902198 -0.058164
C50   C     C_R   0.971610 0.127452 0.097802 -0.058164
C51   C     C_R   0.471610 0.372547 0.097802 -0.058164
C52   C     C_R   0.528390 0.627453 0.902198 -0.058164
C53   C     C_R   0.040682 0.465799 0.785373 -0.055554
C54   C     C_R   0.959318 0.534201 0.214627 -0.055553
C55   C     C_R   0.459318 0.965799 0.214626 -0.055555
C56   C     C_R   0.540682 0.034201 0.785373 -0.055554
H1    H     H_    0.835214 0.632300 0.990540 0.172212
H2    H     H_    0.164786 0.367700 0.009460 0.172212
H3    H     H_    0.664786 0.132299 0.009460 0.172212
H4    H     H_    0.335214 0.867700 0.990540 0.172212
C57   C     C_R   0.954348 0.968078 0.038642 0.043758
C58   C     C_R   0.045652 0.031922 0.961358 0.043759
C59   C     C_R   0.545652 0.468078 0.961358 0.043758
C60   C     C_R   0.454348 0.531922 0.038642 0.043758
C61   C     C_R   0.064870 0.105450 0.992842 0.040166
C62   C     C_R   0.935130 0.894550 0.007158 0.040166
C63   C     C_R   0.435130 0.605450 0.007158 0.040165
C64   C     C_R   0.564870 0.394550 0.992842 0.040165
C65   C     C_R   0.010893 0.075113 0.030454 0.003068
C66   C     C_R   0.989107 0.924887 0.969546 0.003068
C67   C     C_R   0.489107 0.575113 0.969546 0.003068
C68   C     C_R   0.510894 0.424887 0.030454 0.003068
C69   C     C_R   0.927855 0.940724 0.078412 0.214486
C70   C     C_R   0.072146 0.059276 0.921587 0.214486
C71   C     C_R   0.572146 0.440725 0.921587 0.214486
C72   C     C_R   0.427855 0.559275 0.078413 0.214486
C73   C     C_R   0.933693 0.020857 0.106588 -0.067489
C74   C     C_R   0.066308 0.979143 0.893412 -0.067490
C75   C     C_R   0.566308 0.520857 0.893412 -0.067489
C76   C     C_R   0.433693 0.479143 0.106588 -0.067489
O25   O     O_2   0.928325 0.176452 0.162069 -0.570285
O26   O     O_2   0.071676 0.823548 0.837931 -0.570284
O27   O     O_2   0.571677 0.676453 0.837931 -0.570285
O28   O     O_2   0.428324 0.323547 0.162069 -0.570284
C77   C     C_R   0.856917 0.791590 0.011100 -0.176952
C78   C     C_R   0.143083 0.208410 0.988900 -0.176952
C79   C     C_R   0.643083 0.291590 0.988900 -0.176952
C80   C     C_R   0.356917 0.708410 0.011100 -0.176951
H5    H     H_    0.907075 0.998969 0.135973 0.164478
H6    H     H_    0.092925 0.001031 0.864027 0.164478
H7    H     H_    0.592925 0.498970 0.864027 0.164478
H8    H     H_    0.407075 0.501030 0.135973 0.164478
C81   C     C_R   0.976873 0.527935 0.378768 -0.070333
C82   C     C_R   0.023126 0.472063 0.621231 -0.070332
C83   C     C_R   0.523126 0.027937 0.621231 -0.070333
C84   C     C_R   0.476874 0.972065 0.378768 -0.070333
C85   C     C_R   0.966886 0.343169 0.400850 0.166887
C86   C     C_R   0.033118 0.656827 0.599148 0.166884
C87   C     C_R   0.533118 0.843173 0.599148 0.166884
C88   C     C_R   0.466886 0.156831 0.400850 0.166887
C89   C     C_R   0.944531 0.420064 0.371568 -0.182882
C90   C     C_R   0.055475 0.579933 0.628431 -0.182881
C91   C     C_R   0.555475 0.920066 0.628431 -0.182879
C92   C     C_R   0.444531 0.079936 0.371568 -0.182881
C93   C     C_R   0.021050 0.561344 0.415495 -0.203433
C94   C     C_R   0.978943 0.438653 0.584505 -0.203431
C95   C     C_R   0.478944 0.061347 0.584505 -0.203431
C96   C     C_R   0.521050 0.938656 0.415495 -0.203434
C97   C     C_R   0.000558 0.491930 0.446634 0.024536
C98   C     C_R   0.999433 0.508065 0.553365 0.024542
C99   C     C_R   0.499433 0.991935 0.553365 0.024542
C100  C     C_R   0.500558 0.008070 0.446634 0.024536
C101  C     C_R   0.003326 0.379044 0.439793 0.033514
C102  C     C_R   0.996666 0.620951 0.560206 0.033515
C103  C     C_R   0.496666 0.879049 0.560206 0.033514
C104  C     C_R   0.503327 0.120956 0.439793 0.033513
C105  C     C_R   0.980754 0.533650 0.484319 -0.018024
C106  C     C_R   0.019233 0.466344 0.515680 -0.018023
C107  C     C_R   0.519233 0.033656 0.515680 -0.018023
C108  C     C_R   0.480755 0.966350 0.484319 -0.018024
C109  C     C_R   0.082258 0.360122 0.508407 0.142709
C110  C     C_R   0.917725 0.639871 0.491592 0.142710
C111  C     C_R   0.417725 0.860129 0.491592 0.142712
C112  C     C_R   0.582258 0.139878 0.508407 0.142710
C113  C     C_R   0.045871 0.311589 0.472036 0.124710
C114  C     C_R   0.954111 0.688405 0.527963 0.124705
C115  C     C_R   0.454111 0.811595 0.527963 0.124705
C116  C     C_R   0.545871 0.188411 0.472036 0.124710
H9    H     H_    0.167685 0.355163 0.824394 0.125810
H10   H     H_    0.832315 0.644837 0.175605 0.125810
H11   H     H_    0.332312 0.855163 0.175606 0.125810
H12   H     H_    0.667687 0.144837 0.824394 0.125810
H13   H     H_    0.938396 0.356074 0.580257 0.137532
H14   H     H_    0.061590 0.643924 0.419743 0.137532
H15   H     H_    0.561589 0.856076 0.419743 0.137533
H16   H     H_    0.438397 0.143926 0.580257 0.137532
H17   H     H_    0.089605 0.604180 0.657549 0.112683
H18   H     H_    0.910407 0.395819 0.342449 0.112683
H19   H     H_    0.410408 0.104181 0.342449 0.112683
H20   H     H_    0.589604 0.895820 0.657549 0.112682
C117  C     C_3   0.944830 0.227787 0.387937 -0.783198
H21   H     H_    0.899191 0.221864 0.357422 0.204373
H22   H     H_    0.077837 0.183937 0.389820 0.225736
H23   H     H_    0.835683 0.186821 0.403874 0.225580
C118  C     C_3   0.055189 0.772209 0.612059 -0.783199
H24   H     H_    0.100861 0.778133 0.642573 0.204373
H25   H     H_    0.164322 0.813174 0.596117 0.225582
H26   H     H_    0.922180 0.816060 0.610182 0.225734
C119  C     C_3   0.555190 0.727791 0.612060 -0.783201
H27   H     H_    0.600864 0.721867 0.642573 0.204374
H28   H     H_    0.422181 0.683940 0.610182 0.225734
H29   H     H_    0.664321 0.686826 0.596117 0.225582
C120  C     C_3   0.444830 0.272213 0.387937 -0.783196
H30   H     H_    0.399188 0.278136 0.357422 0.204373
H31   H     H_    0.335683 0.313179 0.403875 0.225580
H32   H     H_    0.577837 0.316063 0.389820 0.225735
C121  C     C_3   0.203983 0.301977 0.537772 -0.821728
H33   H     H_    0.277113 0.358026 0.557680 0.220119
H34   H     H_    0.125111 0.240796 0.553723 0.200529
H35   H     H_    0.314686 0.260073 0.523311 0.240047
C122  C     C_3   0.795991 0.698012 0.462227 -0.821724
H36   H     H_    0.874855 0.759199 0.446277 0.200530
H37   H     H_    0.722874 0.641960 0.442318 0.220119
H38   H     H_    0.685275 0.739905 0.476688 0.240044
C123  C     C_3   0.295990 0.801988 0.462228 -0.821726
H39   H     H_    0.222874 0.858039 0.442318 0.220119
H40   H     H_    0.374854 0.740801 0.446278 0.200530
H41   H     H_    0.185275 0.760094 0.476688 0.240044
C124  C     C_3   0.703983 0.198023 0.537772 -0.821728
H42   H     H_    0.625111 0.259204 0.553723 0.200528
H43   H     H_    0.777113 0.141974 0.557680 0.220118
H44   H     H_    0.814686 0.239927 0.523311 0.240047
C125  C     C_3   0.149444 0.448904 0.890905 -0.692105
H45   H     H_    0.209614 0.507675 0.911268 0.231184
H46   H     H_    0.030820 0.405768 0.903248 0.241519
H47   H     H_    0.253244 0.386039 0.885986 0.191148
C126  C     C_3   0.850556 0.551096 0.109095 -0.692105
H48   H     H_    0.969180 0.594232 0.096752 0.241519
H49   H     H_    0.790386 0.492325 0.088732 0.231184
H50   H     H_    0.746756 0.613961 0.114014 0.191148
C127  C     C_3   0.350556 0.948904 0.109095 -0.692106
H51   H     H_    0.290386 0.007675 0.088732 0.231184
H52   H     H_    0.469181 0.905768 0.096752 0.241519
H53   H     H_    0.246756 0.886038 0.114014 0.191148
C128  C     C_3   0.649444 0.051096 0.890905 -0.692106
H54   H     H_    0.530820 0.094232 0.903248 0.241519
H55   H     H_    0.709614 0.992325 0.911268 0.231184
H56   H     H_    0.753244 0.113962 0.885986 0.191148
C129  C     C_3   0.126969 0.394663 0.256485 -0.765481
H57   H     H_    0.100925 0.450289 0.280492 0.192541
H58   H     H_    0.062108 0.316454 0.263522 0.202051
H59   H     H_    0.279492 0.383192 0.254477 0.223820
C130  C     C_3   0.873030 0.605337 0.743515 -0.765482
H60   H     H_    0.899074 0.549711 0.719507 0.192542
H61   H     H_    0.720507 0.616808 0.745523 0.223820
H62   H     H_    0.937892 0.683546 0.736477 0.202052
C131  C     C_3   0.373028 0.894663 0.743515 -0.765480
H63   H     H_    0.399075 0.950289 0.719508 0.192541
H64   H     H_    0.437885 0.816454 0.736478 0.202052
H65   H     H_    0.220504 0.883196 0.745524 0.223821
C132  C     C_3   0.626974 0.105336 0.256485 -0.765478
H66   H     H_    0.600925 0.049711 0.280492 0.192541
H67   H     H_    0.779498 0.116803 0.254476 0.223820
H68   H     H_    0.562118 0.183547 0.263522 0.202051
H69   H     H_    0.136150 0.292324 0.191130 0.206220
H70   H     H_    0.863850 0.707676 0.808870 0.206220
H71   H     H_    0.363849 0.792325 0.808870 0.206219
H72   H     H_    0.636151 0.207675 0.191130 0.206219
C133  C     C_3   0.908521 0.828917 0.094373 -0.881371
H73   H     H_    0.760687 0.806004 0.094515 0.220270
H74   H     H_    0.995039 0.771842 0.078594 0.209742
H75   H     H_    0.957290 0.823060 0.124712 0.203373
C134  C     C_3   0.091479 0.171083 0.905627 -0.881371
H76   H     H_    0.004961 0.228158 0.921406 0.209742
H77   H     H_    0.239314 0.193996 0.905485 0.220270
H78   H     H_    0.042710 0.176941 0.875288 0.203373
C135  C     C_3   0.591479 0.328917 0.905626 -0.881373
H79   H     H_    0.739314 0.306004 0.905485 0.220270
H80   H     H_    0.504962 0.271842 0.921406 0.209742
H81   H     H_    0.542710 0.323060 0.875288 0.203374
C136  C     C_3   0.408521 0.671083 0.094373 -0.881372
H82   H     H_    0.495038 0.728158 0.078594 0.209742
H83   H     H_    0.260687 0.693996 0.094515 0.220270
H84   H     H_    0.457291 0.676940 0.124712 0.203374
H85   H     H_    0.771711 0.769220 0.034407 0.155478
H86   H     H_    0.228289 0.230780 0.965593 0.155478
H87   H     H_    0.728289 0.269221 0.965593 0.155479
H88   H     H_    0.271711 0.730779 0.034407 0.155478
C137  C     C_3   0.056352 0.190094 0.469132 -0.758838
H89   H     H_    0.919065 0.156159 0.461460 0.218437
H90   H     H_    0.160760 0.165819 0.448604 0.221325
H91   H     H_    0.094725 0.149141 0.496239 0.215551
C138  C     C_3   0.943615 0.809900 0.530868 -0.758840
H92   H     H_    0.080906 0.843840 0.538535 0.218437
H93   H     H_    0.905208 0.850852 0.503762 0.215549
H94   H     H_    0.839224 0.834167 0.551400 0.221330
C139  C     C_3   0.443614 0.690100 0.530868 -0.758841
H95   H     H_    0.580905 0.656159 0.538534 0.218436
H96   H     H_    0.339225 0.665833 0.551401 0.221331
H97   H     H_    0.405205 0.649148 0.503762 0.215550
C140  C     C_3   0.556352 0.309906 0.469132 -0.758839
H98   H     H_    0.419065 0.343841 0.461460 0.218437
H99   H     H_    0.594726 0.350859 0.496239 0.215551
H100  H     H_    0.660759 0.334181 0.448604 0.221325

loop_
_geom_bond_atom_site_label_1
_geom_bond_atom_site_label_2
_ccdc_geom_bond_type
C115  C139  S    
C123  H41   S    
C113  C137  S    
C39   C68   A    
C48   C80   A    
C26   C30   A    
C72   C136  S    
C86   C102  A    
O13   V1    S    
C124  H42   S    
C98   C102  A    
O3    C7    A    
C10   N2    A    
C100  C104  A    
C103  C115  A    
C49   C74   A    
C140  H100  S    
C107  C112  A    
C28   C56   A    
C38   C65   A    
C97   C105  A    
C109  C121  S    
C127  H51   S    
C46   H2    S    
C128  H56   S    
O1    C5    A    
C70   C74   A    
C127  H53   S    
C45   H1    S    
C135  H79   S    
C129  H57   S    
C25   C29   A    
C17   C33   A    
C32   C128  S    
C94   H13   S    
C32   C36   A    
O20   V1    S    
C46   C78   A    
O9    C4    A    
C83   C91   A    
C2    C55   S    
C76   H8    S    
C129  H59   S    
C87   C91   A    
O10   C3    A    
C84   C92   A    
C109  C113  A    
N2    C14   A    
C136  H82   S    
O4    C8    A    
O11   C2    A    
C120  H31   S    
C126  H49   S    
C60   C63   A    
C119  H27   S    
C64   C68   A    
C130  H62   S    
C101  C113  A    
C1    C56   S    
C121  H34   S    
C133  H73   S    
C104  C116  A    
C61   C78   A    
C123  H40   S    
O19   V3    S    
C93   C97   A    
C12   C44   A    
C20   H71   S    
C140  H99   S    
C63   C80   A    
C14   C50   A    
C110  C122  S    
C95   C99   A    
C13   O26   S    
C58   C70   A    
O16   C8    A    
C121  H35   S    
C118  H25   S    
C106  C109  A    
C47   C79   A    
C38   C42   A    
C107  C108  A    
C108  C111  A    
C87   C103  A    
C19   H72   S    
C125  H45   S    
C15   C51   A    
C5    C83   S    
C11   N3    A    
C132  H66   S    
C134  H78   S    
O5    C1    A    
O4    V1    S    
C20   C36   A    
O9    V1    S    
C7    C81   S    
C21   C130  S    
C122  H38   S    
C96   H15   S    
O7    C3    A    
C60   C72   A    
C100  C108  A    
O15   V3    S    
O18   V3    S    
O8    C4    A    
C114  C138  S    
C10   O22   S    
C134  H76   S    
O12   V4    S    
O19   V2    S    
C8    C82   S    
C124  H43   S    
C85   C117  S    
C86   C90   A    
C83   C95   A    
C23   C132  S    
C112  C124  S    
C26   C54   A    
O20   V4    S    
C69   C133  S    
C93   H14   S    
C137  H90   S    
C59   C67   A    
C140  H98   S    
C39   C51   A    
C125  H46   S    
O17   V1    S    
C15   O28   S    
C28   H12   S    
C31   C35   A    
C135  H80   S    
C52   C75   A    
O7    V3    S    
C30   C34   A    
C111  C115  A    
O8    V4    S    
C50   C73   A    
C44   C48   A    
C12   O24   S    
C27   H11   S    
C16   O27   S    
C126  H48   S    
C63   C67   A    
C94   C98   A    
C119  H28   S    
C57   C65   A    
C22   C54   A    
C139  H96   S    
C37   C66   A    
C59   C64   A    
C22   C129  S    
N1    C33   S    
C58   C61   A    
C81   C93   A    
C128  H54   S    
C117  H21   S    
C75   H7    S    
C90   H17   S    
O1    V4    S    
O13   C5    A    
C72   C76   A    
O2    V3    S    
C133  H74   S    
C88   C104  A    
C48   H4    S    
O3    V2    S    
C99   C103  A    
C105  C110  A    
C51   C76   A    
N3    C35   S    
O2    C6    A    
C131  H63   S    
C86   C118  S    
C29   C33   A    
O6    C2    A    
C77   H85   S    
C71   C75   A    
O10   V2    S    
C6    C84   S    
C123  H39   S    
C92   H19   S    
C112  C116  A    
C88   C92   A    
C118  H26   S    
C11   C43   A    
C122  H37   S    
C130  H60   S    
C40   C44   A    
C64   C79   A    
C19   C35   A    
C91   H20   S    
C31   C127  S    
C37   C41   A    
N4    C16   A    
C18   C34   A    
C82   C90   A    
C102  C114  A    
C40   C52   A    
C117  H22   S    
C59   C71   A    
C10   C42   A    
C37   C49   A    
C85   C89   A    
C9    C41   A    
O6    V2    S    
O18   V2    S    
C134  H77   S    
C89   H18   S    
C4    C53   S    
C131  H64   S    
C124  H44   S    
C80   H88   S    
C27   C31   A    
C12   N4    A    
C43   C47   A    
C79   H87   S    
C26   H10   S    
O5    V1    S    
C18   C22   A    
O15   C7    A    
C62   C77   A    
C136  H83   S    
O16   V4    S    
C125  H47   S    
C81   C89   A    
C69   C73   A    
C82   C94   A    
C135  H81   S    
N1    C13   A    
C119  H29   S    
C14   O25   S    
C138  H94   S    
O14   C6    A    
C47   H3    S    
C18   H69   S    
C13   C49   A    
C96   C100  A    
C17   H70   S    
C120  H32   S    
C111  C123  S    
C88   C120  S    
C137  H91   S    
C3    C54   S    
C117  H23   S    
C110  C114  A    
C78   H86   S    
C40   C67   A    
C97   C101  A    
C128  H55   S    
C45   C77   A    
C9    O21   S    
C28   C32   A    
C133  H75   S    
C9    N1    A    
C98   C106  A    
C136  H84   S    
C60   C68   A    
C84   C96   A    
C127  H52   S    
C95   H16   S    
C57   C69   A    
C138  H93   S    
C62   C66   A    
C105  C106  A    
C74   H6    S    
C39   C43   A    
C87   C119  S    
C73   H5    S    
C120  H30   S    
C137  H89   S    
C138  H92   S    
O17   V4    S    
C17   C21   A    
C11   O23   S    
C57   C62   A    
C71   C135  S    
C99   C107  A    
C130  H61   S    
C30   C126  S    
C25   C53   A    
C24   C131  S    
C19   C23   A    
C85   C101  A    
C70   C134  S    
C23   C55   A    
C121  H33   S    
C38   C50   A    
C132  H68   S    
C27   C55   A    
C24   C56   A    
C118  H24   S    
O14   V2    S    
O11   V3    S    
C131  H65   S    
C16   C52   A    
C25   H9    S    
O12   C1    A    
C58   C66   A    
C129  H58   S    
C122  H36   S    
C42   C46   A    
C139  H97   S    
C132  H67   S    
N2    C34   S    
C41   C45   A    
N4    C36   S    
C21   C53   A    
C116  C140  S    
C139  H95   S    
N3    C15   A    
C126  H50   S    
C61   C65   A    
C20   C24   A    
C29   C125  S    
