data_mof_unit_43597.cif
_audit_creation_date              2012-12-10T16:55:01-0500
_audit_creation_method            fapswitch 2.2
_symmetry_space_group_name_H-M    P1
_symmetry_Int_Tables_number       1
_space_group_crystal_system       triclinic
_cell_length_a                    9.680172
_cell_length_b                    10.909112
_cell_length_c                    15.608287
_cell_angle_alpha                 90.01645
_cell_angle_beta                  73.33818
_cell_angle_gamma                 90.826266
_cell_volume                      1578.88610817

loop_
_atom_site_label
_atom_site_type_symbol
_atom_type_description
_atom_site_fract_x
_atom_site_fract_y
_atom_site_fract_z
_atom_type_partial_charge
C1    C     C_R   0.996261 0.265551 0.505725 0.821741
C2    C     C_R   0.659648 0.555758 0.897801 0.085735
C3    C     C_R   0.747203 0.628926 0.937220 0.169654
C4    C     C_R   0.510574 0.538259 0.943230 0.055682
C5    C     C_R   0.456888 0.579241 0.032546 0.091363
C6    C     C_R   0.543092 0.661512 0.065795 -0.173667
C7    C     C_R   0.686494 0.684292 0.019523 -0.234913
C8    C     C_R   0.412372 0.485161 0.901891 -0.217838
C9    C     C_R   0.267920 0.467966 0.948542 -0.218604
C10   C     C_R   0.217744 0.493423 0.040266 0.036926
C11   C     C_R   0.316518 0.540368 0.084620 0.013145
C12   C     C_R   0.916303 0.503393 0.671788 0.792383
C13   C     C_R   0.072996 0.467754 0.089579 0.256244
C14   C     C_R   0.031791 0.478349 0.182432 -0.258889
C15   C     C_R   0.276573 0.537417 0.179537 0.178950
C16   C     C_2   0.901478 0.933308 0.480568 -0.179667
C17   C     C_2   0.012658 0.866584 0.487001 -0.328279
C18   C     C_2   0.914917 0.066900 0.474397 -0.254152
C19   C     C_2   0.983393 0.133994 0.522853 0.142456
C20   C     C_2   0.393387 0.444087 0.560275 -0.145529
C21   C     C_2   0.551645 0.431089 0.553570 0.340063
C22   C     C_R   0.002851 0.734687 0.496370 0.846939
C23   C     C_R   0.084540 0.502859 0.327593 0.814430
C24   C     C_R   0.868106 0.529275 0.767618 -0.053152
C25   C     C_R   0.132209 0.507630 0.228586 -0.169587
C26   C     C_R   0.893639 0.649267 0.892443 -0.224121
C27   C     C_R   0.953883 0.599720 0.807939 -0.209978
C28   C     C_R   0.724493 0.503057 0.814149 -0.240302
Cu1   Cu    Cu3+1 0.138640 0.500020 0.499980 0.928143
Cu2   Cu    Cu3+1 0.861360 0.499980 0.500020 0.950820
H1    H     H_    0.750098 0.745535 0.048368 0.143479
H2    H     H_    0.802268 0.890176 0.475571 0.175645
H3    H     H_    0.115545 0.910190 0.484223 0.185447
H4    H     H_    0.868494 0.111231 0.426933 0.138255
H5    H     H_    0.315406 0.400322 0.616395 0.154977
H6    H     H_    0.420708 0.531435 0.444318 0.188527
H7    H     H_    0.622589 0.567330 0.465321 0.156403
H8    H     H_    0.920588 0.457853 0.218937 0.182175
H9    H     H_    0.198434 0.428002 0.912441 0.150036
H10   H     H_    0.960724 0.705757 0.922022 0.139848
H11   H     H_    0.064953 0.621899 0.772338 0.158370
H12   H     H_    0.664988 0.442801 0.782491 0.138206
H13   H     H_    0.499580 0.712570 0.126634 0.163314
H14   H     H_    0.442396 0.460998 0.832095 0.130467
N1    N     N_2   0.346430 0.498660 0.500980 -0.291982
N2    N     N_2   0.652550 0.498630 0.501000 -0.291691
O1    O     O_R   0.117050 0.321960 0.499980 -0.569948
O2    O     O_R   0.882890 0.321920 0.500020 -0.561379
O3    O     O_R   0.052910 0.500040 0.629810 -0.585243
O4    O     O_R   0.818750 0.499990 0.629840 -0.553728
O5    O     O_R   0.117110 0.678080 0.499980 -0.578347
O6    O     O_R   0.882950 0.678040 0.500020 -0.576912
O7    O     O_R   0.181250 0.500010 0.370160 -0.575041
O8    O     O_R   0.947090 0.499960 0.370190 -0.586134
N3    N     N_2   0.965676 0.432642 0.047740 -0.428034
H15   H     H_    0.976843 0.470335 0.985721 0.259650
C29   C     C_3   0.930118 0.303200 0.052716 -0.700361
H16   H     H_    0.025295 0.249847 0.015332 0.222947
H17   H     H_    0.894249 0.271874 0.123486 0.232579
H18   H     H_    0.840679 0.286008 0.022644 0.229235
N4    N     N_2   0.025703 0.080738 0.595758 -0.434579
H19   H     H_    0.958047 0.011638 0.629647 0.272107
C30   C     C_3   0.077808 0.159668 0.654766 -0.690741
H20   H     H_    0.098177 0.103983 0.709344 0.215349
H21   H     H_    0.996376 0.229813 0.685162 0.214072
H22   H     H_    0.181612 0.203814 0.617851 0.246202
N5    N     N_2   0.589700 0.344386 0.610454 -0.363922
H23   H     H_    0.538446 0.360088 0.677044 0.212485
C31   C     C_3   0.572528 0.218065 0.586727 -0.672672
H24   H     H_    0.620126 0.157137 0.627358 0.226742
H25   H     H_    0.628706 0.202510 0.514912 0.238996
H26   H     H_    0.456393 0.193781 0.600030 0.197107
N6    N     N_2   0.385667 0.552368 0.223864 -0.440245
H27   H     H_    0.367008 0.613547 0.276105 0.258193
C32   C     C_3   0.465344 0.443517 0.231213 -0.617551
H28   H     H_    0.552304 0.467610 0.261949 0.206268
H29   H     H_    0.515823 0.404577 0.163904 0.231713
H30   H     H_    0.392968 0.373296 0.273475 0.233720

loop_
_geom_bond_atom_site_label_1
_geom_bond_atom_site_label_2
_ccdc_geom_bond_type
N3    H15   S    
C30   H21   S    
N6    H27   S    
C24   C27   A    
C4    C8    A    
C12   O3    A    
Cu1   O3    S    
Cu2   O8    S    
C26   C27   A    
Cu1   O1    S    
Cu2   O2    S    
C5    C11   A    
C3    C7    A    
C5    C6    A    
C15   C25   A    
C9    H9    S    
C31   H25   S    
C18   C19   D    
N4    C30   S    
C20   H5    S    
C11   C15   A    
C8    C9    A    
C9    C10   A    
C20   N1    D    
Cu2   O4    S    
C30   H22   S    
C13   C14   A    
C21   N5    S    
N6    C32   S    
C31   H24   S    
C17   H3    S    
C23   O7    A    
C1    C19   S    
C7    H1    S    
N5    H23   S    
C24   C28   A    
C1    O1    A    
C29   H18   S    
Cu1   N1    S    
N5    C31   S    
C31   H26   S    
C2    C4    A    
C32   H28   S    
Cu1   Cu2   S    
C14   H8    S    
C32   H29   S    
C27   H11   S    
H6    N1    S    
C18   H4    S    
C15   N6    S    
C6    H13   S    
N3    C29   S    
C23   O8    A    
C22   O6    A    
C21   N2    D    
Cu1   O5    S    
Cu2   O6    S    
Cu2   N2    S    
C3    C26   A    
C8    H14   S    
C4    C5    A    
C10   C13   A    
C12   O4    A    
C1    O2    A    
C6    C7    A    
C16   H2    S    
C12   C24   S    
C17   C22   S    
C2    C3    A    
C26   H10   S    
C29   H16   S    
C16   C17   D    
Cu1   O7    S    
C19   N4    S    
C28   H12   S    
C23   C25   S    
C14   C25   A    
N4    H19   S    
C32   H30   S    
C29   H17   S    
C10   C11   A    
C30   H20   S    
C20   C21   S    
C16   C18   S    
C2    C28   A    
H7    N2    S    
C22   O5    A    
C13   N3    S    
