data_mof_unit_43720.cif
_audit_creation_date              2012-10-26T19:18:50-0400
_audit_creation_method            fapswitch 2.2
_symmetry_space_group_name_H-M    P1
_symmetry_Int_Tables_number       1
_space_group_crystal_system       triclinic
_cell_length_a                    9.772624
_cell_length_b                    10.88672
_cell_length_c                    15.495456
_cell_angle_alpha                 88.596703
_cell_angle_beta                  72.784216
_cell_angle_gamma                 89.564012
_cell_volume                      1574.25538874

loop_
_atom_site_label
_atom_site_type_symbol
_atom_type_description
_atom_site_fract_x
_atom_site_fract_y
_atom_site_fract_z
_atom_type_partial_charge
C1    C     C_R   0.999426 0.265465 0.500826 0.576078
C2    C     C_R   0.246009 0.621779 0.052300 -0.018860
C3    C     C_R   0.339860 0.568633 0.096992 0.012072
C4    C     C_R   0.916352 0.506496 0.672128 0.586547
C5    C     C_R   0.097715 0.624492 0.095259 -0.139502
C6    C     C_R   0.041916 0.578967 0.183635 -0.135442
C7    C     C_R   0.279969 0.517556 0.184246 -0.114256
C8    C     C_2   0.896848 0.935204 0.482234 -0.126461
C9    C     C_2   0.009475 0.866688 0.485245 -0.065956
C10   C     C_2   0.909040 0.069038 0.472305 -0.144754
C11   C     C_2   0.993294 0.133192 0.509320 0.351082
C12   C     C_R   0.686857 0.575904 0.911043 0.054653
C13   C     C_2   0.409786 0.412960 0.535021 0.046044
C14   C     C_2   0.550041 0.433191 0.554440 0.068261
C15   C     C_R   0.001499 0.734530 0.496452 0.551233
C16   C     C_R   0.084219 0.503694 0.327641 0.529349
C17   C     C_R   0.872189 0.523988 0.770811 0.009985
C18   C     C_R   0.133623 0.528143 0.229409 -0.000326
C19   C     C_R   0.922956 0.501378 0.913922 -0.160679
C20   C     C_R   0.967410 0.495709 0.820418 -0.191675
C21   C     C_R   0.736123 0.571516 0.815346 0.397404
C22   C     C_R   0.348664 0.288531 0.558373 0.104993
C23   C     C_R   0.781859 0.534228 0.959537 -0.009092
C24   C     C_R   0.406211 0.192379 0.499669 -0.088906
C25   C     C_R   0.384016 0.070080 0.530191 -0.090185
C26   C     C_R   0.305280 0.042935 0.619677 -0.016858
C27   C     C_R   0.244143 0.137954 0.677760 -0.047569
C28   C     C_R   0.265245 0.260250 0.647174 -0.049020
C29   C     C_R   0.567233 0.369597 0.636305 0.096123
C30   C     C_R   0.498138 0.417505 0.721439 -0.037355
C31   C     C_R   0.498909 0.352678 0.800360 -0.110638
C32   C     C_R   0.565455 0.237935 0.794844 -0.115289
C33   C     C_R   0.627011 0.186211 0.710540 -0.108564
C34   C     C_R   0.542553 0.606382 0.960554 0.037475
C35   C     C_R   0.624736 0.250490 0.631783 -0.073596
C36   C     C_R   0.490035 0.567693 0.052951 -0.033782
C37   C     C_R   0.589844 0.532791 0.098938 -0.133287
C38   C     C_R   0.733974 0.520431 0.053155 -0.133907
C39   C     C_R   0.448211 0.673609 0.922923 0.410368
C40   C     C_R   0.301863 0.677277 0.967208 -0.116505
Cu1   Cu    Cu3+1 0.138640 0.500020 0.499980 0.949912
Cu2   Cu    Cu3+1 0.861360 0.499980 0.500020 0.976607
F1    F     F_    0.059877 0.078646 0.565298 -0.664240
F2    F     F_    0.651716 0.605823 0.764030 -0.586444
F3    F     F_    0.496969 0.750654 0.850361 -0.578347
H1    H     H_    0.806791 0.491880 0.090757 0.111583
H2    H     H_    0.232202 0.727161 0.935671 0.137984
H3    H     H_    0.996970 0.473581 0.950862 0.125289
H4    H     H_    0.075309 0.465524 0.787363 0.129698
H5    H     H_    0.560301 0.516916 0.171028 0.108425
H6    H     H_    0.474855 0.212366 0.431932 0.092410
H7    H     H_    0.430909 0.996488 0.485157 0.099592
H8    H     H_    0.290011 0.948340 0.643627 0.135108
H9    H     H_    0.182991 0.116971 0.747008 0.114562
H10   H     H_    0.225538 0.332798 0.694293 0.089128
H11   H     H_    0.442251 0.504603 0.726616 0.167067
H12   H     H_    0.025468 0.665859 0.061608 0.115467
H13   H     H_    0.447045 0.391068 0.865739 0.116136
H14   H     H_    0.566068 0.187805 0.855906 0.132103
H15   H     H_    0.673419 0.095142 0.706254 0.158345
H16   H     H_    0.662386 0.205467 0.567722 0.117420
H17   H     H_    0.795709 0.893089 0.483798 0.140616
H18   H     H_    0.113919 0.907891 0.475618 0.168388
H19   H     H_    0.844393 0.115835 0.435377 0.078939
H20   H     H_    0.396366 0.583033 0.489851 0.204107
H21   H     H_    0.633204 0.534951 0.443719 0.190608
H22   H     H_    0.345369 0.470241 0.219502 0.120045
H23   H     H_    0.928336 0.588441 0.217298 0.122054
N1    N     N_2   0.346430 0.498660 0.500980 -0.361715
N2    N     N_2   0.652550 0.498630 0.501000 -0.347395
O1    O     O_R   0.117050 0.321960 0.499980 -0.462504
O2    O     O_R   0.882890 0.321920 0.500020 -0.543721
O3    O     O_R   0.052910 0.500040 0.629810 -0.513077
O4    O     O_R   0.818750 0.499990 0.629840 -0.411901
O5    O     O_R   0.117110 0.678080 0.499980 -0.506057
O6    O     O_R   0.882950 0.678040 0.500020 -0.479596
O7    O     O_R   0.181250 0.500010 0.370160 -0.502899
O8    O     O_R   0.947090 0.499960 0.370190 -0.512909

loop_
_geom_bond_atom_site_label_1
_geom_bond_atom_site_label_2
_ccdc_geom_bond_type
C40   H2    S    
C15   O5    A    
C39   F3    S    
Cu1   Cu2   S    
C19   C20   A    
C1    C11   S    
C27   H9    S    
H21   N2    S    
C12   C23   A    
C26   C27   A    
C29   C30   A    
C31   H13   S    
C36   C37   A    
C37   C38   A    
C3    C7    A    
Cu1   O7    S    
C30   C31   A    
Cu2   N2    S    
C17   C20   A    
C7    H22   S    
C16   O7    A    
C8    C9    D    
C11   F1    S    
C4    O4    A    
Cu1   O1    S    
C24   H6    S    
C6    H23   S    
C15   O6    A    
C22   C28   A    
C13   C14   S    
C14   N2    D    
C28   H10   S    
C6    C18   A    
Cu2   O4    S    
C1    O2    A    
C34   C39   A    
C24   C25   A    
C39   C40   A    
C19   H3    S    
C25   C26   A    
C30   H11   S    
C12   C21   A    
C17   C21   A    
C19   C23   A    
C20   H4    S    
Cu1   O5    S    
C21   F2    S    
C31   C32   A    
C7    C18   A    
Cu2   O2    S    
C35   H16   S    
C1    O1    A    
C4    O3    A    
C4    C17   S    
C8    C10   S    
Cu2   O8    S    
C33   H15   S    
C22   C24   A    
C2    C5    A    
C14   C29   S    
C12   C34   A    
C26   H8    S    
Cu1   N1    S    
C9    H18   S    
C10   H19   S    
C23   C38   A    
C29   C35   A    
Cu2   O6    S    
C5    H12   S    
C32   C33   A    
C2    C3    A    
C9    C15   S    
C25   H7    S    
C37   H5    S    
C5    C6    A    
C13   N1    D    
C3    C36   A    
H20   N1    S    
C33   C35   A    
C34   C36   A    
C13   C22   S    
C16   O8    A    
C38   H1    S    
C10   C11   D    
Cu1   O3    S    
C2    C40   A    
C16   C18   S    
C27   C28   A    
C32   H14   S    
C8    H17   S    
