data_mof_unit_15540.cif
_audit_creation_date              2012-12-10T19:10:32-0500
_audit_creation_method            fapswitch 2.2
_symmetry_space_group_name_H-M    P1
_symmetry_Int_Tables_number       1
_space_group_crystal_system       triclinic
_cell_length_a                    10.635932
_cell_length_b                    9.836843
_cell_length_c                    15.720896
_cell_angle_alpha                 90.012498
_cell_angle_beta                  89.384817
_cell_angle_gamma                 89.503366
_cell_volume                      1644.62624644

loop_
_atom_site_label
_atom_site_type_symbol
_atom_type_description
_atom_site_fract_x
_atom_site_fract_y
_atom_site_fract_z
_atom_type_partial_charge
C1    C     C_R   0.257958 0.500412 0.502895 0.851645
C2    C     C_3   0.637409 0.480103 0.949855 -0.398745
C3    C     C_3   0.637408 0.480071 0.048075 -0.401368
C4    C     C_1   0.501383 0.500016 0.825854 -0.132990
C5    C     C_1   0.501400 0.499924 0.174088 -0.135267
C6    C     C_1   0.500955 0.499942 0.249491 -0.213464
C7    C     C_3   0.070189 0.644910 0.528078 -0.397630
C8    C     C_3   0.074023 0.400444 0.576404 -0.396221
C9    C     C_3   0.926990 0.644655 0.536595 -0.052817
C10   C     C_3   0.929914 0.386749 0.571430 -0.034311
C11   C     C_3   0.071039 0.457319 0.418925 -0.422750
C12   C     C_3   0.121066 0.500582 0.506684 0.124550
C13   C     C_3   0.877687 0.500356 0.510652 0.152790
C14   C     C_R   0.500358 0.499983 0.338473 0.910328
C15   C     C_3   0.927250 0.468406 0.419252 -0.508789
C16   C     C_3   0.398590 0.082323 0.442761 0.053592
C17   C     C_3   0.402433 0.920607 0.439902 0.052205
C18   C     C_3   0.624207 0.080113 0.468670 0.023408
C19   C     C_3   0.625050 0.918169 0.469899 0.028244
C20   C     C_3   0.479933 0.080796 0.585069 -0.312119
C21   C     C_3   0.476496 0.919971 0.584634 -0.319572
C22   C     C_R   0.741433 0.499802 0.505653 0.809047
C23   C     C_R   0.500146 0.500016 0.661494 0.891475
C24   C     C_3   0.448587 0.636910 0.049484 -0.399730
C25   C     C_3   0.418788 0.382857 0.049637 -0.399823
C26   C     C_3   0.418790 0.382884 0.951448 -0.399307
C27   C     C_3   0.448587 0.636940 0.951292 -0.399852
C28   C     C_1   0.500868 0.500030 0.750462 -0.207013
C29   C     C_3   0.501581 0.499937 0.082577 0.377628
C30   C     C_3   0.501580 0.499987 0.917357 0.375274
H1    H     H_    0.350979 0.653412 0.928315 0.162542
H2    H     H_    0.320677 0.395059 0.928473 0.162842
H3    H     H_    0.889966 0.722552 0.491463 0.144079
H4    H     H_    0.910062 0.286224 0.541943 0.155031
H5    H     H_    0.110482 0.523170 0.367754 0.166064
H6    H     H_    0.100158 0.350758 0.404590 0.187298
H7    H     H_    0.897511 0.550094 0.374503 0.171460
H8    H     H_    0.887899 0.371314 0.395241 0.175475
H9    H     H_    0.413771 0.119154 0.376940 0.108621
H10   H     H_    0.426082 0.891365 0.373680 0.108372
H11   H     H_    0.556652 0.114501 0.627593 0.151506
H12   H     H_    0.548825 0.880736 0.629185 0.153876
H13   H     H_    0.393164 0.123039 0.615023 0.169795
H14   H     H_    0.385800 0.884022 0.611386 0.163537
H15   H     H_    0.697438 0.112964 0.514380 0.123940
H16   H     H_    0.696649 0.886397 0.517354 0.118789
H17   H     H_    0.350979 0.653367 0.073888 0.162283
H18   H     H_    0.320676 0.395025 0.074042 0.162500
H19   H     H_    0.455152 0.283355 0.073046 0.161836
H20   H     H_    0.506669 0.722578 0.072783 0.161858
H21   H     H_    0.455158 0.283395 0.927465 0.162959
H22   H     H_    0.506671 0.722621 0.927194 0.162538
H23   H     H_    0.698649 0.563109 0.071352 0.162411
H24   H     H_    0.677424 0.382197 0.071458 0.162968
H25   H     H_    0.698647 0.563155 0.925723 0.163130
H26   H     H_    0.677430 0.382251 0.925830 0.164535
H27   H     H_    0.094109 0.714208 0.474967 0.170531
H28   H     H_    0.117115 0.297979 0.568173 0.166138
H29   H     H_    0.114656 0.684235 0.586932 0.172398
H30   H     H_    0.103153 0.438101 0.639937 0.164659
N1    N     N_3   0.499750 0.138610 0.498180 -0.062342
N2    N     N_3   0.499750 0.861390 0.498180 -0.060521
O1    O     O_R   0.314910 0.616040 0.499980 -0.598127
O2    O     O_R   0.314910 0.383960 0.499980 -0.595083
O3    O     O_R   0.500120 0.616090 0.377110 -0.621461
O4    O     O_R   0.500120 0.383910 0.377110 -0.625497
O5    O     O_R   0.685320 0.616040 0.499960 -0.657811
O6    O     O_R   0.685320 0.383960 0.499960 -0.651231
O7    O     O_R   0.500110 0.615990 0.622830 -0.625100
O8    O     O_R   0.500110 0.384010 0.622830 -0.623823
Zn1   Zn    Zn3+2 0.500150 0.654960 0.499960 0.905143
Zn2   Zn    Zn3+2 0.500150 0.345040 0.499960 0.907648
N3    N     N_3   0.274498 0.137575 0.466703 -0.413808
H31   H     H_    0.240887 0.099656 0.524397 0.160936
H32   H     H_    0.209309 0.117364 0.419139 0.142288
N4    N     N_3   0.279426 0.859608 0.454304 -0.414237
H33   H     H_    0.240958 0.884513 0.513554 0.167950
H34   H     H_    0.217479 0.889611 0.406490 0.138844
N5    N     N_3   0.665804 0.132363 0.385096 -0.462239
H35   H     H_    0.600908 0.117354 0.337001 0.168896
H36   H     H_    0.687232 0.234934 0.387248 0.234149
N6    N     N_3   0.670913 0.863751 0.387476 -0.464051
H37   H     H_    0.613237 0.887191 0.336372 0.170180
H38   H     H_    0.685173 0.759576 0.388074 0.237567
N7    N     N_3   0.889038 0.684979 0.623153 -0.484781
H39   H     H_    0.918993 0.784605 0.633505 0.167760
H40   H     H_    0.791149 0.688857 0.628282 0.195354
N8    N     N_3   0.872863 0.384373 0.657079 -0.485750
H41   H     H_    0.774897 0.385120 0.653673 0.187888
H42   H     H_    0.900729 0.467136 0.693545 0.218872

loop_
_geom_bond_atom_site_label_1
_geom_bond_atom_site_label_2
_ccdc_geom_bond_type
C1    O2    A    
C26   H2    S    
N3    H31   S    
C23   O7    A    
C24   C27   S    
C20   H11   S    
C19   H16   S    
N7    H39   S    
C10   N8    S    
C11   H6    S    
N4    H34   S    
C2    H25   S    
C5    C6    T    
C3    H24   S    
C19   N2    S    
C25   C29   S    
O7    Zn1   S    
C18   C19   S    
C20   N1    S    
C3    C29   S    
C9    C13   S    
C24   C29   S    
C15   H7    S    
C8    H28   S    
C11   C15   S    
O4    Zn2   S    
C16   C17   S    
C13   C22   S    
C17   N4    S    
C19   N6    S    
O6    Zn2   S    
C9    N7    S    
C27   C30   S    
C9    H3    S    
N3    H32   S    
C23   O8    A    
C1    C12   S    
C1    O1    A    
C7    H29   S    
C4    C28   T    
C5    C29   S    
N7    H40   S    
C24   H20   S    
C7    C12   S    
C27   H1    S    
C16   N3    S    
N4    H33   S    
N5    H36   S    
C18   N5    S    
C25   C26   S    
O3    Zn1   S    
C21   H12   S    
C17   H10   S    
C15   H8    S    
C17   N2    S    
C6    C14   S    
C21   H14   S    
C8    C12   S    
C14   O4    A    
C10   H4    S    
C23   C28   S    
C20   C21   S    
C25   H18   S    
C22   O6    A    
C21   N2    S    
N1    Zn2   S    
N8    H42   S    
C26   C30   S    
N6    H38   S    
C13   C15   S    
C16   N1    S    
C18   H15   S    
C20   H13   S    
C27   H22   S    
C7    C9    S    
C24   H17   S    
O1    Zn1   S    
C10   C13   S    
C11   C12   S    
C18   N1    S    
C2    C30   S    
C11   H5    S    
C2    C3    S    
C2    H26   S    
C26   H21   S    
C8    H30   S    
C3    H23   S    
C14   O3    A    
N2    Zn1   S    
O5    Zn1   S    
O2    Zn2   S    
C25   H19   S    
C22   O5    A    
C16   H9    S    
N5    H35   S    
N8    H41   S    
C8    C10   S    
N6    H37   S    
O8    Zn2   S    
C7    H27   S    
C4    C30   S    
