data_mof_unit_55452.cif
_audit_creation_date              2012-12-11T19:16:05-0500
_audit_creation_method            fapswitch 2.2
_symmetry_space_group_name_H-M    P1
_symmetry_Int_Tables_number       1
_space_group_crystal_system       triclinic
_cell_length_a                    8.290335
_cell_length_b                    15.105751
_cell_length_c                    18.785423
_cell_angle_alpha                 102.710534
_cell_angle_beta                  90.580475
_cell_angle_gamma                 99.498571
_cell_volume                      2260.77853577

loop_
_atom_site_label
_atom_site_type_symbol
_atom_type_description
_atom_site_fract_x
_atom_site_fract_y
_atom_site_fract_z
_atom_type_partial_charge
Ba1   Ba    Ba6+2 0.853510 0.540900 0.466480 1.631267
Ba2   Ba    Ba6+2 0.336320 0.459170 0.533530 1.631239
C1    C     C_3   0.681666 0.870652 0.307593 -0.283994
C2    C     C_3   0.658255 0.775543 0.324475 0.367549
C3    C     C_3   0.522467 0.302124 0.295872 0.315220
C4    C     C_3   0.600925 0.271406 0.223295 -0.344098
C5    C     C_3   0.058435 0.279399 0.723241 0.349714
C6    C     C_3   0.054093 0.256516 0.798133 -0.367271
C7    C     C_3   0.537960 0.228220 0.685307 0.354480
C8    C     C_3   0.509153 0.136531 0.707903 -0.370059
C9    C     C_R   0.995770 0.457613 0.047005 0.015331
C10   C     C_R   0.902302 0.409688 0.093460 -0.094217
C11   C     C_R   0.770518 0.423464 0.950941 -0.097442
C12   C     C_3   0.206553 0.753858 0.281580 0.386956
C13   C     C_R   0.934476 0.460281 0.976039 0.028182
C14   C     C_R   0.713627 0.422819 0.880811 -0.092087
C15   C     C_R   0.816718 0.459037 0.831823 -0.030138
C16   C     C_R   0.979244 0.501944 0.856440 0.000103
C17   C     C_R   0.038187 0.503156 0.929025 0.033565
C18   C     C_R   0.762108 0.453793 0.758948 -0.006172
C19   C     C_R   0.870588 0.487886 0.711086 -0.293662
C20   C     C_R   0.027723 0.535333 0.734560 0.050660
C21   C     C_R   0.082046 0.544460 0.808811 -0.040684
C22   C     C_R   0.157689 0.501283 0.071943 0.033438
C23   C     C_3   0.129397 0.720279 0.203923 0.334798
C24   C     C_R   0.215629 0.502866 0.144882 -0.007546
C25   C     C_R   0.110656 0.462935 0.193139 -0.038481
C26   C     C_R   0.959566 0.411868 0.163835 -0.015590
C27   C     C_R   0.234720 0.595365 0.837496 -0.013031
C28   C     C_R   0.293221 0.595755 0.907543 -0.069013
C29   C     C_R   0.200214 0.547063 0.953895 0.024636
C30   C     C_R   0.261802 0.543771 0.024820 0.030986
C31   C     C_R   0.425999 0.579723 0.049943 -0.091147
C32   C     C_R   0.378293 0.544496 0.169397 -0.044547
C33   C     C_R   0.482531 0.579779 0.120148 -0.089728
C34   C     C_3   0.205376 0.757839 0.642412 0.292287
C35   C     C_R   0.430716 0.551327 0.242790 -0.019567
C36   C     C_R   0.319275 0.520572 0.291702 -0.264208
C37   C     C_R   0.161033 0.473515 0.268329 0.101147
C38   C     C_R   0.332651 0.823093 0.464136 -0.016670
C39   C     C_R   0.576689 0.793593 0.521384 0.058908
C40   C     C_R   0.785255 0.225230 0.498681 -0.247168
C41   C     C_R   0.867101 0.172232 0.534803 0.049305
C42   C     C_R   0.794474 0.083171 0.537935 -0.135105
C43   C     C_R   0.638595 0.042967 0.504155 -0.029908
C44   C     C_R   0.553185 0.096811 0.467278 -0.089077
C45   C     C_3   0.153146 0.850486 0.675526 -0.225705
C46   C     C_R   0.566091 0.949379 0.503636 0.002407
C47   C     C_R   0.402447 0.917019 0.475138 -0.089985
C48   C     C_R   0.314406 0.977843 0.453366 -0.115784
C49   C     C_R   0.397305 0.054332 0.432800 0.418401
C50   C     C_R   0.649312 0.886369 0.529238 -0.132183
C51   C     C_R   0.421546 0.762223 0.486718 -0.273076
C52   C     C_R   0.624089 0.190855 0.469333 0.043290
C53   C     C_3   0.943091 0.230514 0.329809 0.213061
C54   C     C_3   0.913075 0.133417 0.281277 -0.208871
C55   C     C_3   0.733004 0.674343 0.687283 0.304544
C56   C     C_3   0.750659 0.705371 0.770164 -0.381942
H1    H     H_    0.730595 0.780277 0.375563 0.091229
H2    H     H_    0.213798 0.878818 0.730817 0.138897
H3    H     H_    0.018702 0.839526 0.681839 0.129897
H4    H     H_    0.821730 0.243506 0.347041 0.027050
H5    H     H_    0.030590 0.231739 0.374789 0.073308
H6    H     H_    0.808389 0.124541 0.241648 0.110755
H7    H     H_    0.884254 0.082109 0.315558 0.113397
H8    H     H_    0.021921 0.119544 0.249647 0.179460
H9    H     H_    0.850742 0.657001 0.666319 -0.005007
H10   H     H_    0.635504 0.612559 0.672826 0.073654
H11   H     H_    0.813843 0.900321 0.311052 0.177059
H12   H     H_    0.850981 0.765528 0.786274 0.126161
H13   H     H_    0.779370 0.649068 0.794580 0.063351
H14   H     H_    0.634425 0.725006 0.792029 0.127377
H15   H     H_    0.526811 0.754850 0.333650 -0.116064
H16   H     H_    0.619429 0.917061 0.348102 0.088123
H17   H     H_    0.587848 0.370378 0.325651 0.070515
H18   H     H_    0.532234 0.204624 0.191573 0.124792
H19   H     H_    0.602497 0.323773 0.189903 0.062673
H20   H     H_    0.726707 0.261487 0.232842 0.130863
H21   H     H_    0.628592 0.866530 0.252196 0.152529
H22   H     H_    0.212823 0.681083 0.170012 -0.085514
H23   H     H_    0.161259 0.336991 0.724188 0.105750
H24   H     H_    0.941224 0.301281 0.711995 -0.050825
H25   H     H_    0.169924 0.233854 0.810639 0.144099
H26   H     H_    0.039738 0.318113 0.840583 0.074622
H27   H     H_    0.949417 0.200605 0.799317 0.114420
H28   H     H_    0.671261 0.247070 0.678469 -0.068646
H29   H     H_    0.470670 0.219521 0.632122 0.078538
H30   H     H_    0.549555 0.082774 0.664823 0.070340
H31   H     H_    0.376971 0.115960 0.715937 0.140259
H32   H     H_    0.244193 0.693159 0.297050 -0.158020
H33   H     H_    0.579913 0.142500 0.759759 0.115977
H34   H     H_    0.828426 0.481937 0.655309 0.056808
H35   H     H_    0.586983 0.393108 0.865690 0.111688
H36   H     H_    0.881917 0.373550 0.195278 0.107884
H37   H     H_    0.312739 0.635286 0.806136 0.106589
H38   H     H_    0.609216 0.609358 0.135441 0.123291
H39   H     H_    0.360479 0.526929 0.347703 0.072091
H40   H     H_    0.680803 0.395492 0.984767 0.070762
H41   H     H_    0.783750 0.368286 0.076857 0.060744
H42   H     H_    0.412127 0.636711 0.924292 0.067488
H43   H     H_    0.317363 0.806241 0.281831 0.045915
H44   H     H_    0.515821 0.607522 0.016048 0.085886
H45   H     H_    0.367221 0.690441 0.479682 0.069813
H46   H     H_    0.187020 0.956479 0.435575 0.134204
H47   H     H_    0.770838 0.906619 0.554605 0.085939
H48   H     H_    0.862204 0.047384 0.568234 0.074339
H49   H     H_    0.010364 0.674171 0.203897 0.071359
H50   H     H_    0.334262 0.769672 0.626730 0.005746
H51   H     H_    0.125624 0.721966 0.593482 0.066128
O1    O     O_2   0.871970 0.437290 0.322980 -0.484299
O2    O     O_3   0.692196 0.746653 0.659128 -0.633264
O3    O     O_3   0.094191 0.792633 0.329235 -0.544400
O4    O     O_2   0.317740 0.562750 0.677070 -0.458447
O5    O     O_3   0.068290 0.555610 0.587550 -0.509717
O6    O     O_3   0.528280 0.392520 0.627490 -0.482927
O7    O     O_3   0.197514 0.709086 0.697896 -0.647170
O8    O     O_3   0.609300 0.386850 0.459730 -0.506160
O9    O     O_3   0.105720 0.342720 0.589770 -0.506088
O10   O     O_2   0.206981 0.181195 0.543223 -0.488999
O11   O     O_3   0.081566 0.201095 0.670886 -0.605734
O12   O     O_3   0.121420 0.444460 0.412460 -0.508559
O13   O     O_3   0.580410 0.613230 0.540280 -0.485973
O14   O     O_2   0.337420 0.273080 0.457680 -0.433731
O15   O     O_3   0.520205 0.233906 0.335461 -0.554545
O16   O     O_2   0.426444 0.463477 0.757271 -0.497853
O17   O     O_3   0.479975 0.294711 0.738933 -0.603241
O18   O     O_3   0.661430 0.607560 0.372520 -0.481759
O19   O     O_2   0.769401 0.543006 0.243359 -0.492695
O20   O     O_3   0.009757 0.292643 0.288657 -0.662985
O21   O     O_3   0.711749 0.712464 0.266535 -0.572861
O22   O     O_2   0.852280 0.726960 0.542370 -0.474631
O23   O     O_3   0.083990 0.657360 0.410240 -0.464234
O24   O     O_2   0.990803 0.816874 0.460066 -0.505375
P1    P     P_3+3 0.039440 0.410950 0.333260 0.942990
P2    P     P_3+3 0.676740 0.714970 0.563520 0.983560
P3    P     P_3+3 0.128180 0.774951 0.417096 0.975654
P4    P     P_3+3 0.150270 0.589130 0.666750 0.966945
P5    P     P_3+3 0.066682 0.223433 0.583694 0.947227
P6    P     P_3+3 0.643017 0.601259 0.279402 0.959882
P7    P     P_3+3 0.518331 0.270910 0.431027 1.026788
P8    P     P_3+3 0.550432 0.403311 0.721600 0.929872
C57   C     C_3   0.198043 0.922101 0.630264 -0.498390
H52   H     H_    0.332379 0.935084 0.624400 0.132888
H53   H     H_    0.133660 0.898815 0.576065 0.164097
H54   H     H_    0.159367 0.987573 0.657856 0.156172
C58   C     C_3   0.349241 0.307189 0.278159 -0.239932
H55   H     H_    0.279370 0.237666 0.253553 0.172440
H56   H     H_    0.300203 0.335387 0.330864 0.092249
H57   H     H_    0.343551 0.350226 0.237999 0.001734
C59   C     C_3   0.873932 0.318573 0.491128 -0.248451
H58   H     H_    0.002237 0.316009 0.478350 0.133832
H59   H     H_    0.841927 0.340883 0.442723 0.084255
H60   H     H_    0.858927 0.372687 0.539959 0.125110
S1    S     S_3+6 0.338881 0.054080 0.341847 -0.080921
O25   O     O_2   0.226837 0.966064 0.307801 -0.247616
O26   O     O_2   0.246014 0.130688 0.341412 -0.336897
O27   O     O_3   0.505156 0.061370 0.291519 -0.535362
H61   H     H_    0.461724 0.054593 0.240947 0.380503
S2    S     S_3+6 0.103140 0.810836 0.160163 -0.008837
O28   O     O_2   0.039404 0.769511 0.082776 -0.294182
O29   O     O_2   0.982273 0.865719 0.199211 -0.219365
O30   O     O_3   0.283506 0.880387 0.159524 -0.466487
H62   H     H_    0.359778 0.838705 0.138291 0.314871

loop_
_geom_bond_atom_site_label_1
_geom_bond_atom_site_label_2
_ccdc_geom_bond_type
C53   C54   S    
O6    P8    S    
C49   S1    S    
C48   H46   S    
O27   H61   S    
C34   H50   S    
C32   C35   A    
Ba1   O23   S    
C17   C29   A    
Ba2   O9    S    
C5    C6    S    
C55   O2    S    
Ba2   O14   S    
C12   O3    S    
C38   P3    S    
C20   P4    S    
C8    H30   S    
C14   H35   S    
O30   H62   S    
C10   C26   A    
C21   C27   A    
C1    H11   S    
O19   P6    D    
C22   C24   A    
C6    H27   S    
O22   P2    D    
C28   C29   A    
C32   C33   A    
Ba2   O4    S    
C56   H13   S    
C4    H20   S    
C38   C47   A    
C23   H22   S    
C53   H4    S    
C28   H42   S    
C9    C22   A    
C15   C18   A    
C34   C45   S    
C26   H36   S    
Ba1   Ba2   S    
O5    P4    S    
C11   H40   S    
C1    H16   S    
Ba1   O13   S    
C12   H32   S    
C10   H41   S    
C45   H2    S    
C9    C13   A    
C24   C32   A    
C52   P7    S    
S2    O28   D    
C8    H31   S    
C25   C37   A    
C14   C15   A    
C53   O20   S    
C59   H60   S    
C53   H5    S    
C23   S2    S    
O24   P3    D    
C54   H6    S    
O12   P1    S    
C7    C8    S    
C39   C50   A    
S1    O26   D    
C1    H21   S    
C19   C20   A    
O7    P4    S    
Ba2   P4    S    
C57   H54   S    
O18   P6    S    
C35   C36   A    
C55   H9    S    
C36   H39   S    
O21   P6    S    
C18   P8    S    
Ba2   O8    S    
C48   C49   A    
C58   H56   S    
Ba2   O13   S    
C36   C37   A    
O3    P3    S    
C31   H44   S    
S1    O27   S    
O16   P8    D    
C27   H37   S    
C16   C17   A    
C4    H19   S    
C2    O21   S    
Ba1   O22   S    
C33   H38   S    
O14   P7    D    
C16   C21   A    
C3    H17   S    
C13   C17   A    
C41   C42   A    
C22   C30   A    
C27   C28   A    
C59   H59   S    
C7    H28   S    
Ba2   O12   S    
C58   H57   S    
C56   H14   S    
Ba2   O6    S    
C29   C30   A    
C3    O15   S    
O23   P3    S    
C45   C57   S    
C44   C52   A    
S2    O29   D    
C15   C16   A    
S1    O25   D    
S2    O30   S    
Ba1   O8    S    
C41   P5    S    
C39   C51   A    
C2    H15   S    
C46   C47   A    
C5    H23   S    
C8    H33   S    
C47   C48   A    
C11   C13   A    
C24   C25   A    
O4    P4    D    
O1    P1    D    
O8    P7    S    
O11   P5    S    
Ba1   O5    S    
C55   H10   S    
C1    C2    S    
C34   O7    S    
C34   H51   S    
C39   P2    S    
C42   C43   A    
C23   H49   S    
C58   H55   S    
C43   C46   A    
C35   P6    S    
C3    C58   S    
C6    H26   S    
O10   P5    D    
C5    O11   S    
O15   P7    S    
Ba1   O1    S    
C56   H12   S    
Ba1   O18   S    
C6    H25   S    
C12   H43   S    
C45   H3    S    
C9    C10   A    
C4    H18   S    
C54   H7    S    
C42   H48   S    
O17   P8    S    
C7    O17   S    
C59   H58   S    
C30   C31   A    
O9    P5    S    
C40   C52   A    
Ba2   O5    S    
O2    P2    S    
C55   C56   S    
C3    C4    S    
C51   H45   S    
C54   H8    S    
C44   C49   A    
C2    H1    S    
C31   C33   A    
C57   H53   S    
C12   C23   S    
C40   C59   S    
Ba1   O12   S    
O13   P2    S    
C50   H47   S    
O20   P1    S    
C43   C44   A    
C46   C50   A    
C5    H24   S    
C18   C19   A    
C38   C51   A    
C40   C41   A    
C11   C14   A    
C25   C26   A    
C57   H52   S    
C20   C21   A    
Ba1   P2    S    
C19   H34   S    
C7    H29   S    
Ba1   P1    S    
C37   P1    S    
