data_mof_unit_26416.cif
_audit_creation_date              2012-12-10T20:55:04-0500
_audit_creation_method            fapswitch 2.2
_symmetry_space_group_name_H-M    P1
_symmetry_Int_Tables_number       1
_space_group_crystal_system       triclinic
_cell_length_a                    15.78576
_cell_length_b                    15.031873
_cell_length_c                    10.61993
_cell_angle_alpha                 90.0249
_cell_angle_beta                  90.029192
_cell_angle_gamma                 89.992881
_cell_volume                      2519.99771509

loop_
_atom_site_label
_atom_site_type_symbol
_atom_type_description
_atom_site_fract_x
_atom_site_fract_y
_atom_site_fract_z
_atom_type_partial_charge
C1    C     C_R   0.338628 0.500019 0.500342 0.914993
C2    C     C_R   0.661383 0.499999 0.500146 0.915542
C3    C     C_R   0.955666 0.418726 0.563771 0.158340
C4    C     C_R   0.044796 0.419210 0.560443 0.146459
C5    C     C_1   0.823554 0.500389 0.535161 -0.012588
C6    C     C_1   0.176320 0.500950 0.533331 -0.014567
C7    C     C_1   0.250572 0.500270 0.516102 -0.202164
C8    C     C_1   0.749401 0.500108 0.516661 -0.205793
C9    C     C_R   0.422797 0.952776 0.495035 0.132778
C10   C     C_R   0.577304 0.952732 0.505276 0.132977
C11   C     C_R   0.500041 0.905021 0.500136 -0.105980
C12   C     C_R   0.577290 0.047298 0.505994 0.159269
C13   C     C_R   0.422837 0.047331 0.494438 0.159489
C14   C     C_R   0.500065 0.094900 0.500197 -0.099907
C15   C     C_1   0.500020 0.807072 0.500067 0.039458
C16   C     C_1   0.500045 0.192886 0.500093 0.169845
C17   C     C_R   0.512745 0.499894 0.259637 0.927309
C18   C     C_R   0.486716 0.499930 0.740095 0.930753
C19   C     C_R   0.555512 0.661792 0.102570 0.210190
C20   C     C_R   0.443071 0.661782 0.896885 0.209797
C21   C     C_R   0.530210 0.742993 0.047543 0.103004
C22   C     C_R   0.468324 0.742984 0.951995 0.102954
C23   C     C_R   0.478266 0.580780 0.942001 -0.071787
C24   C     C_R   0.520206 0.580762 0.057597 -0.071472
C25   C     C_R   0.525536 0.499298 0.123646 -0.157249
C26   C     C_R   0.472986 0.499392 0.875849 -0.157116
C27   C     C_R   0.516855 0.417469 0.059612 0.164731
C28   C     C_R   0.481055 0.417579 0.939823 0.165164
C29   C     C_R   0.955159 0.583130 0.560910 0.150775
C30   C     C_R   0.044165 0.583477 0.559353 0.152377
C31   C     C_R   0.912206 0.500767 0.556860 0.040204
C32   C     C_R   0.087453 0.501480 0.553383 0.033376
N1    N     N_1   0.500000 0.270550 0.500000 -0.100093
N2    N     N_1   0.500000 0.729450 0.500000 -0.100048
O1    O     O_R   0.378020 0.573650 0.500040 -0.607210
O2    O     O_R   0.621980 0.573650 0.499960 -0.606244
O3    O     O_R   0.378020 0.426320 0.500100 -0.615690
O4    O     O_R   0.621980 0.426320 0.499900 -0.615863
O5    O     O_R   0.500000 0.573680 0.316780 -0.601429
O6    O     O_R   0.500000 0.573680 0.683220 -0.601313
O7    O     O_R   0.500000 0.426350 0.316830 -0.615365
O8    O     O_R   0.500000 0.426350 0.683170 -0.614526
Zn1   Zn    Zn3+2 0.500000 0.598370 0.500000 0.965754
Zn2   Zn    Zn3+2 0.500000 0.401630 0.500000 0.955833
C33   C     C_3   0.549419 0.330811 0.114775 -0.846176
H1    H     H_    0.580332 0.289989 0.040744 0.229391
H2    H     H_    0.599142 0.342925 0.186788 0.242104
H3    H     H_    0.496478 0.292267 0.156720 0.246896
C34   C     C_3   0.447940 0.331221 0.884388 -0.847910
H4    H     H_    0.416193 0.290922 0.958160 0.229234
H5    H     H_    0.398831 0.343789 0.811605 0.241715
H6    H     H_    0.500718 0.291994 0.843193 0.247333
N3    N     N_2   0.620533 0.660823 0.196238 -0.270704
H7    H     H_    0.626175 0.718009 0.249138 0.255587
C35   C     C_3   0.701406 0.626856 0.154049 -0.801880
H8    H     H_    0.746202 0.624748 0.234675 0.239605
H9    H     H_    0.727973 0.670826 0.079821 0.243959
H10   H     H_    0.694686 0.558249 0.116556 0.244206
N4    N     N_2   0.378259 0.660768 0.802883 -0.271143
H11   H     H_    0.372798 0.717916 0.749925 0.255194
C36   C     C_3   0.297248 0.627021 0.844802 -0.800694
H12   H     H_    0.270765 0.670934 0.919220 0.243315
H13   H     H_    0.303736 0.558305 0.881895 0.244522
H14   H     H_    0.252461 0.625256 0.764192 0.241645
N5    N     N_2   0.570579 0.823737 0.083726 -0.308171
H15   H     H_    0.588837 0.864368 0.010540 0.243990
C37   C     C_3   0.532381 0.871013 0.187648 -0.830641
H16   H     H_    0.490472 0.924830 0.152389 0.236517
H17   H     H_    0.583181 0.901660 0.245170 0.248796
H18   H     H_    0.494938 0.825402 0.247814 0.252004
N6    N     N_2   0.427941 0.823716 0.915869 -0.308167
H19   H     H_    0.409429 0.864229 0.989102 0.243618
C38   C     C_3   0.466285 0.871163 0.812286 -0.830486
H20   H     H_    0.507438 0.925511 0.847920 0.236415
H21   H     H_    0.415515 0.901156 0.754063 0.248752
H22   H     H_    0.504551 0.825852 0.752721 0.251973
C39   C     C_3   0.091574 0.671627 0.560728 -0.886703
H23   H     H_    0.161408 0.664692 0.560796 0.241382
H24   H     H_    0.074279 0.711329 0.476455 0.242827
H25   H     H_    0.075049 0.709551 0.646953 0.239865
C40   C     C_3   0.907277 0.671022 0.563537 -0.885398
H26   H     H_    0.837581 0.663631 0.569206 0.244630
H27   H     H_    0.926358 0.710179 0.647480 0.239491
H28   H     H_    0.921517 0.709734 0.477130 0.241391
C41   C     C_3   0.907825 0.331099 0.571518 -0.886900
H29   H     H_    0.927641 0.294322 0.657263 0.239195
H30   H     H_    0.838190 0.338606 0.578412 0.244003
H31   H     H_    0.921157 0.290398 0.486529 0.243132
C42   C     C_3   0.096214 0.333510 0.560802 -0.872965
H32   H     H_    0.058171 0.272001 0.568103 0.243280
H33   H     H_    0.133417 0.328618 0.472332 0.240583
H34   H     H_    0.140618 0.334020 0.641954 0.239904
N7    N     N_2   0.344516 0.094837 0.493479 -0.295474
H35   H     H_    0.293470 0.063637 0.534894 0.249771
C43   C     C_3   0.323921 0.142827 0.379060 -0.779887
H36   H     H_    0.267759 0.112322 0.333107 0.227994
H37   H     H_    0.377199 0.142455 0.310526 0.234490
H38   H     H_    0.308633 0.212868 0.403130 0.252353
N8    N     N_2   0.655623 0.094769 0.507075 -0.295692
H39   H     H_    0.706692 0.063514 0.465749 0.249701
C44   C     C_3   0.676158 0.142841 0.621512 -0.778537
H40   H     H_    0.732255 0.112313 0.667595 0.228407
H41   H     H_    0.622816 0.142597 0.689934 0.234530
H42   H     H_    0.691538 0.212842 0.597448 0.251794
N9    N     N_2   0.344024 0.906436 0.492504 -0.311055
H43   H     H_    0.341595 0.851201 0.549968 0.229256
C45   C     C_3   0.311595 0.888724 0.367629 -0.777198
H44   H     H_    0.351529 0.838301 0.319585 0.236036
H45   H     H_    0.310031 0.950557 0.310522 0.253865
H46   H     H_    0.246067 0.862411 0.374834 0.237611
N10   N     N_2   0.656056 0.906326 0.507618 -0.310998
H47   H     H_    0.658424 0.851189 0.449889 0.229499
C46   C     C_3   0.688444 0.888342 0.632423 -0.778461
H48   H     H_    0.648201 0.838222 0.680463 0.236081
H49   H     H_    0.690450 0.950170 0.689587 0.254133
H50   H     H_    0.753794 0.861520 0.625109 0.238292

loop_
_geom_bond_atom_site_label_1
_geom_bond_atom_site_label_2
_ccdc_geom_bond_type
C6    C32   S    
C35   H8    S    
N7    H35   S    
C3    C41   S    
C38   H21   S    
C38   H20   S    
C43   H36   S    
C18   C26   S    
C40   H26   S    
C43   H38   S    
C39   H23   S    
C29   C40   S    
N9    C45   S    
C44   H40   S    
C19   C21   A    
C4    C42   S    
C18   O8    A    
C33   H3    S    
C9    N9    S    
C17   O5    A    
C23   C26   A    
C36   H13   S    
C18   O6    A    
C12   N8    S    
C9    C13   A    
C30   C39   S    
C11   C15   S    
O6    Zn1   S    
N10   H47   S    
C34   H5    S    
C45   H44   S    
C42   H33   S    
O1    Zn1   S    
C15   N2    T    
C1    O3    A    
C46   H50   S    
C27   C33   S    
N3    C35   S    
N4    H11   S    
C44   H41   S    
C21   C22   A    
C45   H45   S    
O8    Zn2   S    
C40   H27   S    
C33   H2    S    
N4    C36   S    
C41   H30   S    
C37   H16   S    
C24   C25   A    
N6    C38   S    
O5    Zn1   S    
N5    C37   S    
C41   H29   S    
C13   N7    S    
C20   N4    S    
C36   H14   S    
O4    Zn2   S    
C29   C30   A    
C16   N1    T    
C28   C34   S    
C2    O4    A    
N8    H39   S    
C20   C23   A    
C23   C24   A    
C34   H6    S    
C39   H24   S    
C10   N10   S    
N10   C46   S    
C42   H34   S    
C3    C31   A    
C9    C11   A    
C4    C32   A    
C10   C12   A    
N8    C44   S    
C12   C14   A    
C34   H4    S    
C44   H42   S    
C35   H9    S    
O7    Zn2   S    
C14   C16   S    
C3    C4    A    
C22   N6    S    
C40   H28   S    
C1    O1    A    
C46   H48   S    
C41   H31   S    
C2    O2    A    
C21   N5    S    
C1    C7    S    
N1    Zn2   S    
C2    C8    S    
N2    Zn1   S    
C20   C22   A    
C5    C8    T    
C43   H37   S    
N3    H7    S    
C6    C7    T    
C25   C27   A    
N9    H43   S    
C26   C28   A    
C37   H18   S    
C17   C25   S    
O3    Zn2   S    
C19   C24   A    
N6    H19   S    
C29   C31   A    
C30   C32   A    
C39   H25   S    
C19   N3    S    
C46   H49   S    
C45   H46   S    
C36   H12   S    
C17   O7    A    
C10   C11   A    
C33   H1    S    
C38   H22   S    
N7    C43   S    
N5    H15   S    
C35   H10   S    
C27   C28   A    
O2    Zn1   S    
C37   H17   S    
C42   H32   S    
C13   C14   A    
C5    C31   S    
