data_mof_unit_15869.cif
_audit_creation_date              2012-12-10T17:19:57-0500
_audit_creation_method            fapswitch 2.2
_symmetry_space_group_name_H-M    P1
_symmetry_Int_Tables_number       1
_space_group_crystal_system       triclinic
_cell_length_a                    9.602541
_cell_length_b                    10.85455
_cell_length_c                    15.657299
_cell_angle_alpha                 87.445099
_cell_angle_beta                  73.492559
_cell_angle_gamma                 90.761611
_cell_volume                      1562.58491626

loop_
_atom_site_label
_atom_site_type_symbol
_atom_type_description
_atom_site_fract_x
_atom_site_fract_y
_atom_site_fract_z
_atom_type_partial_charge
C1    C     C_R   0.003405 0.263638 0.491858 0.786084
C2    C     C_R   0.667759 0.476665 0.905640 0.091600
C3    C     C_R   0.764011 0.430943 0.952595 0.159837
C4    C     C_R   0.518031 0.488474 0.951719 0.062892
C5    C     C_R   0.471881 0.470980 0.046291 0.077788
C6    C     C_R   0.572578 0.430093 0.091031 -0.204430
C7    C     C_R   0.714680 0.407506 0.044300 -0.232115
C8    C     C_R   0.411731 0.509901 0.906330 -0.217635
C9    C     C_R   0.264850 0.510234 0.952316 -0.210277
C10   C     C_R   0.219572 0.495185 0.045006 0.093183
C11   C     C_R   0.323598 0.485042 0.092861 0.093746
C12   C     C_R   0.917250 0.497563 0.671561 0.809178
C13   C     C_R   0.071221 0.485730 0.090616 -0.279171
C14   C     C_R   0.025210 0.465211 0.183112 0.461688
C15   C     C_R   0.275446 0.490613 0.185937 -0.333897
C16   C     C_R   0.279023 0.129441 0.425740 -0.155123
C17   C     C_R   0.407212 0.074292 0.429480 -0.152840
C18   C     C_R   0.401455 0.958617 0.471942 -0.147646
C19   C     C_R   0.269286 0.893065 0.502491 -0.169390
C20   C     C_R   0.139485 0.942472 0.490420 0.095433
C21   C     C_R   0.142639 0.068772 0.464697 0.097882
C22   C     C_R   0.009355 0.130575 0.480887 -0.122906
C23   C     C_R   0.000680 0.737965 0.502992 0.784193
C24   C     C_R   0.878706 0.062651 0.498938 -0.217181
C25   C     C_R   0.878375 0.935360 0.506177 -0.211617
C26   C     C_R   0.006651 0.873270 0.503280 -0.113669
C27   C     C_R   0.702652 0.661067 0.378873 -0.109723
C28   C     C_R   0.659528 0.738633 0.318800 -0.198423
C29   C     C_R   0.515940 0.739073 0.318985 -0.198414
C30   C     C_R   0.414546 0.661956 0.379325 -0.162103
C31   C     C_R   0.453999 0.579440 0.440588 0.190931
C32   C     C_R   0.603577 0.579209 0.440487 0.200723
C33   C     C_R   0.546650 0.424042 0.556271 -0.082881
C34   C     C_R   0.082253 0.495576 0.328592 0.778390
C35   C     C_R   0.398793 0.424065 0.556242 -0.066004
C36   C     C_R   0.869213 0.482769 0.768870 -0.048150
C37   C     C_R   0.127130 0.484132 0.231481 -0.166372
C38   C     C_R   0.908603 0.407062 0.907065 -0.218863
C39   C     C_R   0.961164 0.433296 0.815782 -0.193676
C40   C     C_R   0.724639 0.506259 0.813914 -0.249823
Cu1   Cu    Cu3+1 0.140660 0.499990 0.500010 0.918122
Cu2   Cu    Cu3+1 0.859340 0.500010 0.499990 0.926746
H1    H     H_    0.786709 0.371279 0.080184 0.165363
H2    H     H_    0.991526 0.490258 0.054259 0.152048
H3    H     H_    0.775849 0.107842 0.508521 0.160881
H4    H     H_    0.510274 0.123329 0.402246 0.130902
H5    H     H_    0.499928 0.918517 0.479951 0.139655
H6    H     H_    0.271754 0.806977 0.538832 0.172891
H7    H     H_    0.775855 0.885651 0.516559 0.163312
H8    H     H_    0.579466 0.361741 0.602418 0.140783
H9    H     H_    0.814799 0.669715 0.374100 0.200692
H10   H     H_    0.352518 0.503017 0.223579 0.182666
H11   H     H_    0.482159 0.801002 0.272918 0.159392
H12   H     H_    0.306567 0.672623 0.375871 0.206998
H13   H     H_    0.321276 0.361782 0.602365 0.140518
H14   H     H_    0.186340 0.521180 0.914892 0.149511
H15   H     H_    0.072313 0.411699 0.781619 0.148497
H16   H     H_    0.658923 0.548609 0.775883 0.148370
H17   H     H_    0.541835 0.406733 0.161776 0.153688
N1    N     N_R   0.648320 0.501210 0.499140 -0.204508
N2    N     N_R   0.352470 0.501290 0.499110 -0.201983
O1    O     O_R   0.118810 0.319640 0.500010 -0.582164
O2    O     O_R   0.881240 0.319660 0.500000 -0.592265
O3    O     O_R   0.055570 0.499980 0.629840 -0.581917
O4    O     O_R   0.818000 0.500010 0.629830 -0.580095
O5    O     O_R   0.118760 0.680340 0.500000 -0.611981
O6    O     O_R   0.881190 0.680360 0.499990 -0.600796
O7    O     O_R   0.182000 0.499990 0.370170 -0.608272
O8    O     O_R   0.944430 0.500020 0.370160 -0.576878
H18   H     H_    0.288162 0.219207 0.391476 0.156592
H19   H     H_    0.738256 0.799589 0.272238 0.153369
O9    O     O_3   0.880093 0.433381 0.224027 -0.610506
C41   C     C_3   0.866889 0.314209 0.268057 0.114175
H20   H     H_    0.773784 0.314918 0.329437 0.173853
H21   H     H_    0.963230 0.287837 0.290444 0.117013
C42   C     C_3   0.835874 0.214379 0.209455 -0.410816
H22   H     H_    0.726629 0.227796 0.200002 0.218229
H23   H     H_    0.918970 0.221053 0.143373 0.220520
C43   C     C_3   0.839143 0.085537 0.252106 -0.908911
H24   H     H_    0.948962 0.067410 0.259285 0.260275
H25   H     H_    0.812572 0.015683 0.209084 0.255120
H26   H     H_    0.758363 0.076082 0.318855 0.249862
H27   H     H_    0.980423 0.365434 0.941654 0.129913
H28   H     H_    0.437416 0.518622 0.834685 0.139918

loop_
_geom_bond_atom_site_label_1
_geom_bond_atom_site_label_2
_ccdc_geom_bond_type
C16   C21   A    
C38   H27   S    
C34   C37   S    
Cu1   Cu2   S    
C31   N2    A    
C19   C20   A    
C42   C43   S    
Cu1   N2    S    
C4    C8    A    
C18   H5    S    
C30   H12   S    
C29   H11   S    
C24   H3    S    
C23   O5    A    
C28   C29   A    
C42   H23   S    
C5    C11   A    
C3    C7    A    
C38   C39   A    
C12   O3    A    
C39   H15   S    
C18   C19   A    
C41   H20   S    
C23   C26   S    
C23   O6    A    
C15   C37   A    
C11   C15   A    
C3    C38   A    
C8    C9    A    
Cu2   O4    S    
C7    H1    S    
C12   C36   S    
C9    C10   A    
C1    C22   S    
C13   C14   A    
C1    O1    A    
C41   H21   S    
Cu1   O1    S    
C1    O2    A    
C27   H9    S    
Cu1   O7    S    
C42   H22   S    
C40   H16   S    
C35   H13   S    
C36   C40   A    
C16   H18   S    
C17   H4    S    
C34   O7    A    
C43   H25   S    
C19   H6    S    
C16   C17   A    
C25   C26   A    
Cu2   O8    S    
C2    C4    A    
C29   C30   A    
C31   C32   A    
C30   C31   A    
C17   C18   A    
C35   N2    A    
C9    H14   S    
C15   H10   S    
C24   C25   A    
C34   O8    A    
C6    C7    A    
C33   N1    A    
Cu2   O6    S    
C41   C42   S    
C22   C24   A    
C28   H19   S    
C32   N1    A    
Cu2   N1    S    
C27   C32   A    
C8    H28   S    
C14   O9    S    
C6    H17   S    
C36   C39   A    
O9    C41   S    
C10   C13   A    
C43   H26   S    
Cu1   O5    S    
C12   O4    A    
C2    C3    A    
C33   H8    S    
C14   C37   A    
C5    C6    A    
C20   C26   A    
C33   C35   A    
C25   H7    S    
C10   C11   A    
C43   H24   S    
C2    C40   A    
C4    C5    A    
C20   C21   A    
C27   C28   A    
Cu1   O3    S    
C21   C22   A    
Cu2   O2    S    
C13   H2    S    
