data_mof_unit_47706.cif
_audit_creation_date              2012-12-10T18:55:55-0500
_audit_creation_method            fapswitch 2.2
_symmetry_space_group_name_H-M    P1
_symmetry_Int_Tables_number       1
_space_group_crystal_system       triclinic
_cell_length_a                    10.666939
_cell_length_b                    9.818832
_cell_length_c                    14.897288
_cell_angle_alpha                 90.342497
_cell_angle_beta                  89.914477
_cell_angle_gamma                 89.463195
_cell_volume                      1560.19726884

loop_
_atom_site_label
_atom_site_type_symbol
_atom_type_description
_atom_site_fract_x
_atom_site_fract_y
_atom_site_fract_z
_atom_type_partial_charge
C1    C     C_R   0.260325 0.500763 0.499899 0.934605
C2    C     C_R   0.739587 0.499179 0.499901 0.914534
C3    C     C_R   0.506598 0.499502 0.326939 0.867936
C4    C     C_R   0.505983 0.500567 0.673064 0.867940
C5    C     C_R   0.590145 0.071411 0.545244 -0.082199
C6    C     C_R   0.410587 0.928476 0.453950 -0.076787
C7    C     C_R   0.410502 0.072529 0.454024 -0.073297
C8    C     C_R   0.589796 0.927430 0.545638 -0.073733
C9    C     C_R   0.065293 0.460642 0.420451 0.158207
C10   C     C_R   0.934173 0.541718 0.579085 0.150403
C11   C     C_R   0.934898 0.452394 0.422689 0.133224
C12   C     C_R   0.064819 0.543872 0.577994 0.148017
C13   C     C_R   0.630944 0.603446 0.100636 -0.181807
C14   C     C_R   0.636892 0.400030 0.898357 -0.183131
C15   C     C_R   0.526773 0.615228 0.914210 -0.168417
C16   C     C_R   0.533435 0.383105 0.086139 -0.169089
C17   C     C_R   0.603443 0.607566 0.191802 0.137145
C18   C     C_R   0.610711 0.396844 0.806991 0.158246
C19   C     C_R   0.497850 0.615791 0.823463 0.149112
C20   C     C_R   0.503875 0.382592 0.176917 0.161825
C21   C     C_R   0.535627 0.497722 0.230693 -0.083826
C22   C     C_R   0.535680 0.502897 0.769108 -0.083486
C23   C     C_R   0.593087 0.494112 0.048167 0.035506
C24   C     C_R   0.592284 0.506461 0.951559 0.034680
C25   C     C_R   0.872000 0.496905 0.501002 -0.134574
C26   C     C_R   0.127619 0.502860 0.498975 -0.135342
H1    H     H_    0.662726 0.125475 0.580813 0.134579
H2    H     H_    0.339285 0.874157 0.417076 0.133658
H3    H     H_    0.339149 0.127630 0.417172 0.136139
H4    H     H_    0.661428 0.872330 0.582213 0.135291
H5    H     H_    0.677337 0.688482 0.068946 0.143175
H6    H     H_    0.688510 0.317054 0.929315 0.143333
H7    H     H_    0.492212 0.696642 0.957407 0.143999
H8    H     H_    0.503581 0.299781 0.043335 0.143998
N1    N     N_R   0.500000 0.857200 0.500000 -0.079628
N2    N     N_R   0.500000 0.142800 0.500000 -0.078213
O1    O     O_R   0.316770 0.614620 0.499990 -0.619422
O2    O     O_R   0.683230 0.385380 0.500010 -0.626801
O3    O     O_R   0.683230 0.614620 0.500010 -0.622134
O4    O     O_R   0.316770 0.385380 0.499990 -0.613259
O5    O     O_R   0.499990 0.614660 0.369060 -0.614765
O6    O     O_R   0.500010 0.385340 0.630940 -0.608676
O7    O     O_R   0.500010 0.614660 0.630940 -0.616346
O8    O     O_R   0.499990 0.385340 0.369060 -0.613985
Zn1   Zn    Zn3+2 0.500000 0.653120 0.500000 0.933702
Zn2   Zn    Zn3+2 0.500000 0.346880 0.500000 0.937018
C27   C     C_3   0.647743 0.730846 0.243973 -0.855167
H9    H     H_    0.703631 0.699117 0.303137 0.249111
H10   H     H_    0.708847 0.797107 0.202877 0.219661
H11   H     H_    0.566166 0.794062 0.265535 0.255371
C28   C     C_3   0.665340 0.279865 0.752936 -0.894290
H12   H     H_    0.589399 0.210567 0.731366 0.256009
H13   H     H_    0.716987 0.318898 0.693837 0.249290
H14   H     H_    0.733028 0.218249 0.792627 0.223958
C29   C     C_3   0.423413 0.735970 0.788695 -0.877350
H15   H     H_    0.338385 0.699909 0.754096 0.245171
H16   H     H_    0.391883 0.805370 0.843584 0.223580
H17   H     H_    0.481732 0.797189 0.742546 0.259503
C30   C     C_3   0.435167 0.259846 0.212204 -0.891184
H18   H     H_    0.496800 0.200840 0.257977 0.260769
H19   H     H_    0.348366 0.292140 0.247491 0.241581
H20   H     H_    0.406791 0.189288 0.157474 0.223482
C31   C     C_3   0.136382 0.429064 0.334194 -0.905542
H21   H     H_    0.237100 0.454122 0.337278 0.225139
H22   H     H_    0.128481 0.319083 0.317634 0.239482
H23   H     H_    0.097739 0.491264 0.278526 0.244278
C32   C     C_3   0.863022 0.584395 0.663518 -0.894380
H24   H     H_    0.760137 0.577281 0.658121 0.232432
H25   H     H_    0.890359 0.517359 0.720115 0.244181
H26   H     H_    0.884276 0.692024 0.680394 0.244120
C33   C     C_3   0.860650 0.398904 0.342708 -0.862992
H27   H     H_    0.806754 0.307901 0.362819 0.251494
H28   H     H_    0.794629 0.478556 0.318994 0.222845
H29   H     H_    0.918167 0.366971 0.284378 0.244296
C34   C     C_3   0.139816 0.590530 0.659113 -0.893063
H30   H     H_    0.189819 0.685311 0.641617 0.249209
H31   H     H_    0.083791 0.613227 0.719925 0.246149
H32   H     H_    0.208888 0.510408 0.678041 0.225503

loop_
_geom_bond_atom_site_label_1
_geom_bond_atom_site_label_2
_ccdc_geom_bond_type
C29   H15   S    
C31   H22   S    
C7    H3    S    
C7    N2    A    
C14   C18   A    
C27   H10   S    
C10   C32   S    
O4    Zn2   S    
C11   C33   S    
C11   C25   A    
C5    N2    A    
C6    N1    A    
C13   C23   A    
O6    Zn2   S    
C14   C24   A    
C34   H31   S    
C1    O4    A    
C16   H8    S    
C5    H1    S    
C2    O3    A    
C6    H2    S    
C9    C26   A    
C23   C24   S    
N2    Zn2   S    
C1    O1    A    
O3    Zn1   S    
C31   H23   S    
C30   H18   S    
C9    C31   S    
C9    C11   A    
O8    Zn2   S    
C18   C28   S    
C27   H11   S    
C3    O8    A    
C30   H19   S    
C32   H24   S    
C19   C22   A    
C33   H28   S    
C17   C21   A    
C28   H12   S    
C12   C26   A    
C32   H25   S    
C8    N1    A    
C15   C19   A    
C34   H30   S    
C5    C8    A    
C4    C22   S    
C2    O2    A    
C27   H9    S    
C16   C20   A    
C20   C30   S    
O7    Zn1   S    
C10   C12   A    
C10   C25   A    
C15   C24   A    
C16   C23   A    
C29   H16   S    
C1    C26   S    
C3    C21   S    
O1    Zn1   S    
N1    Zn1   S    
C19   C29   S    
C3    O5    A    
C30   H20   S    
C18   C22   A    
C13   H5    S    
C17   C27   S    
C14   H6    S    
C33   H29   S    
C6    C7    A    
C4    O7    A    
C13   C17   A    
C28   H14   S    
C8    H4    S    
C32   H26   S    
C33   H27   S    
C29   H17   S    
C4    O6    A    
C2    C25   S    
C34   H32   S    
O2    Zn2   S    
C31   H21   S    
C20   C21   A    
C12   C34   S    
O5    Zn1   S    
C28   H13   S    
C15   H7    S    
