data_mof_unit_33366.cif
_audit_creation_date              2012-10-26T21:08:07-0400
_audit_creation_method            fapswitch 2.2
_symmetry_space_group_name_H-M    P1
_symmetry_Int_Tables_number       1
_space_group_crystal_system       triclinic
_cell_length_a                    15.841299
_cell_length_b                    10.764575
_cell_length_c                    9.66085
_cell_angle_alpha                 89.445788
_cell_angle_beta                  89.30429
_cell_angle_gamma                 93.005179
_cell_volume                      1644.94053231

loop_
_atom_site_label
_atom_site_type_symbol
_atom_type_description
_atom_site_fract_x
_atom_site_fract_y
_atom_site_fract_z
_atom_type_partial_charge
C1    C     C_R   0.500814 0.263043 0.500637 0.552408
C2    C     C_R   0.722772 0.077914 0.625070 0.295600
C3    C     C_R   0.724927 0.949515 0.609096 -0.108745
C4    C     C_R   0.340097 0.500730 0.500605 0.576780
C5    C     C_R   0.653703 0.881019 0.563741 -0.177930
C6    C     C_R   0.578135 0.939743 0.535096 -0.018221
C7    C     C_R   0.577305 0.070487 0.543016 -0.032926
C8    C     C_R   0.503993 0.129469 0.502092 0.006001
C9    C     C_R   0.432579 0.060837 0.457431 -0.111465
C10   C     C_R   0.431715 0.931868 0.454448 0.113311
C11   C     C_R   0.503881 0.871408 0.495611 0.050910
C12   C     C_3   0.083140 0.508951 0.500318 0.029775
C13   C     C_R   0.614421 0.662361 0.139936 -0.074989
C14   C     C_R   0.671263 0.741141 0.066597 -0.155144
C15   C     C_R   0.671813 0.740736 0.923924 -0.148286
C16   C     C_R   0.500366 0.737051 0.498980 0.556434
C17   C     C_R   0.615424 0.661693 0.853734 -0.068858
C18   C     C_R   0.557376 0.578193 0.923698 0.121017
C19   C     C_R   0.556829 0.578794 0.072744 0.137166
C20   C     C_R   0.445364 0.426792 0.078436 0.031651
C21   C     C_R   0.442054 0.428172 0.931704 0.353939
C22   C     C_R   0.660010 0.501265 0.499288 0.510247
C23   C     C_3   0.970147 0.489098 0.628421 -0.062886
C24   C     C_3   0.970219 0.418272 0.416076 -0.064587
C25   C     C_3   0.030800 0.528871 0.370034 -0.118119
C26   C     C_1   0.250390 0.503938 0.501718 0.018988
C27   C     C_1   0.750002 0.504320 0.497791 0.012360
C28   C     C_3   0.024047 0.398441 0.546360 -0.050321
C29   C     C_3   0.348952 0.848241 0.266266 -0.270399
C30   C     C_3   0.917713 0.508835 0.498198 0.054566
C31   C     C_3   0.030769 0.599720 0.582361 -0.105102
C32   C     C_3   0.976755 0.619559 0.452101 -0.122263
C33   C     C_1   0.174844 0.506764 0.501487 -0.028229
C34   C     C_1   0.825786 0.506901 0.497510 -0.000095
C35   C     C_R   0.650164 0.138575 0.589016 -0.074304
Cu1   Cu    Cu3+1 0.499990 0.499990 0.640660 1.046442
Cu2   Cu    Cu3+1 0.500010 0.500010 0.359340 0.937809
H1    H     H_    0.057090 0.545200 0.263987 0.131060
H2    H     H_    0.955939 0.710310 0.413422 0.124734
H3    H     H_    0.057010 0.674186 0.650632 0.133442
H4    H     H_    0.944358 0.473329 0.734783 0.128365
H5    H     H_    0.044792 0.307702 0.585214 0.159578
H6    H     H_    0.376872 0.107818 0.426028 0.122107
H7    H     H_    0.651239 0.238674 0.597260 0.169034
H8    H     H_    0.302906 0.894525 0.458698 0.253967
H9    H     H_    0.340301 0.939900 0.215876 0.154100
H10   H     H_    0.293043 0.785221 0.244537 0.155228
H11   H     H_    0.405780 0.806973 0.221239 0.188353
H12   H     H_    0.781814 0.902112 0.632089 0.144490
H13   H     H_    0.301119 0.242827 0.695326 0.347863
H14   H     H_    0.829281 0.325327 0.816289 0.361285
H15   H     H_    0.658761 0.782215 0.549515 0.095990
H16   H     H_    0.400278 0.370172 0.139510 0.174611
H17   H     H_    0.617706 0.671842 0.249023 0.178129
H18   H     H_    0.714636 0.803891 0.121141 0.136374
H19   H     H_    0.715641 0.803234 0.867042 0.141852
H20   H     H_    0.618874 0.671362 0.744856 0.173748
H21   H     H_    0.944128 0.343920 0.347515 0.154473
N1    N     N_R   0.500800 0.501210 0.147910 -0.286951
N2    N     N_R   0.500830 0.501290 0.852040 -0.259810
N3    N     N_2   0.357135 0.862648 0.414300 -0.514939
O1    O     O_R   0.499990 0.319640 0.618810 -0.434567
O2    O     O_2   0.284429 0.447503 0.842106 -0.291873
O3    O     O_3   0.359348 0.266696 0.724899 -0.497757
O4    O     O_2   0.853135 0.088239 0.797385 -0.293390
O5    O     O_2   0.873322 0.188044 0.569641 -0.305885
O6    O     O_3   0.783004 0.298661 0.753470 -0.539585
O7    O     O_R   0.500000 0.319660 0.381240 -0.505179
O8    O     O_R   0.379070 0.499980 0.618770 -0.407945
O9    O     O_R   0.379080 0.500000 0.381190 -0.508641
O10   O     O_R   0.500000 0.680340 0.618760 -0.524279
O11   O     O_R   0.500010 0.680360 0.381190 -0.525846
O12   O     O_R   0.620920 0.500000 0.618810 -0.519457
O13   O     O_R   0.620930 0.500020 0.381230 -0.520616
O14   O     O_2   0.310573 0.262580 0.977427 -0.319133
S1    S     S_3+6 0.347570 0.350715 0.868284 0.032164
S2    S     S_3+6 0.811861 0.163013 0.687353 -0.017624

loop_
_geom_bond_atom_site_label_1
_geom_bond_atom_site_label_2
_ccdc_geom_bond_type
C2    C35   A    
Cu2   O13   S    
C1    C8    S    
H13   O3    S    
O6    S2    S    
C1    O1    A    
C4    O9    A    
C3    H12   S    
C7    C8    A    
C21   S1    S    
C12   C28   S    
Cu1   Cu2   S    
C5    C6    A    
O2    S1    D    
Cu2   O7    S    
C1    O7    A    
C31   H3    S    
C18   C19   A    
C32   H2    S    
C28   H5    S    
C8    C9    A    
C16   O11   A    
C5    H15   S    
C9    C10   A    
Cu1   O10   S    
C25   C32   S    
C14   H18   S    
C13   C14   A    
C16   O10   A    
Cu1   O1    S    
C4    O8    A    
C27   C34   T    
C29   N3    S    
C9    H6    S    
O4    S2    D    
C30   C34   S    
C29   H11   S    
C23   C30   S    
C24   C25   S    
C21   N2    A    
Cu1   O12   S    
C6    C11   A    
C13   C19   A    
C19   N1    A    
C23   C31   S    
O14   S1    D    
C25   H1    S    
C11   C16   S    
C26   C33   T    
C31   C32   S    
C17   C18   A    
O3    S1    S    
H14   O6    S    
C23   C28   S    
C20   N1    A    
C35   H7    S    
Cu2   N1    S    
C18   N2    A    
C29   H10   S    
C22   C27   S    
C12   C31   S    
C10   N3    S    
C22   O13   A    
C3    C5    A    
Cu1   O8    S    
C13   H17   S    
C15   C17   A    
O5    S2    D    
C7    C35   A    
C24   C28   S    
C20   H16   S    
Cu1   N2    S    
C4    C26   S    
C6    C7    A    
C12   C25   S    
C23   H4    S    
C29   H9    S    
C15   H19   S    
C2    C3    A    
C2    S2    S    
C30   C32   S    
H8    N3    S    
C24   C30   S    
C10   C11   A    
C20   C21   A    
C24   H21   S    
Cu2   O11   S    
C14   C15   A    
C22   O12   A    
C12   C33   S    
Cu2   O9    S    
C17   H20   S    
