data_mof_unit_51376.cif
_audit_creation_date              2012-12-11T15:58:22-0500
_audit_creation_method            fapswitch 2.2
_symmetry_space_group_name_H-M    P1
_symmetry_Int_Tables_number       1
_space_group_crystal_system       triclinic
_cell_length_a                    8.43482
_cell_length_b                    18.854752
_cell_length_c                    18.90607
_cell_angle_alpha                 99.033843
_cell_angle_beta                  94.064785
_cell_angle_gamma                 92.261824
_cell_volume                      2958.07867344

loop_
_atom_site_label
_atom_site_type_symbol
_atom_type_description
_atom_site_fract_x
_atom_site_fract_y
_atom_site_fract_z
_atom_type_partial_charge
Ba1   Ba    Ba6+2 0.152460 0.535140 0.468980 1.609753
Ba2   Ba    Ba6+2 0.657710 0.464850 0.530960 1.613595
C1    C     C_3   0.391564 0.788058 0.237569 -0.298736
C2    C     C_R   0.100529 0.903296 0.560500 0.014432
C3    C     C_R   0.255201 0.926128 0.588674 -0.073079
C4    C     C_3   0.947414 0.733142 0.339729 0.315758
C5    C     C_R   0.316735 0.995989 0.586838 0.047995
C6    C     C_R   0.220336 0.044985 0.555971 0.028409
C7    C     C_R   0.065370 0.021866 0.525595 0.008490
C8    C     C_R   0.274135 0.116675 0.556098 -0.118904
C9    C     C_R   0.175774 0.166755 0.529332 -0.047119
C10   C     C_R   0.022192 0.143239 0.496892 -0.012373
C11   C     C_R   0.968347 0.070234 0.494441 0.002546
C12   C     C_3   0.399572 0.730537 0.287032 0.578832
C13   C     C_R   0.225934 0.240148 0.535694 0.008653
C14   C     C_R   0.121358 0.289248 0.512409 -0.286429
C15   C     C_R   0.971776 0.267291 0.476680 0.056830
C16   C     C_3   0.976700 0.811281 0.328312 -0.101369
C17   C     C_R   0.921671 0.192557 0.467931 -0.070469
C18   C     C_R   0.851806 0.927101 0.498238 0.011423
C19   C     C_R   0.794013 0.855152 0.499134 -0.010365
C20   C     C_R   0.891731 0.806342 0.530075 -0.066086
C21   C     C_R   0.040588 0.833309 0.564235 -0.047388
C22   C     C_R   0.774104 0.165336 0.432111 -0.044517
C23   C     C_3   0.500090 0.685657 0.644429 0.339089
C24   C     C_R   0.716779 0.093988 0.432555 0.038963
C25   C     C_R   0.814084 0.046452 0.464389 -0.022122
C26   C     C_R   0.755979 0.975175 0.466779 0.022888
C27   C     C_R   0.562024 0.069312 0.403177 0.144311
C28   C     C_3   0.854176 0.362847 0.297718 0.424437
C29   C     C_R   0.504703 0.999546 0.407437 -0.114618
C30   C     C_R   0.600264 0.952406 0.438861 0.006643
C31   C     C_R   0.637989 0.832547 0.469475 -0.031628
C32   C     C_R   0.541191 0.882749 0.442169 -0.105340
C33   C     C_R   0.584350 0.760108 0.466692 0.028298
C34   C     C_3   0.502585 0.768042 0.666605 -0.058979
C35   C     C_R   0.685348 0.711211 0.492319 -0.296658
C36   C     C_R   0.837016 0.732577 0.525196 0.046149
C37   C     C_R   0.601040 0.538314 0.303033 -0.257726
C38   C     C_R   0.454515 0.501956 0.279402 0.113879
C39   C     C_R   0.401605 0.495171 0.206597 -0.113800
C40   C     C_3   0.894819 0.328415 0.221958 -0.192080
C41   C     C_R   0.498093 0.518873 0.156222 0.003048
C42   C     C_R   0.654310 0.548595 0.179516 -0.022985
C43   C     C_R   0.704198 0.558710 0.253698 0.049091
C44   C     C_R   0.410041 0.570976 0.044346 0.141770
C45   C     C_3   0.850922 0.265793 0.676739 0.293153
C46   C     C_R   0.361119 0.561199 0.971001 -0.080708
C47   C     C_R   0.331617 0.492526 0.931040 0.009386
C48   C     C_R   0.349102 0.432384 0.965296 -0.076671
C49   C     C_R   0.403222 0.440086 0.038415 0.043944
C50   C     C_R   0.434393 0.509991 0.079134 0.045271
C51   C     C_R   0.137005 0.451123 0.824570 -0.140370
C52   C     C_3   0.988032 0.633513 0.700425 0.314330
C53   C     C_R   0.087779 0.449392 0.751780 0.032202
C54   C     C_R   0.337005 0.511204 0.734640 0.036733
C55   C     C_R   0.384361 0.515007 0.807670 -0.126434
C56   C     C_3   0.809861 0.192822 0.701597 0.113168
C57   C     C_R   0.285199 0.484454 0.853067 -0.004701
C58   C     C_R   0.189638 0.477889 0.707043 -0.273157
C59   C     C_3   0.938972 0.661356 0.776809 -0.049980
C60   C     C_3   0.313586 0.298340 0.323394 0.567553
C61   C     C_3   0.315166 0.229806 0.266233 -0.122080
C62   C     C_3   0.927671 0.383945 0.173547 -0.465760
C63   C     C_3   0.027895 0.733067 0.809571 -0.364155
C64   C     C_3   0.965834 0.607232 0.827875 -0.477918
C65   C     C_3   0.478581 0.216289 0.237992 -0.373529
C66   C     C_3   0.662402 0.798655 0.704930 -0.394061
C67   C     C_3   0.421166 0.302780 0.714863 0.357284
C68   C     C_3   0.367182 0.790646 0.714183 -0.353076
C69   C     C_3   0.241323 0.292915 0.713048 -0.352079
C70   C     C_3   0.484046 0.016902 0.619213 -0.389261
C71   C     C_3   0.433381 0.373141 0.070833 -0.413612
C72   C     C_3   0.768818 0.568294 0.126699 -0.387748
C73   C     C_3   0.493763 0.289563 0.787845 -0.379983
C74   C     C_R   0.006212 0.950642 0.527670 0.006945
H1    H     H_    0.795390 0.290793 0.195834 0.100457
H2    H     H_    0.615283 0.669579 0.623486 -0.024229
H3    H     H_    0.404166 0.670447 0.600720 0.055972
H4    H     H_    0.485751 0.791829 0.616608 0.058203
H5    H     H_    0.442125 0.840529 0.267333 0.100007
H6    H     H_    0.754251 0.277983 0.638776 0.110020
H7    H     H_    0.958567 0.261503 0.646795 -0.028248
H8    H     H_    0.684129 0.190761 0.714296 0.143544
H9    H     H_    0.456561 0.359113 0.709868 0.087388
H10   H     H_    0.447839 0.327415 0.831743 0.076574
H11   H     H_    0.624241 0.299145 0.792021 0.154386
H12   H     H_    0.000526 0.296099 0.225640 0.120027
H13   H     H_    0.046925 0.719736 0.375729 0.112982
H14   H     H_    0.464920 0.233498 0.795876 0.112969
H15   H     H_    0.329118 0.889090 0.611936 0.068203
H16   H     H_    0.161159 0.345304 0.518696 0.068412
H17   H     H_    0.392514 0.133834 0.578947 0.120618
H18   H     H_    0.113467 0.799990 0.592838 0.110976
H19   H     H_    0.699918 0.199896 0.405553 0.151041
H20   H     H_    0.384709 0.982150 0.385398 0.071609
H21   H     H_    0.419198 0.868532 0.422418 0.116442
H22   H     H_    0.837598 0.728758 0.367626 -0.006015
H23   H     H_    0.115227 0.620537 0.702850 -0.012639
H24   H     H_    0.642389 0.655836 0.488936 0.068841
H25   H     H_    0.496575 0.542634 0.829310 0.074006
H26   H     H_    0.345366 0.607977 0.944898 0.078846
H27   H     H_    0.286460 0.468940 0.188518 0.082952
H28   H     H_    0.324332 0.379234 0.934369 0.067620
H29   H     H_    0.058686 0.428421 0.859124 0.082954
H30   H     H_    0.151739 0.476066 0.650859 0.069677
H31   H     H_    0.007314 0.845738 0.381153 0.080281
H32   H     H_    0.641964 0.544410 0.359322 0.073775
H33   H     H_    0.079318 0.815453 0.295796 0.140927
H34   H     H_    0.913235 0.584697 0.676726 0.051241
H35   H     H_    0.950012 0.401261 0.322572 0.115758
H36   H     H_    0.208051 0.673770 0.227187 0.216303
H37   H     H_    0.301569 0.629055 0.286219 0.212300
H38   H     H_    0.821854 0.415846 0.166179 0.140295
H39   H     H_    0.030535 0.420194 0.197175 0.172351
H40   H     H_    0.956315 0.356251 0.120052 0.122747
H41   H     H_    0.157926 0.725999 0.815510 0.117154
H42   H     H_    0.004733 0.775138 0.775668 0.138536
H43   H     H_    0.986954 0.752754 0.863407 0.109516
H44   H     H_    0.924786 0.628129 0.881400 0.135861
H45   H     H_    0.809433 0.670308 0.772528 0.119391
H46   H     H_    0.896213 0.556648 0.807110 0.147091
H47   H     H_    0.094171 0.597326 0.834660 0.128611
H48   H     H_    0.157369 0.346565 0.389006 0.130720
H49   H     H_    0.116516 0.257527 0.361269 0.107422
H50   H     H_    0.407699 0.334904 0.426333 0.191019
H51   H     H_    0.389083 0.246208 0.405556 0.144453
H52   H     H_    0.510205 0.257148 0.204406 0.123840
H53   H     H_    0.571634 0.217386 0.282697 0.170261
H54   H     H_    0.474641 0.162620 0.203764 0.099578
H55   H     H_    0.621170 0.704932 0.255877 0.153092
H56   H     H_    0.267294 0.794940 0.217591 0.091714
H57   H     H_    0.578167 0.675264 0.330311 0.120348
H58   H     H_    0.685920 0.776879 0.755645 0.136830
H59   H     H_    0.760096 0.785573 0.669717 0.117964
H60   H     H_    0.661466 0.858184 0.717838 0.117685
H61   H     H_    0.358870 0.849925 0.722565 0.095908
H62   H     H_    0.252064 0.765172 0.688978 0.129730
H63   H     H_    0.388836 0.774110 0.767736 0.142391
H64   H     H_    0.805542 0.804909 0.244156 0.207344
H65   H     H_    0.744272 0.839651 0.325364 0.197735
H66   H     H_    0.948272 0.130935 0.634856 0.182947
H67   H     H_    0.230842 0.234543 0.219567 0.085978
H68   H     H_    0.763005 0.141191 0.598184 0.170827
H69   H     H_    0.878692 0.221088 0.809734 0.193900
H70   H     H_    0.026353 0.189618 0.759489 0.180481
H71   H     H_    0.188127 0.323836 0.673031 0.041572
H72   H     H_    0.206038 0.235082 0.696644 0.104646
H73   H     H_    0.195811 0.312113 0.765935 0.098386
H74   H     H_    0.481767 0.061076 0.665439 0.128858
H75   H     H_    0.542975 0.971204 0.638807 0.117533
H76   H     H_    0.557153 0.034961 0.578295 0.129674
H77   H     H_    0.432478 0.089058 0.316031 0.168361
H78   H     H_    0.272255 0.182111 0.288378 0.055957
H79   H     H_    0.355634 0.118345 0.394801 0.167217
H80   H     H_    0.531570 0.667201 0.059729 0.161345
H81   H     H_    0.466468 0.645959 0.135490 0.194545
H82   H     H_    0.420737 0.324019 0.029468 0.113183
H83   H     H_    0.556253 0.376433 0.096795 0.118704
H84   H     H_    0.346949 0.366580 0.111141 0.119791
H85   H     H_    0.721169 0.554505 0.069938 0.105963
H86   H     H_    0.799709 0.626950 0.138045 0.129132
H87   H     H_    0.878748 0.538490 0.131263 0.138342
H88   H     H_    0.624173 0.367415 0.260083 0.184716
H89   H     H_    0.460337 0.773041 0.189994 0.082730
H90   H     H_    0.672102 0.412616 0.343730 0.180062
N1    N     N_3   0.320166 0.663423 0.249172 -0.510779
N2    N     N_3   0.710610 0.401085 0.292179 -0.534836
N3    N     N_3   0.153785 0.305513 0.345023 -0.504777
N4    N     N_3   0.422552 0.292380 0.385181 -0.442245
N5    N     N_3   0.567844 0.719492 0.303962 -0.513651
N6    N     N_3   0.838793 0.839006 0.292522 -0.504893
N7    N     N_3   0.828190 0.132418 0.644880 -0.494814
N8    N     N_3   0.905692 0.182690 0.766656 -0.474038
N9    N     N_3   0.461106 0.114735 0.368799 -0.519925
N10   N     N_3   0.435134 0.643758 0.081029 -0.502470
O1    O     O_2   0.118870 0.674530 0.547560 -0.463596
O2    O     O_2   0.754612 0.446014 0.745592 -0.490924
O3    O     O_3   0.871864 0.320326 0.736919 -0.635746
O4    O     O_3   0.870460 0.585330 0.542110 -0.482608
O5    O     O_3   0.436130 0.464210 0.414140 -0.494856
O6    O     O_2   0.629420 0.533310 0.672080 -0.457538
O7    O     O_3   0.470946 0.651461 0.703371 -0.656208
O8    O     O_2   0.556634 0.241815 0.528274 -0.500914
O9    O     O_3   0.478624 0.252980 0.660048 -0.629758
O10   O     O_3   0.354280 0.631750 0.418430 -0.480268
O11   O     O_2   0.264440 0.757035 0.481498 -0.507951
O12   O     O_3   0.359294 0.356397 0.289980 -0.641224
O13   O     O_3   0.968000 0.689593 0.660797 -0.665072
O14   O     O_3   0.318698 0.756665 0.348640 -0.623662
O15   O     O_2   0.180880 0.466650 0.327890 -0.482854
O16   O     O_3   0.939000 0.596010 0.380670 -0.485958
O17   O     O_2   0.037554 0.554354 0.252586 -0.498668
O18   O     O_3   0.938968 0.686089 0.273669 -0.628268
O19   O     O_2   0.691430 0.325420 0.452420 -0.438628
O20   O     O_3   0.939830 0.414660 0.457830 -0.497877
O21   O     O_3   0.456020 0.368240 0.581510 -0.472268
O22   O     O_3   0.830425 0.308093 0.338654 -0.641406
O23   O     O_3   0.374170 0.535780 0.585810 -0.478085
O24   O     O_3   0.871300 0.403980 0.619270 -0.483862
P1    P     P_3+3 0.947550 0.663200 0.567530 0.967127
P2    P     P_3+3 0.354660 0.445020 0.336980 0.970449
P3    P     P_3+3 0.905030 0.597407 0.289195 0.924319
P4    P     P_3+3 0.862750 0.336790 0.432410 0.973114
P5    P     P_3+3 0.894991 0.405964 0.712466 0.930721
P6    P     P_3+3 0.383266 0.725336 0.428532 0.917114
P7    P     P_3+3 0.452906 0.558278 0.675626 0.943144
P8    P     P_3+3 0.427528 0.275607 0.574964 0.908823

loop_
_geom_bond_atom_site_label_1
_geom_bond_atom_site_label_2
_ccdc_geom_bond_type
C69   H71   S    
O3    P5    S    
C48   H28   S    
O24   P5    S    
C62   H40   S    
C52   O13   S    
C67   O9    S    
Ba2   O21   S    
O7    P7    S    
O5    P2    S    
C16   H33   S    
C4    O18   S    
Ba1   P1    S    
C51   C57   A    
C67   H9    S    
C5    C6    A    
C56   N8    S    
Ba1   O10   S    
H51   N4    S    
C71   H84   S    
C52   H34   S    
C24   C25   A    
C35   C36   A    
Ba2   O4    S    
Ba2   O24   S    
C68   H61   S    
C4    H22   S    
C33   C35   A    
C22   C24   A    
Ba1   Ba2   S    
O17   P3    D    
C72   H87   S    
Ba1   O4    S    
C41   C50   S    
C55   C57   A    
C19   C31   A    
C29   H20   S    
C20   C36   A    
O2    P5    D    
C44   C50   A    
C32   H21   S    
C54   C55   A    
C18   C74   A    
C59   H45   S    
Ba2   O19   S    
Ba2   O6    S    
C45   H6    S    
C67   C69   S    
C7    C11   A    
C16   H31   S    
C45   O3    S    
C73   H10   S    
C73   H14   S    
C15   C17   A    
C9    C13   A    
C59   C64   S    
O14   P6    S    
H48   N3    S    
C14   C15   A    
C70   H76   S    
C36   P1    S    
H68   N7    S    
C1    H5    S    
C63   H42   S    
C64   H46   S    
O15   P2    D    
C45   H7    S    
O20   P4    S    
H49   N3    S    
Ba2   O20   S    
C13   P8    S    
C37   C43   A    
C69   H72   S    
C68   H63   S    
H64   N6    S    
C62   H39   S    
C64   H44   S    
C53   C58   A    
H90   N2    S    
C39   C41   A    
O9    P8    S    
C65   H53   S    
Ba1   O1    S    
C27   N9    S    
C4    C16   S    
Ba1   P2    S    
C51   H29   S    
C53   P5    S    
C34   C68   S    
C48   C49   A    
H66   N7    S    
C44   C46   A    
C51   C53   A    
C37   H32   S    
C60   N4    S    
C61   C65   S    
C62   H38   S    
O10   P6    S    
C1    H56   S    
C26   C30   A    
Ba1   O20   S    
Ba2   P4    S    
O4    P1    S    
C34   H4    S    
C22   H19   S    
C37   C38   A    
C72   H86   S    
C2    C21   A    
Ba1   O5    S    
C6    C7    A    
O19   P4    D    
C18   C26   A    
C8    H17   S    
O13   P1    S    
H36   N1    S    
C71   H82   S    
H65   N6    S    
C23   H2    S    
Ba2   O5    S    
C30   C32   A    
C15   P4    S    
C41   C42   A    
C60   C61   S    
H50   N4    S    
C56   H8    S    
C3    C5    A    
C33   P6    S    
C29   C30   A    
C66   H60   S    
C43   P3    S    
C70   H75   S    
C46   H26   S    
O23   P7    S    
C31   C32   A    
C63   H43   S    
C18   C19   A    
C42   C72   S    
H70   N8    S    
C3    H15   S    
C1    C12   S    
C23   O7    S    
C40   H1    S    
Ba1   O15   S    
H88   N2    S    
C73   H11   S    
C46   C47   A    
C7    C74   A    
C38   P2    S    
C14   H16   S    
C70   H74   S    
O22   P4    S    
C2    C74   A    
O1    P1    D    
C52   H23   S    
C65   H54   S    
C40   H12   S    
C40   C62   S    
C5    C70   S    
C58   H30   S    
C42   C43   A    
C1    H89   S    
C60   O12   S    
H79   N9    S    
C60   N3    S    
C71   H83   S    
H80   N10   S    
C63   H41   S    
H69   N8    S    
C64   H47   S    
C28   O22   S    
C23   H3    S    
C66   H59   S    
C28   C40   S    
C49   C71   S    
C61   H78   S    
C12   N5    S    
O8    P8    D    
H81   N10   S    
H37   N1    S    
C72   H85   S    
C9    C10   A    
C34   C66   S    
C68   H62   S    
H55   N5    S    
C52   C59   S    
C16   N6    S    
C4    H13   S    
C55   H25   S    
H77   N9    S    
C47   C57   S    
C21   H18   S    
C28   H35   S    
C66   H58   S    
C17   C22   A    
H57   N5    S    
C28   N2    S    
C49   C50   A    
C27   C29   A    
C65   H52   S    
C45   C56   S    
C69   H73   S    
C54   P7    S    
C12   O14   S    
Ba2   O23   S    
O18   P3    S    
O6    P7    D    
C10   C17   A    
O12   P2    S    
C31   C33   A    
O16   P3    S    
C67   C73   S    
C44   N10   S    
C59   C63   S    
Ba1   O23   S    
O11   P6    D    
C8    C9    A    
C23   C34   S    
C56   N7    S    
Ba1   O16   S    
C39   H27   S    
C2    C3    A    
C54   C58   A    
C10   C11   A    
C24   C27   A    
C6    C8    A    
C47   C48   A    
C25   C26   A    
C61   H67   S    
C20   C21   A    
C11   C25   A    
O21   P8    S    
C38   C39   A    
C12   N1    S    
C19   C20   A    
C35   H24   S    
C13   C14   A    
