data_mof_unit_47243.cif
_audit_creation_date              2012-12-10T17:01:32-0500
_audit_creation_method            fapswitch 2.2
_symmetry_space_group_name_H-M    P1
_symmetry_Int_Tables_number       1
_space_group_crystal_system       triclinic
_cell_length_a                    12.871915
_cell_length_b                    10.667351
_cell_length_c                    10.005291
_cell_angle_alpha                 90.305921
_cell_angle_beta                  97.352263
_cell_angle_gamma                 90.043595
_cell_volume                      1362.50262568

loop_
_atom_site_label
_atom_site_type_symbol
_atom_type_description
_atom_site_fract_x
_atom_site_fract_y
_atom_site_fract_z
_atom_type_partial_charge
C1    C     C_R   0.500398 0.262338 0.499572 0.943410
C2    C     C_2   0.498149 0.129733 0.496730 -0.413682
C3    C     C_2   0.566955 0.563202 0.936179 -0.084592
C4    C     C_R   0.298202 0.498896 0.473318 0.891469
C5    C     C_2   0.571396 0.555761 0.086935 -0.051965
C6    C     C_R   0.489978 0.737044 0.498429 0.977484
C7    C     C_R   0.701931 0.496007 0.526864 0.866206
C8    C     C_R   0.814425 0.485179 0.543686 -0.096139
C9    C     C_R   0.186107 0.497129 0.456752 -0.056576
C10   C     C_R   0.020444 0.547872 0.329634 -0.217378
C11   C     C_R   0.128391 0.540034 0.337771 -0.159470
C12   C     C_R   0.029611 0.465027 0.558093 0.168279
C13   C     C_R   0.136762 0.457010 0.565046 -0.260884
C14   C     C_R   0.823140 0.384728 0.776227 0.148365
C15   C     C_R   0.755589 0.280708 0.758218 -0.093335
C16   C     C_R   0.709205 0.233945 0.866753 -0.116873
C17   C     C_R   0.731138 0.289318 0.994210 -0.100425
C18   C     C_R   0.799688 0.391381 0.013426 -0.152243
C19   C     C_R   0.845704 0.438994 0.904973 -0.165990
C20   C     C_R   0.971206 0.512130 0.440266 0.183551
C21   C     C_R   0.864526 0.523458 0.434909 -0.290882
C22   C     C_R   0.872275 0.434981 0.661427 -0.015162
C23   C     C_R   0.980584 0.427404 0.667790 -0.254341
C24   C     C_2   0.434116 0.935920 0.386576 0.515634
C25   C     C_2   0.466197 0.868056 0.497531 -0.503399
C26   C     C_2   0.434710 0.071729 0.399434 -0.212787
H1    H     H_    0.820386 0.562448 0.345010 0.155379
H2    H     H_    0.181918 0.421256 0.655888 0.161845
H3    H     H_    0.474102 0.910821 0.596964 0.145233
H4    H     H_    0.386200 0.126181 0.323984 0.215314
H5    H     H_    0.738328 0.236713 0.660044 0.101909
H6    H     H_    0.656302 0.154730 0.852023 0.135275
H7    H     H_    0.695048 0.253172 0.078088 0.143848
H8    H     H_    0.816705 0.434013 0.112214 0.131052
H9    H     H_    0.898207 0.518589 0.920983 0.132201
H10   H     H_    0.305719 0.939833 0.038280 0.383150
H11   H     H_    0.550770 0.082095 0.573204 0.142393
H12   H     H_    0.624303 0.622055 0.896185 0.160415
H13   H     H_    0.451575 0.438907 0.889594 0.163453
H14   H     H_    0.636728 0.601353 0.147461 0.154480
H15   H     H_    0.435810 0.465275 0.091256 0.166767
H16   H     H_    0.975868 0.583198 0.238348 0.137676
H17   H     H_    0.026361 0.389637 0.757138 0.148993
H18   H     H_    0.166685 0.570587 0.253291 0.194211
N1    N     N_2   0.501130 0.501330 0.852280 -0.190379
N2    N     N_2   0.501160 0.501360 0.147950 -0.177570
O1    O     O_R   0.499980 0.319060 0.613040 -0.616274
O2    O     O_2   0.318741 0.762647 0.237154 -0.313834
O3    O     O_3   0.324805 0.981557 0.126710 -0.580372
O4    O     O_R   0.500020 0.319100 0.386900 -0.610804
O5    O     O_R   0.346340 0.499960 0.594380 -0.624371
O6    O     O_R   0.346380 0.500000 0.368250 -0.601714
O7    O     O_R   0.499980 0.680900 0.613100 -0.618252
O8    O     O_R   0.500020 0.680940 0.386960 -0.525516
O9    O     O_R   0.653620 0.500000 0.631750 -0.612169
O10   O     O_R   0.653660 0.500040 0.405620 -0.632532
O11   O     O_2   0.483273 0.830141 0.159332 -0.306484
S1    S     S_3+6 0.390234 0.872241 0.224526 0.023679
Zn1   Zn    Zn3+2 0.499980 0.499970 0.650990 0.959438
Zn2   Zn    Zn3+2 0.500020 0.500030 0.349010 1.005291

loop_
_geom_bond_atom_site_label_1
_geom_bond_atom_site_label_2
_ccdc_geom_bond_type
C17   C18   A    
C8    C22   A    
H15   N2    S    
C13   H2    S    
O2    S1    D    
O9    Zn1   S    
C10   H16   S    
C18   H8    S    
C5    N2    D    
C12   C23   A    
C7    O9    A    
H13   N1    S    
O4    Zn2   S    
C12   C20   A    
C8    C21   A    
O7    Zn1   S    
C23   H17   S    
C11   H18   S    
C2    C26   D    
O8    Zn2   S    
C20   C21   A    
C15   H5    S    
C12   C13   A    
C9    C11   A    
C2    H11   S    
C14   C22   S    
O11   S1    D    
C17   H7    S    
C7    O10   A    
C4    O6    A    
C1    O1    A    
C24   C26   S    
C6    O8    A    
C25   H3    S    
C21   H1    S    
C6    C25   S    
C16   H6    S    
C10   C11   A    
O3    S1    S    
C6    O7    A    
O1    Zn1   S    
C15   C16   A    
C7    C8    S    
O5    Zn1   S    
C24   C25   D    
C24   S1    S    
C1    C2    S    
C1    O4    A    
C5    H14   S    
C9    C13   A    
C14   C15   A    
C18   C19   A    
C19   H9    S    
C4    O5    A    
O6    Zn2   S    
N2    Zn2   S    
C4    C9    S    
C22   C23   A    
C14   C19   A    
C3    N1    D    
N1    Zn1   S    
H10   O3    S    
O10   Zn2   S    
C3    H12   S    
C10   C20   A    
C16   C17   A    
C3    C5    S    
C26   H4    S    
