data_mof_unit_63684.cif
_audit_creation_date              2012-12-10T18:48:46-0500
_audit_creation_method            fapswitch 2.2
_symmetry_space_group_name_H-M    P1
_symmetry_Int_Tables_number       1
_space_group_crystal_system       triclinic
_cell_length_a                    19.411774
_cell_length_b                    18.141046
_cell_length_c                    10.750373
_cell_angle_alpha                 90.024552
_cell_angle_beta                  90.223403
_cell_angle_gamma                 90.020653
_cell_volume                      3785.71324315

loop_
_atom_site_label
_atom_site_type_symbol
_atom_type_description
_atom_site_fract_x
_atom_site_fract_y
_atom_site_fract_z
_atom_type_partial_charge
C1    C     C_R   0.367484 0.499997 0.499810 0.839039
C2    C     C_3   0.566360 0.469803 0.927580 -0.352836
C3    C     C_R   0.744659 0.433816 0.516988 -0.200826
C4    C     C_R   0.744664 0.566379 0.486888 -0.189157
C5    C     C_R   0.816414 0.433963 0.518366 -0.061542
C6    C     C_R   0.816412 0.566362 0.487505 -0.059570
C7    C     C_R   0.852579 0.500191 0.503354 0.194709
C8    C     C_R   0.708200 0.500058 0.501317 -0.045947
C9    C     C_R   0.964362 0.529005 0.401695 0.577567
C10   C     C_R   0.964603 0.471420 0.605967 0.575231
C11   C     C_R   0.036111 0.528666 0.401927 -0.179826
C12   C     C_R   0.036376 0.471669 0.606075 -0.172233
C13   C     C_R   0.072165 0.500131 0.504057 -0.068447
C14   C     C_R   0.928176 0.500228 0.503729 -0.200035
C15   C     C_R   0.183592 0.434020 0.481625 0.173474
C16   C     C_R   0.183983 0.565885 0.525050 0.172851
C17   C     C_R   0.499250 0.500123 0.259594 0.817196
C18   C     C_R   0.255368 0.434356 0.480667 -0.183833
C19   C     C_R   0.255740 0.565587 0.522995 -0.182250
C20   C     C_R   0.291883 0.500005 0.500856 -0.110767
C21   C     C_R   0.147512 0.499969 0.503904 0.032110
C22   C     C_R   0.456831 0.720554 0.421648 0.000273
C23   C     C_R   0.456578 0.279360 0.422108 0.006561
C24   C     C_R   0.455528 0.797943 0.419625 0.546491
C25   C     C_R   0.455326 0.201963 0.420022 0.545708
C26   C     C_R   0.499322 0.838497 0.499210 -0.025462
C27   C     C_R   0.499413 0.161499 0.499087 -0.023406
C28   C     C_R   0.542930 0.798745 0.579743 -0.347214
C29   C     C_R   0.543311 0.201322 0.579094 -0.351291
C30   C     C_R   0.542585 0.721344 0.578478 0.118283
C31   C     C_R   0.542918 0.278729 0.577901 0.112497
C32   C     C_R   0.502291 0.961309 0.611302 -0.158819
C33   C     C_R   0.502336 0.038793 0.611269 -0.159180
C34   C     C_R   0.499776 0.078687 0.498987 0.145217
C35   C     C_R   0.499717 0.921319 0.499049 0.145118
C36   C     C_R   0.632547 0.500013 0.500344 0.797440
C37   C     C_R   0.498237 0.038681 0.386732 -0.097577
C38   C     C_R   0.498229 0.961251 0.386759 -0.095940
C39   C     C_R   0.498232 0.500229 0.740351 0.837592
C40   C     C_3   0.491756 0.580989 0.073118 -0.409510
C41   C     C_3   0.434986 0.456821 0.072987 -0.432113
C42   C     C_3   0.491000 0.582532 0.930277 0.616770
C43   C     C_3   0.438329 0.449304 0.929931 0.617055
C44   C     C_3   0.565477 0.466368 0.071093 -0.361502
C45   C     C_3   0.498056 0.500781 0.121892 -0.050265
C46   C     C_3   0.496673 0.501177 0.878235 -0.123617
Cu1   Cu    Cu3+1 0.500000 0.573360 0.499960 0.980627
Cu2   Cu    Cu3+1 0.500000 0.426640 0.499960 0.979014
H1    H     H_    0.535694 0.614662 0.108378 0.229326
H2    H     H_    0.433293 0.401052 0.116025 0.229139
H3    H     H_    0.063700 0.550475 0.322624 0.196999
H4    H     H_    0.064175 0.449774 0.685441 0.200599
H5    H     H_    0.282479 0.383274 0.462938 0.187911
H6    H     H_    0.283147 0.616641 0.540004 0.195014
H7    H     H_    0.422896 0.689857 0.360623 0.155381
H8    H     H_    0.422400 0.309994 0.361511 0.151612
H9    H     H_    0.577788 0.827285 0.642172 0.175128
H10   H     H_    0.578402 0.172828 0.641082 0.168866
H11   H     H_    0.576540 0.691369 0.640380 0.181489
H12   H     H_    0.577097 0.308766 0.639410 0.140528
H13   H     H_    0.503189 0.932591 0.699569 0.159786
H14   H     H_    0.503281 0.067592 0.699501 0.158463
H15   H     H_    0.498196 0.067298 0.298388 0.179751
H16   H     H_    0.498215 0.932585 0.298423 0.180841
H17   H     H_    0.444043 0.606490 0.110625 0.166634
H18   H     H_    0.386866 0.485560 0.100975 0.150466
H19   H     H_    0.610972 0.496384 0.108994 0.178243
H20   H     H_    0.569652 0.407909 0.101595 0.206232
H21   H     H_    0.610192 0.504661 0.896395 0.211024
H22   H     H_    0.576325 0.413727 0.889677 0.214633
H23   H     H_    0.717811 0.381938 0.528569 0.156554
H24   H     H_    0.717829 0.618223 0.474686 0.161474
H25   H     H_    0.843792 0.382378 0.529958 0.166367
H26   H     H_    0.843786 0.617991 0.476567 0.167358
N1    N     N_R   0.500020 0.683620 0.499990 -0.216543
N2    N     N_R   0.500020 0.316380 0.499990 -0.210853
O1    O     O_R   0.400180 0.561980 0.499950 -0.583359
O2    O     O_R   0.400180 0.438020 0.499950 -0.576106
O3    O     O_R   0.499990 0.561950 0.317660 -0.595466
O4    O     O_R   0.499990 0.438050 0.317660 -0.592615
O5    O     O_R   0.599810 0.561930 0.499990 -0.587231
O6    O     O_R   0.599810 0.438070 0.499990 -0.596346
O7    O     O_R   0.500010 0.561950 0.682280 -0.535749
O8    O     O_R   0.500010 0.438050 0.682280 -0.539319
I1    I     I_    0.132853 0.332541 0.445090 -0.241592
I2    I     I_    0.133909 0.667293 0.563989 -0.240454
F1    F     F_    0.410229 0.832563 0.343000 -0.644013
F2    F     F_    0.409806 0.167237 0.343866 -0.642633
I3    I     I_    0.403963 0.647797 0.867182 -0.253123
I4    I     I_    0.337098 0.462310 0.848791 -0.259752
F3    F     F_    0.548164 0.622515 0.891855 -0.654650
F4    F     F_    0.455022 0.376617 0.902797 -0.626613
F5    F     F_    0.930252 0.555960 0.301052 -0.630204
F6    F     F_    0.930713 0.444439 0.706370 -0.630857

loop_
_geom_bond_atom_site_label_1
_geom_bond_atom_site_label_2
_ccdc_geom_bond_type
C15   C18   A    
C16   C21   A    
C27   C29   A    
C34   C37   A    
C1    O1    A    
Cu2   N2    S    
C19   C20   A    
Cu1   O3    S    
C23   N2    A    
C4    C8    A    
C23   H8    S    
C28   H9    S    
C2    C46   S    
C43   C46   S    
C24   C26   A    
C39   O8    A    
C8    C36   S    
C10   F6    S    
C40   H1    S    
C17   O3    A    
C42   F3    S    
C42   C46   S    
Cu2   O2    S    
C18   H5    S    
C37   H15   S    
C7    C14   S    
C2    C44   S    
C33   H14   S    
Cu1   O7    S    
C2    H21   S    
C15   I1    S    
C40   C42   S    
C16   I2    S    
C1    O2    A    
C41   C43   S    
C22   N1    A    
C12   H4    S    
C6    H26   S    
C6    C7    A    
C38   H16   S    
C27   C34   S    
C40   C45   S    
C43   I4    S    
C32   C35   A    
C35   C38   A    
C4    C6    A    
C3    C8    A    
C10   C14   A    
C36   O6    A    
C5    C7    A    
C17   O4    A    
Cu2   O8    S    
C31   H12   S    
C3    H23   S    
C9    C14   A    
C37   C38   A    
Cu1   Cu2   S    
C36   O5    A    
C30   H11   S    
C33   C34   A    
C13   C21   S    
C29   H10   S    
C9    C11   A    
C41   H18   S    
C10   C12   A    
C39   C46   S    
C19   H6    S    
C40   H17   S    
C22   C24   A    
C44   H20   S    
Cu1   O1    S    
C9    F5    S    
C41   H2    S    
C4    H24   S    
C44   C45   S    
C25   F2    S    
C1    C20   S    
C17   C45   S    
C3    C5    A    
C32   H13   S    
C22   H7    S    
C25   C27   A    
C26   C28   A    
C43   F4    S    
C42   I3    S    
C32   C33   A    
Cu2   O4    S    
C28   C30   A    
C39   O7    A    
C29   C31   A    
C30   N1    A    
C11   C13   A    
C31   N2    A    
C16   C19   A    
Cu2   O6    S    
C18   C20   A    
Cu1   O5    S    
C5    H25   S    
C24   F1    S    
C11   H3    S    
Cu1   N1    S    
C26   C35   S    
C15   C21   A    
C23   C25   A    
C12   C13   A    
C41   C45   S    
C44   H19   S    
C2    H22   S    
