data_mof_unit_23922.cif
_audit_creation_date              2012-12-10T17:39:18-0500
_audit_creation_method            fapswitch 2.2
_symmetry_space_group_name_H-M    P1
_symmetry_Int_Tables_number       1
_space_group_crystal_system       triclinic
_cell_length_a                    12.307499
_cell_length_b                    13.262605
_cell_length_c                    27.815191
_cell_angle_alpha                 77.435039
_cell_angle_beta                  101.245562
_cell_angle_gamma                 116.963579
_cell_volume                      3925.48012622

loop_
_atom_site_label
_atom_site_type_symbol
_atom_type_description
_atom_site_fract_x
_atom_site_fract_y
_atom_site_fract_z
_atom_type_partial_charge
C1    C     C_R   0.854442 0.286699 0.505685 0.795952
C2    C     C_R   0.084314 0.477373 0.731026 -0.099583
C3    C     C_R   0.992746 0.494670 0.746139 0.344219
C4    C     C_R   0.993394 0.495730 0.897873 -0.043434
C5    C     C_R   0.966565 0.393793 0.880618 -0.022773
C6    C     C_R   0.940339 0.292819 0.914078 -0.142720
C7    C     C_R   0.018959 0.597067 0.863788 -0.021926
C8    C     C_R   0.996855 0.497559 0.645325 -0.044873
C9    C     C_R   0.001127 0.500055 0.354738 -0.031390
C10   C     C_R   0.977750 0.395516 0.034508 0.041874
C11   C     C_R   0.016951 0.599282 0.016547 0.043032
C12   C     C_R   0.999123 0.499287 0.592406 0.802424
C13   C     C_R   0.998202 0.497741 0.050810 0.067985
C14   C     C_R   0.964822 0.298355 0.070564 -0.201960
C15   C     C_R   0.967646 0.300428 0.120496 -0.145123
C16   C     C_R   0.984157 0.399410 0.136681 -0.020725
C17   C     C_R   0.999872 0.498421 0.102030 -0.044119
C18   C     C_R   0.017163 0.598090 0.118737 -0.019603
C19   C     C_R   0.018360 0.596939 0.169427 0.532460
C20   C     C_R   0.985419 0.401695 0.187027 0.532683
C21   C     C_R   0.095431 0.486814 0.288783 -0.105195
C22   C     C_R   0.095026 0.486830 0.338881 -0.214032
C23   C     C_R   0.145496 0.713371 0.492756 0.812003
C24   C     C_R   0.907776 0.513201 0.319573 -0.225572
C25   C     C_R   0.908264 0.512890 0.269539 -0.102964
C26   C     C_R   0.002050 0.499771 0.253930 0.355709
C27   C     C_R   0.971718 0.393804 0.983091 0.042611
C28   C     C_R   0.994832 0.496369 0.949077 0.068935
C29   C     C_R   0.019496 0.599593 0.965616 0.041069
C30   C     C_R   0.942495 0.292495 0.964206 -0.202096
C31   C     C_R   0.046167 0.698582 0.880575 -0.138682
C32   C     C_R   0.031885 0.697229 0.034623 -0.202203
C33   C     C_R   0.032289 0.696473 0.084645 -0.147094
C34   C     C_R   0.000445 0.500142 0.407614 0.787357
C35   C     C_R   0.046765 0.700144 0.930372 -0.200727
C36   C     C_R   0.283963 0.010102 0.423161 -0.182445
C37   C     C_R   0.228835 0.833970 0.480645 -0.073940
C38   C     C_R   0.810025 0.090921 0.547010 -0.232352
C39   C     C_R   0.735114 0.974820 0.554902 -0.182296
C40   C     C_R   0.617617 0.929390 0.529550 0.362151
C41   C     C_R   0.569332 0.005048 0.499169 -0.017518
C42   C     C_R   0.652992 0.120352 0.485287 0.048551
C43   C     C_R   0.442996 0.972038 0.481277 0.103044
C44   C     C_R   0.407574 0.044185 0.442471 0.159059
C45   C     C_R   0.965961 0.395090 0.829955 0.542431
C46   C     C_R   0.495774 0.149422 0.423428 -0.225896
C47   C     C_R   0.616483 0.187730 0.444835 -0.166758
C48   C     C_R   0.349874 0.872602 0.502664 -0.135176
C49   C     C_R   0.195231 0.904131 0.441449 -0.183739
C50   C     C_R   0.771986 0.164113 0.511388 -0.086857
C51   C     C_R   0.348621 0.334553 0.581850 -0.233890
C52   C     C_R   0.756461 0.639845 0.431032 0.092637
C53   C     C_R   0.653969 0.661058 0.413109 -0.230439
C54   C     C_R   0.548772 0.602819 0.437509 -0.071688
C55   C     C_R   0.546016 0.524567 0.481228 0.030670
C56   C     C_R   0.017955 0.594782 0.813474 0.537099
C57   C     C_R   0.651637 0.502719 0.497058 0.248204
C58   C     C_R   0.443448 0.468023 0.509884 -0.051683
C59   C     C_R   0.446984 0.387905 0.552779 0.094974
C60   C     C_R   0.548791 0.362862 0.565925 0.187284
C61   C     C_R   0.647990 0.419442 0.538470 -0.221595
C62   C     C_R   0.337925 0.489604 0.498564 0.157591
C63   C     C_R   0.249306 0.361535 0.569163 0.065948
C64   C     C_R   0.902880 0.512913 0.710862 -0.077911
C65   C     C_R   0.904757 0.514307 0.660763 -0.174087
C66   C     C_R   0.086457 0.478752 0.680958 -0.204752
Cu1   Cu    Cu3+1 0.098270 0.475420 0.511360 0.982790
Cu2   Cu    Cu3+1 0.901730 0.524580 0.488640 0.942373
H1    H     H_    0.158428 0.465468 0.670206 0.168112
H2    H     H_    0.831583 0.525950 0.722338 0.151194
H3    H     H_    0.067590 0.777986 0.855202 0.190848
H4    H     H_    0.041683 0.776149 0.011067 0.140621
H5    H     H_    0.834101 0.523308 0.330673 0.156369
H6    H     H_    0.044283 0.773874 0.096463 0.185768
H7    H     H_    0.835510 0.522495 0.242832 0.143286
H8    H     H_    0.071153 0.782690 0.939952 0.142471
H9    H     H_    0.101702 0.875376 0.423850 0.154630
H10   H     H_    0.470768 0.203968 0.392804 0.143132
H11   H     H_    0.256602 0.063953 0.392997 0.143312
H12   H     H_    0.154243 0.463537 0.758126 0.146618
H13   H     H_    0.370102 0.822675 0.536103 0.203793
H14   H     H_    0.900024 0.123105 0.567881 0.171728
H15   H     H_    0.771562 0.919109 0.579386 0.180781
H16   H     H_    0.681019 0.269708 0.428283 0.166544
H17   H     H_    0.173978 0.321147 0.591719 0.126764
H18   H     H_    0.347738 0.273072 0.614622 0.193862
H19   H     H_    0.326916 0.547875 0.466559 0.135828
H20   H     H_    0.837137 0.683963 0.411465 0.122887
H21   H     H_    0.917816 0.212942 0.901658 0.187644
H22   H     H_    0.471276 0.620776 0.421344 0.144534
H23   H     H_    0.655614 0.721965 0.379951 0.148792
H24   H     H_    0.720630 0.394563 0.551124 0.228561
H25   H     H_    0.168378 0.476900 0.365088 0.150305
H26   H     H_    0.168503 0.477073 0.276967 0.140931
H27   H     H_    0.956897 0.223536 0.146479 0.187786
H28   H     H_    0.954154 0.219074 0.061744 0.141269
H29   H     H_    0.918765 0.210326 0.986986 0.140635
H30   H     H_    0.834137 0.528445 0.634217 0.180881
N1    N     N_R   0.991792 0.494744 0.797611 -0.468236
N2    N     N_R   0.002278 0.499539 0.202376 -0.466878
N3    N     N_R   0.246290 0.438210 0.528570 -0.185781
N4    N     N_R   0.754320 0.561170 0.471730 -0.198855
O1    O     O_R   0.972510 0.318140 0.514280 -0.583400
O2    O     O_2   0.968642 0.306571 0.220320 -0.542970
O3    O     O_2   0.044021 0.691933 0.780708 -0.532778
O4    O     O_2   0.036355 0.692629 0.185740 -0.542439
O5    O     O_R   0.806530 0.359640 0.495100 -0.606083
O6    O     O_R   0.082990 0.479270 0.579320 -0.580216
O7    O     O_R   0.917010 0.520770 0.560140 -0.595668
O8    O     O_R   0.193470 0.640360 0.504900 -0.527045
O9    O     O_R   0.027490 0.681860 0.485720 -0.584627
O10   O     O_R   0.082990 0.479230 0.439860 -0.595353
O11   O     O_R   0.917010 0.520730 0.420680 -0.602207
O12   O     O_2   0.939166 0.297487 0.813073 -0.527971
S1    S     S_3+6 0.555707 0.781550 0.525660 -0.038808
O13   O     O_2   0.473782 0.756961 0.477937 -0.314605
O14   O     O_2   0.658394 0.749015 0.526629 -0.297865
O15   O     O_3   0.475962 0.702441 0.573864 -0.536028
H31   H     H_    0.536267 0.721696 0.603603 0.344501
Br1   Br    Br    0.560404 0.252131 0.621912 -0.529875

loop_
_geom_bond_atom_site_label_1
_geom_bond_atom_site_label_2
_ccdc_geom_bond_type
C10   C27   A    
C58   C62   A    
C21   C26   A    
C8    C66   A    
C34   O10   A    
C41   C42   A    
C63   N3    A    
Cu1   O1    S    
C32   H4    S    
C53   C54   A    
C34   O11   A    
C57   N4    A    
C30   H29   S    
C52   N4    A    
C28   C29   A    
Cu2   N4    S    
C65   H30   S    
C54   H22   S    
C15   H27   S    
C5    C6    A    
C9    C22   A    
C40   S1    S    
C21   H26   S    
C15   C16   A    
C48   H13   S    
C18   C19   A    
O15   H31   S    
C54   C55   A    
C45   O12   S    
C16   C17   A    
S1    O14   D    
C53   H23   S    
Cu2   O5    S    
C64   H2    S    
C43   C48   A    
C1    O1    A    
C61   H24   S    
C16   C20   A    
Cu2   O11   S    
C42   C47   A    
C62   N3    A    
C31   H3    S    
C59   C60   A    
C21   C22   A    
C63   H17   S    
C27   C30   A    
C41   C43   A    
C7    C56   A    
C4    C7    A    
C51   H18   S    
C14   H28   S    
C12   O7    A    
C4    C28   A    
C44   C46   A    
C35   H8    S    
C7    C31   A    
Cu1   Cu2   S    
C52   H20   S    
C51   C63   A    
C24   C25   A    
C45   N1    A    
C39   C40   A    
C12   O6    A    
C58   C59   A    
C23   C37   S    
C5    C45   A    
C36   H11   S    
C60   C61   A    
C25   H7    S    
Cu2   O9    S    
C43   C44   A    
C37   C49   A    
C33   H6    S    
Cu1   O8    S    
C20   N2    A    
C8    C12   S    
S1    O15   S    
C17   C18   A    
C47   H16   S    
C37   C48   A    
C1    O5    A    
C38   C50   A    
C40   C41   A    
C6    C30   A    
C42   C50   A    
C11   C32   A    
C55   C57   A    
C10   C14   A    
C9    C34   S    
C22   H25   S    
C31   C35   A    
C36   C44   A    
C51   C59   A    
Cu1   O6    S    
C52   C53   A    
Cu1   N3    S    
C46   H10   S    
C1    C50   S    
C23   O8    A    
C46   C47   A    
C4    C5    A    
C2    C66   A    
C10   C13   A    
C19   N2    A    
C9    C24   A    
C57   C61   A    
C20   O2    S    
C6    H21   S    
C23   O9    A    
C62   H19   S    
C29   C35   A    
C13   C17   A    
C32   C33   A    
C2    C3    A    
C25   C26   A    
C39   H15   S    
C64   C65   A    
C11   C13   A    
C38   C39   A    
C49   H9    S    
C60   Br1   S    
Cu2   O7    S    
C3    C64   A    
C24   H5    S    
C18   C33   A    
C56   O3    S    
C2    H12   S    
C66   H1    S    
C19   O4    S    
C3    N1    S    
Cu1   O10   S    
C8    C65   A    
C11   C29   A    
C55   C58   A    
C27   C28   A    
C14   C15   A    
C56   N1    A    
C38   H14   S    
C36   C49   A    
S1    O13   D    
C26   N2    S    
