data_mof_unit_39133.cif
_audit_creation_date              2012-12-11T15:08:40-0500
_audit_creation_method            fapswitch 2.2
_symmetry_space_group_name_H-M    P1
_symmetry_Int_Tables_number       1
_space_group_crystal_system       triclinic
_cell_length_a                    19.397245
_cell_length_b                    11.337493
_cell_length_c                    18.663708
_cell_angle_alpha                 89.979323
_cell_angle_beta                  89.054659
_cell_angle_gamma                 90.002936
_cell_volume                      4103.89149067

loop_
_atom_site_label
_atom_site_type_symbol
_atom_type_description
_atom_site_fract_x
_atom_site_fract_y
_atom_site_fract_z
_atom_type_partial_charge
C1    C     C_R   0.272123 0.043511 0.854016 0.531789
C2    C     C_R   0.727691 0.042511 0.145307 0.530573
C3    C     C_R   0.771253 0.545031 0.853270 0.530253
C4    C     C_R   0.227548 0.542700 0.145635 0.532491
C5    C     C_3   0.519293 0.722070 0.964715 -0.113589
C6    C     C_3   0.479146 0.724609 0.036241 -0.112878
C7    C     C_3   0.016016 0.219973 0.966842 -0.109515
C8    C     C_3   0.976600 0.231396 0.038585 -0.109798
C9    C     C_3   0.311926 0.527797 0.042305 -0.237545
C10   C     C_3   0.683039 0.540435 0.955181 -0.238495
C11   C     C_3   0.809510 0.015494 0.039376 -0.235337
C12   C     C_3   0.187664 0.029070 0.957544 -0.238507
C13   C     C_3   0.321452 0.554104 0.961930 -0.233119
C14   C     C_3   0.675253 0.562253 0.036547 -0.230435
C15   C     C_3   0.813430 0.023801 0.956903 -0.239605
C16   C     C_3   0.178954 0.053011 0.038279 -0.233458
C17   C     C_3   0.179681 0.521560 0.026203 -0.207029
C18   C     C_3   0.813014 0.513120 0.972765 -0.210507
C19   C     C_3   0.676769 0.029922 0.027210 -0.206737
C20   C     C_3   0.320054 0.021843 0.973007 -0.206298
C21   C     C_3   0.240054 0.706063 0.056787 -0.256219
C22   C     C_3   0.764515 0.707725 0.943342 -0.255001
C23   C     C_3   0.747354 0.203350 0.055121 -0.254160
C24   C     C_3   0.260405 0.206674 0.943330 -0.256667
C25   C     C_3   0.240919 0.573137 0.069876 0.066687
C26   C     C_3   0.756433 0.575986 0.928921 0.067121
C27   C     C_3   0.741465 0.071525 0.068906 0.063996
C28   C     C_3   0.258793 0.074024 0.929835 0.066533
C29   C     C_3   0.254800 0.610399 0.932019 0.053764
C30   C     C_3   0.743606 0.612001 0.067241 0.053598
C31   C     C_3   0.754260 0.104291 0.930204 0.057639
C32   C     C_3   0.245599 0.109601 0.068056 0.053856
C33   C     C_3   0.195104 0.524701 0.945146 -0.254393
C34   C     C_3   0.799694 0.520363 0.054037 -0.258098
C35   C     C_3   0.685517 0.043327 0.945965 -0.248407
C36   C     C_3   0.305227 0.023745 0.054288 -0.255500
C37   C     C_3   0.238063 0.725079 0.974989 -0.225067
C38   C     C_3   0.764522 0.725149 0.025102 -0.226259
C39   C     C_3   0.758442 0.220226 0.973645 -0.222551
C40   C     C_3   0.262316 0.224663 0.025290 -0.224318
C41   C     C_3   0.497828 0.703630 0.460213 -0.235982
C42   C     C_3   0.502158 0.703635 0.539815 -0.235880
C43   C     C_3   0.997825 0.203635 0.460213 -0.236008
C44   C     C_3   0.002155 0.203637 0.539814 -0.235877
C45   C     C_R   0.445098 0.817265 0.862583 0.535641
C46   C     C_R   0.555233 0.817308 0.137406 0.535104
C47   C     C_R   0.945377 0.317549 0.862754 0.538067
C48   C     C_R   0.056217 0.317411 0.137501 0.536410
C49   C     C_3   0.565892 0.897913 0.467376 -0.212442
C50   C     C_3   0.434103 0.897901 0.532585 -0.212529
C51   C     C_3   0.065899 0.397904 0.467380 -0.212506
C52   C     C_3   0.934105 0.397908 0.532582 -0.212571
C53   C     C_3   0.442681 0.902586 0.449743 -0.264856
C54   C     C_3   0.557309 0.902609 0.550214 -0.264905
C55   C     C_3   0.942691 0.402604 0.449742 -0.264824
C56   C     C_3   0.057311 0.402612 0.550216 -0.264896
C57   C     C_3   0.507169 0.831199 0.429883 0.068880
C58   C     C_3   0.492824 0.831218 0.570103 0.068929
C59   C     C_3   0.007174 0.331204 0.429884 0.068881
C60   C     C_3   0.992824 0.331221 0.570102 0.068949
C61   C     C_3   0.184860 0.673707 0.454281 -0.236615
C62   C     C_3   0.815129 0.673751 0.545701 -0.236721
C63   C     C_3   0.684859 0.173706 0.454277 -0.236627
C64   C     C_3   0.315129 0.173753 0.545700 -0.236728
C65   C     C_3   0.187691 0.681638 0.535017 -0.238279
C66   C     C_3   0.812297 0.681656 0.464968 -0.238298
C67   C     C_3   0.687690 0.181631 0.535013 -0.238252
C68   C     C_3   0.312298 0.181654 0.464966 -0.238291
C69   C     C_3   0.237035 0.475488 0.481554 -0.280160
C70   C     C_3   0.762968 0.475499 0.518525 -0.280081
C71   C     C_3   0.737034 0.975487 0.481545 -0.280142
C72   C     C_3   0.262975 0.975497 0.518521 -0.280080
C73   C     C_3   0.311817 0.628124 0.429945 -0.111112
C74   C     C_3   0.688174 0.628101 0.570061 -0.110903
C75   C     C_3   0.811815 0.128127 0.429942 -0.111189
C76   C     C_3   0.188174 0.128091 0.570056 -0.111089
C77   C     C_3   0.238800 0.578652 0.428123 0.088850
C78   C     C_3   0.761198 0.578677 0.571900 0.089131
C79   C     C_3   0.738798 0.078651 0.428114 0.088736
C80   C     C_3   0.261200 0.078674 0.571897 0.088970
C81   C     C_3   0.261510 0.641974 0.560169 0.049221
C82   C     C_3   0.738479 0.641956 0.439833 0.049084
C83   C     C_3   0.761507 0.141965 0.560166 0.049446
C84   C     C_3   0.238481 0.141952 0.439830 0.049222
C85   C     C_3   0.264677 0.507893 0.555092 -0.238384
C86   C     C_3   0.735328 0.507872 0.444969 -0.238453
C87   C     C_3   0.764675 0.007888 0.555084 -0.238404
C88   C     C_3   0.235329 0.007869 0.444966 -0.238437
C89   C     C_R   0.261967 0.642441 0.855007 0.543063
C90   C     C_R   0.737580 0.643407 0.144564 0.543188
C91   C     C_R   0.760964 0.137980 0.853425 0.540677
C92   C     C_R   0.238319 0.141566 0.145209 0.542316
C93   C     C_3   0.317488 0.686567 0.505060 -0.250824
C94   C     C_3   0.682493 0.686520 0.494920 -0.250876
C95   C     C_3   0.817485 0.186561 0.505060 -0.250748
C96   C     C_3   0.182495 0.186513 0.494915 -0.250838
C97   C     C_R   0.278393 0.033184 0.642462 0.539826
C98   C     C_R   0.721606 0.033158 0.357548 0.540053
C99   C     C_R   0.778392 0.533186 0.642464 0.539494
C100  C     C_R   0.221603 0.533153 0.357566 0.539766
C101  C     C_R   0.472140 0.823624 0.647154 0.530318
C102  C     C_R   0.527858 0.823607 0.352840 0.530513
C103  C     C_R   0.972138 0.323625 0.647153 0.530310
C104  C     C_R   0.027861 0.323607 0.352841 0.530667
C105  C     C_R   0.272424 0.680433 0.635970 0.541905
C106  C     C_R   0.727569 0.680427 0.364023 0.542100
C107  C     C_R   0.772422 0.180425 0.635968 0.541561
C108  C     C_R   0.227569 0.180426 0.364022 0.542016
C109  C     C_3   0.480805 0.917431 0.035307 -0.108991
C110  C     C_3   0.521974 0.914890 0.963282 -0.109490
C111  C     C_3   0.986707 0.423202 0.033740 -0.114021
C112  C     C_3   0.026392 0.411743 0.961335 -0.110226
C113  C     C_3   0.431705 0.821042 0.007201 -0.157304
C114  C     C_3   0.568976 0.816363 0.992570 -0.158777
C115  C     C_3   0.933206 0.332488 0.008457 -0.162207
C116  C     C_3   0.069603 0.309643 0.992439 -0.157103
C117  C     C_3   0.472829 0.820164 0.936042 0.056491
C118  C     C_3   0.527798 0.820468 0.063782 0.056072
C119  C     C_3   0.973052 0.321820 0.936559 0.058516
C120  C     C_3   0.029404 0.321944 0.063787 0.054876
Cr1   Cr    Cr6+3 0.229620 0.836040 0.749110 0.985889
Cr2   Cr    Cr6+3 0.770380 0.836040 0.250890 0.985796
Cr3   Cr    Cr6+3 0.729620 0.336040 0.749110 0.985616
Cr4   Cr    Cr6+3 0.270380 0.336040 0.250890 0.985885
Cr5   Cr    Cr6+3 0.387630 0.990680 0.750730 0.990422
Cr6   Cr    Cr6+3 0.612370 0.990680 0.249270 0.990860
Cr7   Cr    Cr6+3 0.887630 0.490680 0.750730 0.991011
Cr8   Cr    Cr6+3 0.112370 0.490680 0.249270 0.990568
Cr9   Cr    Cr6+3 0.386020 0.676590 0.749210 0.990524
Cr10  Cr    Cr6+3 0.613980 0.676590 0.250790 0.991016
Cr11  Cr    Cr6+3 0.886020 0.176590 0.749210 0.990193
Cr12  Cr    Cr6+3 0.113980 0.176590 0.250790 0.990536
H1    H     H_    0.376644 0.809124 0.018730 0.091745
H2    H     H_    0.624206 0.802692 0.981524 0.090127
H3    H     H_    0.880519 0.336403 0.029162 0.096794
H4    H     H_    0.124588 0.293174 0.983254 0.092152
H5    H     H_    0.194325 0.748870 0.082496 0.129320
H6    H     H_    0.814099 0.740391 0.920118 0.131651
H7    H     H_    0.699953 0.250721 0.073359 0.126910
H8    H     H_    0.306527 0.248844 0.917959 0.129131
H9    H     H_    0.286390 0.745348 0.080860 0.102278
H10   H     H_    0.722516 0.758401 0.917996 0.102122
H11   H     H_    0.791286 0.239216 0.085603 0.099253
H12   H     H_    0.214679 0.247067 0.918839 0.101953
H13   H     H_    0.273336 0.794375 0.958608 0.108731
H14   H     H_    0.730243 0.797573 0.040495 0.109867
H15   H     H_    0.811365 0.248820 0.963324 0.103015
H16   H     H_    0.227415 0.294289 0.042164 0.108846
H17   H     H_    0.184779 0.751978 0.961689 0.129800
H18   H     H_    0.818401 0.746007 0.039830 0.131169
H19   H     H_    0.721446 0.285692 0.954083 0.136631
H20   H     H_    0.315742 0.250752 0.038615 0.129912
H21   H     H_    0.630643 0.082657 0.043580 0.141915
H22   H     H_    0.367293 0.075901 0.963089 0.139287
H23   H     H_    0.132552 0.575783 0.036250 0.138670
H24   H     H_    0.864434 0.553352 0.961116 0.142407
H25   H     H_    0.149003 0.555123 0.916077 0.122949
H26   H     H_    0.848074 0.545128 0.081516 0.124601
H27   H     H_    0.642375 0.097203 0.924994 0.130288
H28   H     H_    0.351975 0.052480 0.083123 0.124430
H29   H     H_    0.533723 0.635131 0.440077 0.138016
H30   H     H_    0.466248 0.635139 0.559972 0.138055
H31   H     H_    0.033718 0.135132 0.440077 0.138020
H32   H     H_    0.966243 0.135143 0.559970 0.138063
H33   H     H_    0.447977 0.668309 0.443983 0.116480
H34   H     H_    0.552006 0.668301 0.556051 0.116502
H35   H     H_    0.947974 0.168321 0.443982 0.116480
H36   H     H_    0.052003 0.168298 0.556049 0.116504
H37   H     H_    0.612605 0.855259 0.447824 0.100439
H38   H     H_    0.387404 0.855175 0.552144 0.100510
H39   H     H_    0.112603 0.355226 0.447846 0.100471
H40   H     H_    0.887407 0.355176 0.552130 0.100531
H41   H     H_    0.604009 0.871407 0.575704 0.110521
H42   H     H_    0.395976 0.871377 0.424276 0.110574
H43   H     H_    0.104008 0.371417 0.575711 0.110543
H44   H     H_    0.895985 0.371417 0.424269 0.110593
H45   H     H_    0.466476 0.998913 0.064768 0.113122
H46   H     H_    0.538061 0.993849 0.932284 0.114729
H47   H     H_    0.975067 0.507726 0.061372 0.114832
H48   H     H_    0.043457 0.487390 0.928145 0.114497
H49   H     H_    0.449067 0.995575 0.431753 0.112519
H50   H     H_    0.550919 0.995601 0.568160 0.112407
H51   H     H_    0.949087 0.495594 0.431760 0.112583
H52   H     H_    0.050919 0.495605 0.568153 0.112439
H53   H     H_    0.431463 0.990166 0.552115 0.130066
H54   H     H_    0.568508 0.990180 0.447811 0.130119
H55   H     H_    0.931462 0.490167 0.552117 0.130071
H56   H     H_    0.068538 0.490159 0.447811 0.130138
H57   H     H_    0.130823 0.652633 0.440757 0.127819
H58   H     H_    0.869169 0.652705 0.559235 0.127842
H59   H     H_    0.630822 0.152640 0.440752 0.127808
H60   H     H_    0.369169 0.152711 0.559235 0.127841
H61   H     H_    0.196418 0.760795 0.429802 0.130267
H62   H     H_    0.803565 0.760835 0.570135 0.130156
H63   H     H_    0.696417 0.260795 0.429801 0.130313
H64   H     H_    0.303561 0.260837 0.570132 0.130224
H65   H     H_    0.168679 0.768279 0.553170 0.123318
H66   H     H_    0.831306 0.768295 0.446762 0.123384
H67   H     H_    0.668680 0.268271 0.553167 0.123358
H68   H     H_    0.331309 0.268291 0.446759 0.123411
H69   H     H_    0.148430 0.620993 0.558774 0.131989
H70   H     H_    0.851563 0.621018 0.441247 0.132057
H71   H     H_    0.648428 0.120987 0.558769 0.131947
H72   H     H_    0.351564 0.121014 0.441247 0.132010
H73   H     H_    0.683702 0.958080 0.492295 0.109784
H74   H     H_    0.316311 0.958135 0.507779 0.109739
H75   H     H_    0.183702 0.458079 0.492304 0.109770
H76   H     H_    0.816300 0.458125 0.507793 0.109729
H77   H     H_    0.732534 0.967855 0.598287 0.123272
H78   H     H_    0.267480 0.967834 0.401785 0.123523
H79   H     H_    0.232535 0.467859 0.598296 0.123538
H80   H     H_    0.767482 0.467837 0.401793 0.123682
H81   H     H_    0.349218 0.553512 0.426658 0.139308
H82   H     H_    0.650780 0.553473 0.573390 0.139328
H83   H     H_    0.849216 0.053516 0.426651 0.139308
H84   H     H_    0.150782 0.053459 0.573381 0.139332
H85   H     H_    0.532621 0.639634 0.935804 0.122544
H86   H     H_    0.462942 0.644760 0.066338 0.122404
H87   H     H_    0.027512 0.134829 0.939907 0.120248
H88   H     H_    0.956924 0.155980 0.070644 0.122991
H89   H     H_    0.309654 0.778153 0.495252 0.118515
H90   H     H_    0.690320 0.778098 0.504690 0.118557
H91   H     H_    0.809650 0.278147 0.495255 0.118495
H92   H     H_    0.190323 0.278090 0.504686 0.118529
H93   H     H_    0.367604 0.669185 0.527526 0.113495
H94   H     H_    0.632376 0.669128 0.472463 0.113468
H95   H     H_    0.867600 0.169176 0.527526 0.113518
H96   H     H_    0.132378 0.169118 0.472457 0.113491
H97   H     H_    0.263408 0.399857 0.459014 0.115787
H98   H     H_    0.736611 0.399847 0.541107 0.115912
H99   H     H_    0.763406 0.899855 0.459004 0.115765
H100  H     H_    0.236626 0.899834 0.541106 0.115858
H101  H     H_    0.318431 0.475091 0.560732 0.125745
H102  H     H_    0.681580 0.475038 0.439341 0.125755
H103  H     H_    0.818429 0.975085 0.560725 0.125727
H104  H     H_    0.181579 0.975035 0.439342 0.125737
H105  H     H_    0.317717 0.433417 0.052161 0.130201
H106  H     H_    0.670525 0.447908 0.942907 0.127458
H107  H     H_    0.816932 0.925482 0.057641 0.132682
H108  H     H_    0.181270 0.934927 0.946768 0.130791
H109  H     H_    0.353583 0.570873 0.072828 0.108660
H110  H     H_    0.644867 0.593900 0.925899 0.109152
H111  H     H_    0.853906 0.063460 0.062140 0.107372
H112  H     H_    0.145840 0.073917 0.927991 0.110917
H113  H     H_    0.365769 0.614975 0.953948 0.137440
H114  H     H_    0.632245 0.624323 0.047154 0.137341
H115  H     H_    0.864892 0.059833 0.941201 0.141656
H116  H     H_    0.134160 0.112166 0.047626 0.138495
H117  H     H_    0.333945 0.471015 0.932779 0.119061
H118  H     H_    0.661350 0.478009 0.063802 0.119573
H119  H     H_    0.809331 0.935629 0.932343 0.112640
H120  H     H_    0.167379 0.968872 0.066730 0.118007
H121  H     H_    0.664111 0.940350 0.043442 0.100753
H122  H     H_    0.334829 0.936493 0.951453 0.099727
H123  H     H_    0.164451 0.435274 0.046211 0.098857
H124  H     H_    0.816845 0.423738 0.953580 0.100340
H125  H     H_    0.683944 0.956106 0.919116 0.106545
H126  H     H_    0.291215 0.935465 0.074327 0.110981
H127  H     H_    0.208780 0.436562 0.924664 0.111896
H128  H     H_    0.782615 0.434518 0.075913 0.110099
O1    O     O_R   0.214130 0.708570 0.829890 -0.523959
O2    O     O_R   0.785870 0.708570 0.170110 -0.523773
O3    O     O_R   0.714130 0.208570 0.829890 -0.524895
O4    O     O_R   0.285870 0.208570 0.170110 -0.523507
O5    O     O_R   0.446360 0.919990 0.675230 -0.510452
O6    O     O_R   0.553640 0.919990 0.324770 -0.510392
O7    O     O_R   0.946360 0.419990 0.675230 -0.510558
O8    O     O_R   0.053640 0.419990 0.324770 -0.510342
O9    O     O_R   0.457170 0.717300 0.668380 -0.535110
O10   O     O_R   0.542830 0.717300 0.331620 -0.535040
O11   O     O_R   0.957170 0.217300 0.668380 -0.535099
O12   O     O_R   0.042830 0.217300 0.331620 -0.535060
O13   O     O_R   0.320870 0.624890 0.673130 -0.503774
O14   O     O_R   0.679130 0.624890 0.326870 -0.503397
O15   O     O_R   0.820870 0.124890 0.673130 -0.504642
O16   O     O_R   0.179130 0.124890 0.326870 -0.503791
O17   O     O_3   0.334430 0.834430 0.749680 -0.296900
O18   O     O_3   0.665570 0.834430 0.250320 -0.297529
O19   O     O_3   0.834430 0.334430 0.749680 -0.294733
O20   O     O_3   0.165570 0.334430 0.250320 -0.297946
O21   O     O_R   0.236050 0.959150 0.825270 -0.513919
O22   O     O_R   0.763950 0.959150 0.174730 -0.515100
O23   O     O_R   0.736050 0.459150 0.825270 -0.513467
O24   O     O_R   0.263950 0.459150 0.174730 -0.514009
O25   O     O_R   0.332100 0.076650 0.832310 -0.531737
O26   O     O_R   0.667900 0.076650 0.167690 -0.530944
O27   O     O_R   0.832100 0.576650 0.832310 -0.531946
O28   O     O_R   0.167900 0.576650 0.167690 -0.531957
O29   O     O_R   0.446500 0.918620 0.826240 -0.503315
O30   O     O_R   0.553500 0.918620 0.173760 -0.503374
O31   O     O_R   0.946500 0.418620 0.826240 -0.503167
O32   O     O_R   0.053500 0.418620 0.173760 -0.503063
O33   O     O_R   0.457310 0.715830 0.831280 -0.525791
O34   O     O_R   0.542690 0.715830 0.168720 -0.525761
O35   O     O_R   0.957310 0.215830 0.831280 -0.525039
O36   O     O_R   0.042690 0.215830 0.168720 -0.525537
O37   O     O_R   0.321000 0.623520 0.824130 -0.514762
O38   O     O_R   0.679000 0.623520 0.175870 -0.514787
O39   O     O_R   0.821000 0.123520 0.824130 -0.515927
O40   O     O_R   0.179000 0.123520 0.175870 -0.515184
O41   O     O_R   0.213990 0.710040 0.667000 -0.526257
O42   O     O_R   0.786010 0.710040 0.333000 -0.525805
O43   O     O_R   0.713990 0.210040 0.667000 -0.526838
O44   O     O_R   0.286010 0.210040 0.333000 -0.526220
O45   O     O_R   0.235920 0.960520 0.674260 -0.527740
O46   O     O_R   0.764080 0.960520 0.325740 -0.527437
O47   O     O_R   0.735920 0.460520 0.674260 -0.528046
O48   O     O_R   0.264080 0.460520 0.325740 -0.527535
O49   O     O_R   0.331960 0.078120 0.669410 -0.534598
O50   O     O_R   0.668040 0.078120 0.330590 -0.534055
O51   O     O_R   0.831960 0.578120 0.669410 -0.534980
O52   O     O_R   0.168040 0.578120 0.330590 -0.534434
C121  C     C_3   0.328343 0.708729 0.364432 -0.413241
H129  H     H_    0.313424 0.668483 0.312946 0.165038
H130  H     H_    0.301162 0.793750 0.368318 0.120960
H131  H     H_    0.384237 0.721977 0.356652 0.127377
C122  C     C_3   0.671650 0.708709 0.635536 -0.413544
H132  H     H_    0.686588 0.668497 0.687045 0.164196
H133  H     H_    0.698827 0.793734 0.631598 0.120727
H134  H     H_    0.615756 0.721926 0.643327 0.127363
C123  C     C_3   0.828342 0.208746 0.364436 -0.413180
H135  H     H_    0.813433 0.168508 0.312946 0.165177
H136  H     H_    0.801154 0.293759 0.368322 0.121088
H137  H     H_    0.884234 0.222007 0.356663 0.127342
C124  C     C_3   0.171645 0.208697 0.635531 -0.413282
H138  H     H_    0.186578 0.168476 0.687041 0.164868
H139  H     H_    0.198821 0.293727 0.631597 0.120896
H140  H     H_    0.115750 0.221914 0.643318 0.127376

loop_
_geom_bond_atom_site_label_1
_geom_bond_atom_site_label_2
_ccdc_geom_bond_type
C82   C94   S    
C55   C59   S    
C35   H125  S    
C83   C87   S    
C73   C93   S    
C47   O31   A    
C42   C58   S    
C29   C89   S    
C16   H120  S    
C75   C95   S    
C48   C120  S    
C24   H8    S    
C57   C102  S    
Cr6   O18   S    
Cr7   O7    S    
C85   H101  S    
C59   C104  S    
Cr1   O17   S    
C5    C6    S    
Cr10  O10   S    
Cr3   O19   S    
Cr4   O4    S    
Cr12  O16   S    
C29   C33   S    
C87   H103  S    
C30   C38   S    
C77   C100  S    
C44   H36   S    
C9    C13   S    
C11   C15   S    
C5    H85   S    
C49   H54   S    
C12   C16   S    
C98   O50   A    
C99   O47   A    
C52   H55   S    
C103  O7    A    
C74   C122  S    
C107  O15   A    
C83   C107  S    
C113  H1    S    
C74   H82   S    
C111  H47   S    
C23   H11   S    
C64   H60   S    
C11   C27   S    
C16   H116  S    
Cr5   O25   S    
C50   C53   S    
C89   O37   A    
C7    C119  S    
Cr8   O28   S    
C62   H58   S    
C62   C66   S    
Cr2   O2    S    
C72   H74   S    
C20   C28   S    
C18   H124  S    
Cr12  O36   S    
C122  H134  S    
C43   C44   S    
C66   C82   S    
Cr9   O33   S    
C58   C101  S    
C105  O41   A    
C92   O4    A    
C107  O43   A    
C14   H118  S    
C108  O44   A    
C19   H21   S    
C89   O1    A    
C62   H62   S    
Cr5   O49   S    
C17   H23   S    
C91   O3    A    
Cr1   O45   S    
Cr5   O5    S    
Cr2   O42   S    
C3    C26   S    
C84   C88   S    
Cr12  O12   S    
C110  H46   S    
C85   H79   S    
C13   H117  S    
Cr10  O34   S    
C17   C25   S    
C19   C35   S    
C76   C96   S    
C1    O21   A    
C32   C92   S    
C75   H83   S    
C95   H95   S    
C67   H71   S    
C21   H9    S    
C61   C65   S    
C71   H73   S    
C123  H135  S    
C78   C99   S    
C45   O29   A    
C75   C79   S    
Cr5   O29   S    
C22   C38   S    
C67   C83   S    
C80   C97   S    
C68   H72   S    
C11   H111  S    
C69   C77   S    
C111  C112  S    
C9    H109  S    
C52   H40   S    
C71   C79   S    
C4    C25   S    
Cr4   O20   S    
C7    C8    S    
Cr10  O38   S    
C8    H88   S    
C96   H96   S    
C24   H12   S    
C100  O52   A    
C121  H130  S    
C39   H19   S    
C49   C57   S    
C40   H20   S    
Cr11  O11   S    
Cr9   O37   S    
C124  H139  S    
C38   H14   S    
C51   H56   S    
C52   C60   S    
C19   H121  S    
C61   C77   S    
C12   H112  S    
C93   H93   S    
C36   H126  S    
C47   O35   A    
C110  C114  S    
C48   O36   A    
C43   C59   S    
C112  H48   S    
C90   O38   A    
C6    H86   S    
C22   H10   S    
Cr1   O21   S    
Cr2   O18   S    
Cr4   O24   S    
Cr12  O20   S    
C81   C105  S    
C30   C34   S    
C10   C14   S    
C101  O9    A    
C95   H91   S    
C116  C120  S    
C103  O11   A    
C7    C116  S    
C69   H97   S    
C12   H108  S    
C73   C121  S    
C123  H137  S    
C33   H127  S    
C114  H2    S    
C34   H128  S    
C66   H66   S    
C113  C117  S    
C31   C91   S    
Cr6   O26   S    
C9    H105  S    
Cr4   O48   S    
C60   C103  S    
C61   H61   S    
C112  C116  S    
C69   C85   S    
C45   C117  S    
C21   C25   S    
C73   C77   S    
Cr12  O40   S    
C62   C78   S    
C76   C80   S    
C42   H30   S    
C15   C31   S    
C43   H35   S    
C16   C32   S    
C97   O45   A    
C105  O13   A    
C106  O42   A    
C72   C80   S    
C115  H3    S    
C75   C123  S    
C4    O24   A    
C82   C106  S    
C90   O2    A    
C55   H44   S    
Cr6   O50   S    
C66   H70   S    
Cr8   O32   S    
C94   H90   S    
Cr6   O6    S    
C88   H78   S    
C46   O34   A    
Cr7   O19   S    
Cr8   O20   S    
C81   C85   S    
C13   H113  S    
C41   H29   S    
C87   H77   S    
C41   C42   S    
C74   C94   S    
Cr9   O13   S    
C18   C26   S    
C30   C90   S    
Cr11  O39   S    
C1    O25   A    
C9    C25   S    
C2    O22   A    
C3    O27   A    
C86   H102  S    
C12   C28   S    
C13   C29   S    
C86   H80   S    
C67   H67   S    
C98   O46   A    
C46   C118  S    
C122  H133  S    
Cr6   O30   S    
C106  O14   A    
C109  C118  S    
C1    C28   S    
C2    C27   S    
Cr10  O14   S    
C72   H100  S    
Cr11  O19   S    
C61   H57   S    
C52   C55   S    
C32   C36   S    
C64   C80   S    
C73   H81   S    
C17   C33   S    
C110  C117  S    
C38   H18   S    
C33   H25   S    
C69   H75   S    
C40   H16   S    
C68   C84   S    
C24   C28   S    
C53   C57   S    
C82   C86   S    
C56   C60   S    
C115  C119  S    
C50   C58   S    
C104  O12   A    
C48   O32   A    
Cr7   O27   S    
C76   H84   S    
C65   C81   S    
C91   O39   A    
Cr8   O8    S    
C50   H38   S    
C20   H122  S    
Cr2   O22   S    
C71   C87   S    
C15   H115  S    
C31   C35   S    
C64   C68   S    
C101  O5    A    
C102  O10   A    
C37   H17   S    
C108  O16   A    
C112  C119  S    
C116  H4    S    
C56   H52   S    
C22   H6    S    
C41   C57   S    
C109  C110  S    
C49   H37   S    
C121  H129  S    
Cr5   O17   S    
C44   C60   S    
C63   H59   S    
C84   C108  S    
C124  H138  S    
C94   H94   S    
C20   C36   S    
C109  H45   S    
C21   C37   S    
C22   C26   S    
C29   C37   S    
C55   H51   S    
C44   H32   S    
C70   H76   S    
C42   H34   S    
C43   H31   S    
C97   O49   A    
C5    C114  S    
C70   C78   S    
C79   C98   S    
C99   O51   A    
C10   H110  S    
C63   C79   S    
C4    O28   A    
C20   H22   S    
C92   O40   A    
C54   H41   S    
C23   H7    S    
C46   O30   A    
C11   H107  S    
C49   C54   S    
C64   H64   S    
Cr3   O47   S    
C51   C56   S    
C84   C96   S    
C8    C115  S    
Cr1   O1    S    
Cr3   O3    S    
C123  H136  S    
C41   H33   S    
C54   H50   S    
Cr9   O17   S    
C23   C27   S    
C19   C27   S    
C74   C78   S    
C109  C113  S    
C2    O26   A    
C7    H87   S    
C10   C26   S    
C47   C119  S    
C14   C30   S    
C72   C88   S    
C53   H42   S    
C76   C124  S    
C88   H104  S    
C63   C67   S    
C56   H43   S    
C121  H131  S    
Cr7   O31   S    
C96   H92   S    
Cr1   O41   S    
C21   H5    S    
C5    C117  S    
C111  C120  S    
Cr10  O18   S    
C124  H140  S    
Cr3   O43   S    
C70   H98   S    
C6    C113  S    
Cr11  O15   S    
Cr4   O44   S    
C53   H49   S    
C81   C93   S    
C83   C95   S    
Cr11  O35   S    
C18   C34   S    
C114  C118  S    
C65   H65   S    
C34   H26   S    
C10   H106  S    
C51   C59   S    
C70   C86   S    
C8    C120  S    
Cr2   O46   S    
C54   C58   S    
C17   H123  S    
C45   O33   A    
C104  O8    A    
C18   H24   S    
C111  C115  S    
Cr7   O51   S    
Cr8   O52   S    
C68   H68   S    
C51   H39   S    
C71   H99   S    
Cr3   O23   S    
C15   H119  S    
C23   C39   S    
C3    O23   A    
C24   C40   S    
C31   C39   S    
C63   H63   S    
C32   C40   S    
C122  H132  S    
C35   H27   S    
Cr9   O9    S    
C36   H28   S    
C100  O48   A    
C65   H69   S    
C102  O6    A    
C39   H15   S    
C93   H89   S    
C37   H13   S    
C50   H53   S    
C6    C118  S    
C14   H114  S    
