data_mof_unit_51294.cif
_audit_creation_date              2012-12-11T14:36:02-0500
_audit_creation_method            fapswitch 2.2
_symmetry_space_group_name_H-M    P1
_symmetry_Int_Tables_number       1
_space_group_crystal_system       triclinic
_cell_length_a                    13.481669
_cell_length_b                    13.493201
_cell_length_c                    27.50325
_cell_angle_alpha                 90.853124
_cell_angle_beta                  90.11897
_cell_angle_gamma                 60.055911
_cell_volume                      4334.7221057

loop_
_atom_site_label
_atom_site_type_symbol
_atom_type_description
_atom_site_fract_x
_atom_site_fract_y
_atom_site_fract_z
_atom_type_partial_charge
C1    C     C_R   0.620564 0.101866 0.569963 0.550339
C2    C     C_1   0.631456 0.731983 0.616332 0.003756
C3    C     C_3   0.641743 0.590264 0.769458 -0.144909
C4    C     C_3   0.680736 0.652611 0.805372 0.045480
C5    C     C_3   0.564206 0.705620 0.744253 -0.113258
C6    C     C_3   0.664881 0.681949 0.710513 0.021388
C7    C     C_3   0.603516 0.767500 0.780788 -0.111696
C8    C     C_3   0.704016 0.744421 0.746263 -0.041271
C9    C     C_1   0.689141 0.632192 0.857780 -0.003827
C10   C     C_1   0.650324 0.704194 0.658266 -0.028680
C11   C     C_3   0.071133 0.157515 0.736467 -0.126375
C12   C     C_R   0.599629 0.779667 0.568787 0.549704
C13   C     C_3   0.153908 0.070426 0.773903 -0.123068
C14   C     C_1   0.093979 0.202276 0.901290 0.009656
C15   C     C_1   0.227877 0.138948 0.617309 0.005604
C16   C     C_3   0.057310 0.257419 0.769729 -0.092443
C17   C     C_3   0.140670 0.170173 0.806256 0.030007
C18   C     C_3   0.160036 0.256000 0.744014 -0.046679
C19   C     C_3   0.173561 0.156309 0.711527 0.041289
C20   C     C_3   0.242847 0.168957 0.781226 -0.044596
C21   C     C_3   0.256734 0.068948 0.748076 -0.079822
C22   C     C_1   0.119547 0.183413 0.858835 -0.028825
C23   C     C_R   0.277620 0.121976 0.569682 0.551002
C24   C     C_1   0.198157 0.148303 0.659246 -0.028382
C25   C     C_3   0.606233 0.285844 0.740418 -0.114106
C26   C     C_3   0.556348 0.238547 0.778136 0.446437
C27   C     C_1   0.692902 0.208574 0.902495 0.010109
C28   C     C_1   0.637320 0.135917 0.617467 0.016062
C29   C     C_3   0.719004 0.234816 0.770151 -0.180044
C30   C     C_3   0.667267 0.188262 0.807324 0.020872
C31   C     C_3   0.767814 0.120633 0.740752 -0.157572
C32   C     C_3   0.655418 0.171719 0.711831 0.010408
C33   C     C_3   0.716338 0.074305 0.778636 -0.126733
C34   C     C_R   0.622040 0.098828 0.430961 0.544134
C35   C     C_3   0.604402 0.125810 0.749147 0.280205
C36   C     C_1   0.677364 0.198251 0.860004 -0.001497
C37   C     C_1   0.647273 0.156209 0.659421 -0.001572
C38   C     C_R   0.736234 0.702183 0.359818 -0.134197
C39   C     C_R   0.748420 0.683808 0.309509 0.028828
C40   C     C_R   0.763205 0.662089 0.207751 0.020292
C41   C     C_R   0.853279 0.659147 0.234517 -0.127609
C42   C     C_R   0.845572 0.670780 0.285136 -0.132826
C43   C     C_R   0.773219 0.641799 0.157589 -0.134811
C44   C     C_R   0.684290 0.639038 0.132110 -0.024647
C45   C     C_R   0.602155 0.775308 0.430487 0.543919
C46   C     C_R   0.555029 0.703894 0.356855 -0.127321
C47   C     C_R   0.562295 0.693209 0.306760 -0.045946
C48   C     C_R   0.658501 0.684647 0.282764 0.048243
C49   C     C_R   0.471353 0.697889 0.280307 -0.102590
C50   C     C_R   0.474519 0.695833 0.229858 0.351803
C51   C     C_R   0.571140 0.684502 0.205548 0.021417
C52   C     C_R   0.664031 0.677890 0.231996 0.012549
C53   C     C_R   0.579950 0.671348 0.155443 -0.104422
C54   C     C_R   0.636571 0.718127 0.383050 0.002776
C55   C     C_R   0.216308 0.054950 0.357874 -0.134605
C56   C     C_R   0.277490 0.120697 0.431197 0.546019
C57   C     C_R   0.188721 0.069437 0.308474 0.007460
C58   C     C_R   0.148244 0.095790 0.207903 0.007355
C59   C     C_R   0.171344 0.993682 0.230244 -0.106242
C60   C     C_R   0.192535 0.980188 0.280175 -0.119323
C61   C     C_R   0.124314 0.111713 0.158184 -0.128319
C62   C     C_R   0.099707 0.215359 0.136784 -0.002111
C63   C     C_R   0.179277 0.250624 0.363803 -0.127833
C64   C     C_R   0.156033 0.264875 0.314493 0.013844
C65   C     C_R   0.162527 0.173456 0.286435 0.062547
C66   C     C_R   0.133035 0.366947 0.292404 -0.124798
C67   C     C_3   0.742314 0.566741 0.734897 -0.099996
C68   C     C_R   0.118802 0.377758 0.242364 -0.122439
C69   C     C_R   0.124458 0.287775 0.214192 0.012627
C70   C     C_R   0.145180 0.185524 0.236149 0.061345
C71   C     C_R   0.105344 0.300471 0.164590 -0.125092
C72   C     C_R   0.216834 0.143839 0.384950 -0.003660
C73   C     C_R   0.570029 0.237481 0.363260 -0.133317
C74   C     C_R   0.575252 0.256066 0.313588 0.015460
C75   C     C_R   0.585278 0.289186 0.213357 0.008661
C76   C     C_R   0.511162 0.380944 0.243818 -0.129500
C77   C     C_R   0.505287 0.364205 0.293564 -0.130447
C78   C     C_3   0.780154 0.629313 0.771412 0.257306
C79   C     C_R   0.597841 0.305960 0.164182 -0.131230
C80   C     C_R   0.677295 0.213895 0.135106 -0.005486
C81   C     C_R   0.720670 0.039410 0.352170 -0.126365
C82   C     C_R   0.723430 0.055180 0.302681 0.009598
C83   C     C_R   0.650394 0.163653 0.283108 0.063194
C84   C     C_R   0.796086 0.962903 0.272375 -0.124817
C85   C     C_R   0.796771 0.977767 0.222553 -0.124372
C86   C     C_R   0.727001 0.085883 0.202823 0.012983
C87   C     C_R   0.653297 0.179465 0.233018 0.063326
C88   C     C_R   0.735455 0.103223 0.153825 -0.126271
C89   C     C_1   0.697621 0.606939 0.900019 0.013481
C90   C     C_R   0.641499 0.128579 0.382406 -0.000855
C91   C     C_R   0.048776 0.236349 0.949620 0.548384
C92   C     C_R   0.711676 0.562711 0.948142 0.543905
C93   C     C_R   0.722387 0.225509 0.950807 0.544166
C94   C     C_R   0.047099 0.246055 0.088775 0.547232
C95   C     C_R   0.707407 0.576007 0.086097 0.543269
C96   C     C_R   0.718183 0.234353 0.089297 0.547582
Cr1   Cr    Cr6+3 0.417550 0.169090 0.500530 1.032946
Cr2   Cr    Cr6+3 0.669180 0.913420 0.499920 1.029387
Cr3   Cr    Cr6+3 0.413260 0.917540 0.499520 1.025486
Cr4   Cr    Cr6+3 0.909170 0.177380 0.020380 1.033696
Cr5   Cr    Cr6+3 0.912710 0.429210 0.018220 1.046137
Cr6   Cr    Cr6+3 0.657170 0.432570 0.019030 1.045153
H1    H     H_    0.313125 0.173631 0.800253 0.203804
H2    H     H_    0.162192 0.332578 0.731254 0.173149
H3    H     H_    0.974625 0.334730 0.779276 0.157007
H4    H     H_    0.561025 0.372551 0.724578 0.124404
H5    H     H_    0.760450 0.987587 0.794500 0.145171
H6    H     H_    0.855229 0.072485 0.724827 0.128947
H7    H     H_    0.766957 0.279670 0.779351 0.120723
H8    H     H_    0.853255 0.618855 0.139353 0.124276
H9    H     H_    0.799744 0.484474 0.715843 0.115502
H10   H     H_    0.800114 0.711572 0.380164 0.114546
H11   H     H_    0.929520 0.647773 0.216310 0.097433
H12   H     H_    0.915425 0.669564 0.305190 0.093904
H13   H     H_    0.509965 0.672818 0.135350 0.195399
H14   H     H_    0.396876 0.705240 0.298683 0.114941
H15   H     H_    0.478880 0.713634 0.374668 0.128915
H16   H     H_    0.120071 0.045888 0.136722 0.130370
H17   H     H_    0.244614 0.972514 0.374230 0.123077
H18   H     H_    0.173648 0.924178 0.209084 0.162786
H19   H     H_    0.731140 0.806803 0.736260 0.169096
H20   H     H_    0.212162 0.900015 0.296625 0.115890
H21   H     H_    0.086172 0.380966 0.148479 0.133348
H22   H     H_    0.102773 0.456620 0.225719 0.105510
H23   H     H_    0.128672 0.437328 0.313659 0.103394
H24   H     H_    0.177646 0.320169 0.384764 0.129735
H25   H     H_    0.552416 0.391573 0.149643 0.145241
H26   H     H_    0.508541 0.306166 0.386593 0.117103
H27   H     H_    0.458498 0.465669 0.229247 0.163087
H28   H     H_    0.447154 0.435999 0.316430 0.109464
H29   H     H_    0.795311 0.031737 0.131163 0.131690
H30   H     H_    0.546459 0.849653 0.799991 0.153255
H31   H     H_    0.854113 0.905567 0.199661 0.111106
H32   H     H_    0.852403 0.879391 0.287247 0.108403
H33   H     H_    0.775241 0.954573 0.366426 0.131832
H34   H     H_    0.474704 0.737094 0.732447 0.125654
H35   H     H_    0.615722 0.527051 0.779508 0.124172
H36   H     H_    0.151643 0.994027 0.786817 0.123609
H37   H     H_    0.000449 0.153322 0.717577 0.108601
H38   H     H_    0.338756 0.990718 0.738592 0.156550
O1    O     O_R   0.301710 0.195650 0.554160 -0.500304
O2    O     O_R   0.658900 0.818120 0.449760 -0.504062
O3    O     O_R   0.503220 0.801620 0.445520 -0.524592
O4    O     O_R   0.319370 0.022040 0.450020 -0.503298
O5    O     O_3   0.499990 0.000010 0.499990 -0.245054
O6    O     O_R   0.818720 0.150820 0.967160 -0.506728
O7    O     O_R   0.006410 0.181720 0.970200 -0.498712
O8    O     O_R   0.027890 0.334070 0.964920 -0.488636
O9    O     O_R   0.809600 0.521790 0.967960 -0.485206
O10   O     O_R   0.635520 0.542770 0.964420 -0.505639
O11   O     O_R   0.665950 0.325030 0.970100 -0.488406
O12   O     O_R   0.522390 0.158990 0.550460 -0.490374
O13   O     O_R   0.816620 0.158530 0.074540 -0.517604
O14   O     O_R   0.004460 0.188870 0.069750 -0.499026
O15   O     O_R   0.025800 0.341780 0.072300 -0.520819
O16   O     O_R   0.807650 0.528950 0.067500 -0.501802
O17   O     O_R   0.633420 0.550490 0.071810 -0.519213
O18   O     O_R   0.664000 0.332180 0.069640 -0.498449
O19   O     O_3   0.826350 0.346390 0.019210 -0.254006
O20   O     O_R   0.694390 0.003530 0.554040 -0.503882
O21   O     O_R   0.657700 0.819660 0.549320 -0.490077
O22   O     O_R   0.501930 0.803280 0.552920 -0.507088
O23   O     O_R   0.318170 0.023580 0.549580 -0.495033
O24   O     O_R   0.303010 0.193990 0.446760 -0.520987
O25   O     O_R   0.523600 0.157450 0.450900 -0.500466
O26   O     O_R   0.695690 0.001860 0.446640 -0.524090
Cl1   Cl    Cl    0.923806 0.579692 0.789926 -0.618094
F1    F     F_    0.447306 0.298024 0.797841 -0.607482
Cl2   Cl    Cl    0.527329 0.054143 0.734499 -0.673563
F2    F     F_    0.384877 0.701246 0.204949 -0.680426

loop_
_geom_bond_atom_site_label_1
_geom_bond_atom_site_label_2
_ccdc_geom_bond_type
Cr4   O13   S    
C5    H34   S    
C66   C68   A    
Cr5   O8    S    
C59   H18   S    
C41   C42   A    
C96   O18   A    
C33   H5    S    
C74   C83   A    
C43   C44   A    
C2    C12   S    
C68   H22   S    
C91   O7    A    
C81   C82   A    
C7    C8    S    
C47   C49   A    
C20   H1    S    
C55   H17   S    
C85   C86   A    
C84   H32   S    
C78   Cl1   S    
C20   C21   S    
C71   H21   S    
C29   H7    S    
C19   C21   S    
C73   C90   A    
C18   C19   S    
C5    C6    S    
C86   C88   A    
C8    H19   S    
Cr5   O15   S    
Cr4   O7    S    
C65   C70   A    
C17   C20   S    
C1    O12   A    
C95   O16   A    
C73   C74   A    
C69   C71   A    
C11   H37   S    
C11   C19   S    
C12   O21   A    
Cr3   O3    S    
C44   C53   A    
C42   H12   S    
C40   C43   A    
C96   O13   A    
Cr4   O6    S    
C94   O15   A    
C56   C72   S    
C74   C77   A    
C1    C28   S    
C31   C33   S    
C3    H35   S    
C43   H8    S    
C80   C96   S    
C34   O25   A    
C55   C72   A    
Cr6   O11   S    
C67   H9    S    
C25   C32   S    
C15   C23   S    
Cr3   O5    S    
C59   C60   A    
Cr2   O2    S    
C8    C78   S    
Cr6   O18   S    
C61   C62   A    
C67   C78   S    
C4    C7    S    
Cr6   O17   S    
C91   O8    A    
C25   H4    S    
C81   H33   S    
C39   C42   A    
C23   O23   A    
C1    O20   A    
C25   C29   S    
C38   C39   A    
C51   C52   A    
C32   C35   S    
Cr3   O4    S    
C76   C77   A    
C9    C89   T    
C5    C7    S    
C86   C87   A    
C58   C70   A    
C57   C60   A    
C6    C8    S    
Cr5   O16   S    
C58   C59   A    
C40   C52   A    
C63   C64   A    
C46   H15   S    
C51   C53   A    
C64   C66   A    
Cr6   O19   S    
C75   C76   A    
C34   C90   S    
C4    C78   S    
C29   C30   S    
Cr3   O22   S    
C11   C16   S    
C47   C48   A    
C38   C54   A    
C94   O14   A    
Cr1   O24   S    
C26   F1    S    
C46   C54   A    
C76   H27   S    
C50   C51   A    
C13   C21   S    
C93   O6    A    
C50   F2    S    
C16   C18   S    
C18   H2    S    
C32   C37   S    
C84   C85   A    
C89   C92   S    
C60   H20   S    
Cr1   O1    S    
C7    H30   S    
Cr2   O26   S    
C16   H3    S    
Cr6   O10   S    
Cr3   O23   S    
C81   C90   A    
C75   C87   A    
C15   C24   T    
Cr2   O20   S    
C45   C54   S    
C26   C30   S    
C82   C84   A    
C62   C94   S    
C92   O10   A    
C45   O2    A    
C35   Cl2   S    
C49   C50   A    
C27   C93   S    
C38   H10   S    
C3    C4    S    
C2    C10   T    
C31   H6    S    
Cr2   O21   S    
Cr4   O14   S    
C79   H25   S    
C46   C47   A    
C40   C41   A    
C30   C33   S    
C61   H16   S    
C95   O17   A    
Cr1   O5    S    
C68   C69   A    
C31   C32   S    
C3    C67   S    
C41   H11   S    
C3    C5    S    
C83   C87   A    
C6    C10   S    
Cr2   O5    S    
C30   C36   S    
C27   C36   T    
C73   H26   S    
C56   O24   A    
C17   C22   S    
C21   H38   S    
C66   H23   S    
C13   C17   S    
C64   C65   A    
C14   C22   T    
C55   C57   A    
C19   C24   S    
C25   C26   S    
C80   C88   A    
C44   C95   S    
C6    C67   S    
C13   H36   S    
C11   C13   S    
Cr4   O19   S    
C16   C17   S    
C28   C37   T    
C58   C61   A    
Cr1   O25   S    
Cr5   O9    S    
C33   C35   S    
Cr1   O12   S    
C62   C71   A    
C18   C20   S    
C77   H28   S    
C69   C70   A    
C14   C91   S    
C63   H24   S    
C93   O11   A    
C12   O22   A    
C79   C80   A    
C56   O4    A    
C26   C35   S    
C48   C52   A    
C49   H14   S    
C63   C72   A    
Cr5   O19   S    
C29   C31   S    
C82   C83   A    
C92   O9    A    
C45   O3    A    
C23   O1    A    
C88   H29   S    
C4    C9    S    
C34   O26   A    
C75   C79   A    
C53   H13   S    
C85   H31   S    
C39   C48   A    
C57   C65   A    
