data_mof_unit_60676.cif
_audit_creation_date              2012-12-10T19:31:54-0500
_audit_creation_method            fapswitch 2.2
_symmetry_space_group_name_H-M    P1
_symmetry_Int_Tables_number       1
_space_group_crystal_system       orthorhombic
_cell_length_a                    26.14095
_cell_length_b                    24.010351
_cell_length_c                    16.685556
_cell_angle_alpha                 90.0
_cell_angle_beta                  90.0
_cell_angle_gamma                 90.0
_cell_volume                      10472.7457036

loop_
_atom_site_label
_atom_site_type_symbol
_atom_type_description
_atom_site_fract_x
_atom_site_fract_y
_atom_site_fract_z
_atom_type_partial_charge
C1    C     C_R   0.071706 0.427315 0.500269 0.966942
C2    C     C_R   0.928294 0.572685 0.500269 0.966942
C3    C     C_R   0.928294 0.427315 0.499731 0.966943
C4    C     C_R   0.071706 0.572685 0.499731 0.966943
C5    C     C_R   0.571706 0.927315 0.500269 0.966942
C6    C     C_R   0.428294 0.072685 0.500269 0.966942
C7    C     C_R   0.428294 0.927315 0.499731 0.966943
C8    C     C_R   0.571706 0.072685 0.499731 0.966943
C9    C     C_R   0.988164 0.547789 0.744931 0.286273
C10   C     C_R   0.988164 0.452211 0.255069 0.286272
C11   C     C_R   0.011836 0.452211 0.744931 0.286273
C12   C     C_R   0.011836 0.547789 0.255069 0.286273
C13   C     C_R   0.488164 0.047788 0.744931 0.286273
C14   C     C_R   0.488164 0.952211 0.255069 0.286273
C15   C     C_R   0.511836 0.952211 0.744931 0.286273
C16   C     C_R   0.511836 0.047788 0.255069 0.286273
C17   C     C_R   1.000000 0.500000 0.874052 0.061577
C18   C     C_R   1.000000 0.500000 0.125948 0.061577
C19   C     C_R   0.500000 0.000000 0.874052 0.061577
C20   C     C_R   0.500000 0.000000 0.125948 0.061577
C21   C     C_1   1.000000 0.500000 0.963214 0.013220
C22   C     C_1   1.000000 0.500000 0.036786 0.013220
C23   C     C_1   0.500000 0.000000 0.963214 0.013220
C24   C     C_1   0.500000 0.000000 0.036786 0.013220
C25   C     C_R   0.146475 0.706223 0.529080 0.356372
C26   C     C_R   0.800804 0.359652 0.454842 0.343692
C27   C     C_R   0.853525 0.293777 0.529079 0.356373
C28   C     C_R   0.199196 0.640348 0.454841 0.343691
C29   C     C_R   0.853525 0.706223 0.470920 0.356373
C30   C     C_R   0.199196 0.359652 0.545159 0.343692
C31   C     C_R   0.146475 0.293777 0.470920 0.356372
C32   C     C_R   0.800804 0.640348 0.545159 0.343692
C33   C     C_R   0.646475 0.206223 0.529080 0.356372
C34   C     C_R   0.300804 0.859652 0.454841 0.343692
C35   C     C_R   0.353525 0.793777 0.529079 0.356372
C36   C     C_R   0.699196 0.140348 0.454842 0.343692
C37   C     C_R   0.353525 0.206223 0.470920 0.356372
C38   C     C_R   0.699196 0.859652 0.545159 0.343692
C39   C     C_R   0.646475 0.793777 0.470920 0.356372
C40   C     C_R   0.300804 0.140348 0.545159 0.343691
C41   C     C_R   0.106741 0.667086 0.532019 0.284525
C42   C     C_R   0.840510 0.398975 0.457635 0.307326
C43   C     C_R   0.893259 0.332914 0.532018 0.284524
C44   C     C_R   0.159490 0.601025 0.457635 0.307326
C45   C     C_R   0.893259 0.667086 0.467981 0.284525
C46   C     C_R   0.159490 0.398975 0.542365 0.307326
C47   C     C_R   0.106741 0.332914 0.467981 0.284525
C48   C     C_R   0.840510 0.601025 0.542365 0.307326
C49   C     C_R   0.606741 0.167086 0.532018 0.284525
C50   C     C_R   0.340510 0.898975 0.457635 0.307326
C51   C     C_R   0.393259 0.832914 0.532018 0.284525
C52   C     C_R   0.659490 0.101025 0.457635 0.307325
C53   C     C_R   0.393259 0.167086 0.467981 0.284525
C54   C     C_R   0.659490 0.898975 0.542365 0.307326
C55   C     C_R   0.606741 0.832914 0.467981 0.284526
C56   C     C_R   0.340510 0.101025 0.542365 0.307326
C57   C     C_R   0.113442 0.613822 0.497880 -0.321282
C58   C     C_R   0.886558 0.386178 0.497880 -0.321282
C59   C     C_R   0.886558 0.613822 0.502120 -0.321282
C60   C     C_R   0.113442 0.386178 0.502120 -0.321281
C61   C     C_R   0.613442 0.113822 0.497880 -0.321281
C62   C     C_R   0.386558 0.886178 0.497880 -0.321282
C63   C     C_R   0.386558 0.113822 0.502120 -0.321282
C64   C     C_R   0.613442 0.886178 0.502120 -0.321281
C65   C     C_R   0.192615 0.692703 0.490882 -0.230648
C66   C     C_R   0.807385 0.307297 0.490882 -0.230648
C67   C     C_R   0.807385 0.692703 0.509118 -0.230648
C68   C     C_R   0.192615 0.307297 0.509118 -0.230648
C69   C     C_R   0.692615 0.192703 0.490882 -0.230648
C70   C     C_R   0.307385 0.807297 0.490882 -0.230648
C71   C     C_R   0.307385 0.192703 0.509118 -0.230648
C72   C     C_R   0.692615 0.807297 0.509118 -0.230648
C73   C     C_1   0.233168 0.733002 0.488848 0.233429
C74   C     C_1   0.766832 0.266998 0.488848 0.233429
C75   C     C_1   0.766832 0.733002 0.511152 0.233429
C76   C     C_1   0.233168 0.266998 0.511152 0.233430
C77   C     C_1   0.733168 0.233002 0.488848 0.233429
C78   C     C_1   0.266832 0.766998 0.488848 0.233430
C79   C     C_1   0.266832 0.233002 0.511152 0.233430
C80   C     C_1   0.733168 0.766998 0.511152 0.233430
C81   C     C_R   0.983526 0.546828 0.830678 0.059648
C82   C     C_R   0.983526 0.453172 0.169322 0.059649
C83   C     C_R   0.016474 0.453172 0.830678 0.059648
C84   C     C_R   0.016474 0.546828 0.169322 0.059648
C85   C     C_R   0.483526 0.046828 0.830678 0.059648
C86   C     C_R   0.483526 0.953172 0.169322 0.059648
C87   C     C_R   0.516474 0.953172 0.830678 0.059648
C88   C     C_R   0.516474 0.046828 0.169322 0.059648
Cu1   Cu    Cu3+1 1.000000 0.500000 0.580420 1.022728
Cu2   Cu    Cu3+1 0.000000 0.500000 0.419580 1.022728
Cu3   Cu    Cu3+1 0.500000 0.000000 0.580420 1.022728
Cu4   Cu    Cu3+1 0.500000 0.000000 0.419580 1.022728
N1    N     N_R   0.000000 0.500000 0.701220 -0.197454
N2    N     N_R   0.000000 0.500000 0.298780 -0.197454
N3    N     N_R   0.500000 0.000000 0.701220 -0.197454
N4    N     N_R   0.500000 0.000000 0.298780 -0.197454
O1    O     O_R   0.054370 0.445630 0.567930 -0.580605
O2    O     O_R   0.945630 0.554370 0.432070 -0.564172
O3    O     O_R   0.945630 0.554370 0.567930 -0.580605
O4    O     O_R   0.054370 0.445630 0.432070 -0.564172
O5    O     O_R   0.945630 0.445630 0.432070 -0.580605
O6    O     O_R   0.054370 0.554370 0.567930 -0.564172
O7    O     O_R   0.054370 0.554370 0.432070 -0.580605
O8    O     O_R   0.945630 0.445630 0.567930 -0.564172
O9    O     O_R   0.554370 0.945630 0.567930 -0.580604
O10   O     O_R   0.445630 0.054370 0.432070 -0.564172
O11   O     O_R   0.445630 0.054370 0.567930 -0.580604
O12   O     O_R   0.554370 0.945630 0.432070 -0.564172
O13   O     O_R   0.445630 0.945630 0.432070 -0.580605
O14   O     O_R   0.554370 0.054370 0.567930 -0.564172
O15   O     O_R   0.554370 0.054370 0.432070 -0.580605
O16   O     O_R   0.445630 0.945630 0.567930 -0.564172
Cl1   Cl    Cl    0.138118 0.772891 0.572518 -0.372472
Cl2   Cl    Cl    0.742681 0.376006 0.405958 -0.378236
Cl3   Cl    Cl    0.861883 0.227109 0.572517 -0.372473
Cl4   Cl    Cl    0.257319 0.623993 0.405957 -0.378236
Cl5   Cl    Cl    0.861882 0.772891 0.427482 -0.372473
Cl6   Cl    Cl    0.257319 0.376006 0.594043 -0.378237
Cl7   Cl    Cl    0.138118 0.227109 0.427482 -0.372473
Cl8   Cl    Cl    0.742681 0.623994 0.594043 -0.378236
Cl9   Cl    Cl    0.638118 0.272891 0.572518 -0.372473
Cl10  Cl    Cl    0.242681 0.876006 0.405957 -0.378236
Cl11  Cl    Cl    0.361882 0.727109 0.572518 -0.372473
Cl12  Cl    Cl    0.757319 0.123993 0.405958 -0.378236
Cl13  Cl    Cl    0.361882 0.272891 0.427482 -0.372473
Cl14  Cl    Cl    0.757319 0.876006 0.594044 -0.378237
Cl15  Cl    Cl    0.638118 0.727109 0.427482 -0.372473
Cl16  Cl    Cl    0.242681 0.123994 0.594043 -0.378236
Cl17  Cl    Cl    0.047464 0.687423 0.572787 -0.480911
Cl18  Cl    Cl    0.832151 0.464224 0.410109 -0.433290
Cl19  Cl    Cl    0.952536 0.312577 0.572786 -0.480911
Cl20  Cl    Cl    0.167849 0.535775 0.410109 -0.433291
Cl21  Cl    Cl    0.952536 0.687423 0.427213 -0.480912
Cl22  Cl    Cl    0.167849 0.464224 0.589892 -0.433291
Cl23  Cl    Cl    0.047464 0.312578 0.427213 -0.480911
Cl24  Cl    Cl    0.832151 0.535776 0.589892 -0.433290
Cl25  Cl    Cl    0.547464 0.187422 0.572787 -0.480912
Cl26  Cl    Cl    0.332151 0.964224 0.410109 -0.433291
Cl27  Cl    Cl    0.452536 0.812577 0.572786 -0.480912
Cl28  Cl    Cl    0.667849 0.035775 0.410109 -0.433291
Cl29  Cl    Cl    0.452536 0.187422 0.427213 -0.480911
Cl30  Cl    Cl    0.667849 0.964224 0.589892 -0.433291
Cl31  Cl    Cl    0.547464 0.812577 0.427212 -0.480912
Cl32  Cl    Cl    0.332151 0.035775 0.589892 -0.433291
C89   C     C_3   0.962555 0.596046 0.877657 -0.773032
H1    H     H_    0.943277 0.627731 0.840125 0.249269
H2    H     H_    0.933103 0.581397 0.920761 0.247442
H3    H     H_    0.994030 0.616358 0.911472 0.242234
C90   C     C_3   0.962555 0.403954 0.122343 -0.773032
H4    H     H_    0.943277 0.372269 0.159875 0.249270
H5    H     H_    0.933103 0.418603 0.079239 0.247442
H6    H     H_    0.994030 0.383642 0.088528 0.242234
C91   C     C_3   0.037444 0.403954 0.877657 -0.773033
H7    H     H_    0.056723 0.372269 0.840125 0.249270
H8    H     H_    0.066896 0.418603 0.920761 0.247442
H9    H     H_    0.005970 0.383642 0.911472 0.242234
C92   C     C_3   0.037444 0.596046 0.122343 -0.773032
H10   H     H_    0.056723 0.627731 0.159875 0.249269
H11   H     H_    0.066896 0.581397 0.079239 0.247442
H12   H     H_    0.005970 0.616358 0.088528 0.242234
C93   C     C_3   0.462555 0.096046 0.877657 -0.773032
H13   H     H_    0.443277 0.127731 0.840125 0.249270
H14   H     H_    0.433103 0.081397 0.920761 0.247442
H15   H     H_    0.494030 0.116358 0.911472 0.242234
C94   C     C_3   0.462555 0.903954 0.122343 -0.773033
H16   H     H_    0.443277 0.872269 0.159875 0.249270
H17   H     H_    0.433103 0.918603 0.079239 0.247442
H18   H     H_    0.494030 0.883642 0.088528 0.242234
C95   C     C_3   0.537445 0.903954 0.877657 -0.773032
H19   H     H_    0.556723 0.872269 0.840125 0.249270
H20   H     H_    0.566897 0.918603 0.920761 0.247442
H21   H     H_    0.505970 0.883642 0.911472 0.242234
C96   C     C_3   0.537444 0.096046 0.122343 -0.773032
H22   H     H_    0.556723 0.127731 0.159875 0.249269
H23   H     H_    0.566897 0.081397 0.079239 0.247442
H24   H     H_    0.505970 0.116358 0.088528 0.242234
C97   C     C_3   0.982137 0.603477 0.704849 -0.632367
H25   H     H_    0.002430 0.636282 0.739380 0.230215
H26   H     H_    0.000190 0.604766 0.646367 0.282822
H27   H     H_    0.941007 0.614407 0.699322 0.226790
C98   C     C_3   0.982137 0.396523 0.295151 -0.632366
H28   H     H_    0.002430 0.363718 0.260620 0.230215
H29   H     H_    0.000190 0.395233 0.353633 0.282823
H30   H     H_    0.941007 0.385593 0.300678 0.226790
C99   C     C_3   0.017863 0.396523 0.704849 -0.632367
H31   H     H_    0.997570 0.363718 0.739380 0.230214
H32   H     H_    0.999810 0.395233 0.646367 0.282822
H33   H     H_    0.058992 0.385593 0.699321 0.226791
C100  C     C_3   0.017863 0.603477 0.295151 -0.632367
H34   H     H_    0.997570 0.636282 0.260620 0.230215
H35   H     H_    0.999810 0.604766 0.353633 0.282822
H36   H     H_    0.058993 0.614407 0.300679 0.226790
C101  C     C_3   0.482137 0.103477 0.704849 -0.632366
H37   H     H_    0.502430 0.136282 0.739380 0.230214
H38   H     H_    0.500190 0.104767 0.646367 0.282822
H39   H     H_    0.441007 0.114407 0.699322 0.226791
C102  C     C_3   0.482137 0.896523 0.295151 -0.632367
H40   H     H_    0.502430 0.863718 0.260620 0.230215
H41   H     H_    0.500190 0.895233 0.353633 0.282822
H42   H     H_    0.441007 0.885593 0.300678 0.226790
C103  C     C_3   0.517863 0.896523 0.704849 -0.632366
H43   H     H_    0.497570 0.863718 0.739380 0.230214
H44   H     H_    0.499810 0.895233 0.646367 0.282822
H45   H     H_    0.558993 0.885593 0.699322 0.226791
C104  C     C_3   0.517863 0.103477 0.295151 -0.632367
H46   H     H_    0.497570 0.136282 0.260620 0.230215
H47   H     H_    0.499810 0.104767 0.353633 0.282822
H48   H     H_    0.558993 0.114407 0.300679 0.226790

loop_
_geom_bond_atom_site_label_1
_geom_bond_atom_site_label_2
_ccdc_geom_bond_type
C3    O8    A    
Cu3   O16   S    
C94   H16   S    
C40   C71   A    
C49   Cl25  S    
Cu1   O6    S    
C70   C78   S    
C85   C93   S    
C95   H19   S    
Cu3   O9    S    
C69   C77   S    
C76   C79   T    
C42   C58   A    
C71   C79   S    
C89   H1    S    
C7    C62   S    
C10   C82   A    
C5    O9    A    
C98   H28   S    
C12   C100  S    
C51   C62   A    
C92   H10   S    
Cu1   O3    S    
Cu3   O14   S    
C36   Cl12  S    
C19   C87   A    
C52   C61   A    
C90   H5    S    
C15   N3    A    
Cu4   O13   S    
C98   H30   S    
C10   N2    A    
C33   C49   A    
C40   Cl16  S    
C4    O7    A    
Cu4   N4    S    
C65   C73   S    
C7    O16   A    
C12   C84   A    
C102  H41   S    
C103  H43   S    
Cu2   O4    S    
C100  H35   S    
Cu1   O1    S    
C28   Cl4   S    
C43   C58   A    
C38   Cl14  S    
C47   C60   A    
C29   C67   A    
Cu4   O12   S    
C39   C55   A    
C20   C24   S    
C35   C70   A    
C97   H26   S    
C74   C77   T    
C4    O6    A    
C4    C57   S    
C18   C84   A    
C73   C78   T    
C91   H8    S    
C75   C80   T    
C34   C70   A    
C17   C81   A    
C36   C52   A    
C33   C69   A    
C8    C61   S    
C37   C53   A    
C11   N1    A    
C96   H23   S    
C34   Cl10  S    
C13   C101  S    
C21   C22   T    
C33   Cl9   S    
C103  H44   S    
C12   N2    A    
C94   H17   S    
C102  H40   S    
C86   C94   S    
C32   Cl8   S    
C1    O4    A    
C14   N4    A    
C93   H15   S    
C93   H14   S    
C48   Cl24  S    
Cu2   N2    S    
C37   Cl13  S    
C98   H29   S    
C31   C68   A    
C14   C102  S    
C38   C72   A    
C16   N4    A    
C55   Cl31  S    
C89   H2    S    
C100  H36   S    
C26   C66   A    
Cu3   O11   S    
C49   C61   A    
C14   C86   A    
C16   C104  S    
C8    O15   A    
C1    O1    A    
Cu3   Cu4   S    
C2    C59   S    
C99   H33   S    
C30   Cl6   S    
C40   C56   A    
C96   H22   S    
C29   Cl5   S    
C28   C44   A    
C17   C21   S    
C88   C96   S    
C7    O13   A    
C5    C64   S    
C20   C86   A    
C17   C83   A    
C39   Cl15  S    
C56   Cl32  S    
C6    C63   S    
C15   C103  S    
C102  H42   S    
C19   C23   S    
C26   Cl2   S    
Cu2   O5    S    
C8    O14   A    
C46   Cl22  S    
C38   C54   A    
C44   C57   A    
C6    O11   A    
C97   H27   S    
C55   C64   A    
C101  H38   S    
C6    O10   A    
C56   C63   A    
C25   C65   A    
C42   Cl18  S    
C91   H9    S    
C31   Cl7   S    
C39   C72   A    
C32   C67   A    
C25   Cl1   S    
C90   H6    S    
Cu4   O10   S    
C94   H18   S    
C54   Cl30  S    
C13   N3    A    
C2    O3    A    
C101  H37   S    
C92   H12   S    
C81   C89   S    
C37   C71   A    
Cu1   O8    S    
C35   C51   A    
C50   C62   A    
C103  H45   S    
C1    C60   S    
C87   C95   S    
C68   C76   S    
C25   C41   A    
C9    N1    A    
C89   H3    S    
C9    C97   S    
C36   C69   A    
C26   C42   A    
C48   C59   A    
C15   C87   A    
C95   H20   S    
C104  H48   S    
C104  H46   S    
C45   C59   A    
C46   C60   A    
C18   C22   S    
C30   C46   A    
C19   C85   A    
C34   C50   A    
C96   H24   S    
C84   C92   S    
C50   Cl26  S    
Cu4   O15   S    
C51   Cl27  S    
C83   C91   S    
C44   Cl20  S    
C45   Cl21  S    
C27   Cl3   S    
C11   C83   A    
C43   Cl19  S    
C28   C65   A    
C91   H7    S    
C41   C57   A    
C72   C80   S    
C27   C66   A    
C93   H13   S    
C90   H4    S    
C101  H39   S    
C41   Cl17  S    
C53   C63   A    
C3    O5    A    
C99   H31   S    
C32   C48   A    
C54   C64   A    
C20   C88   A    
C35   Cl11  S    
C18   C82   A    
C11   C99   S    
C53   Cl29  S    
C47   Cl23  S    
Cu1   N1    S    
C100  H34   S    
C30   C68   A    
Cu2   O7    S    
C82   C90   S    
C99   H32   S    
C23   C24   T    
Cu3   N3    S    
C52   Cl28  S    
C3    C58   S    
C27   C43   A    
C67   C75   S    
C2    O2    A    
C92   H11   S    
C97   H25   S    
C13   C85   A    
C16   C88   A    
C10   C98   S    
C31   C47   A    
C95   H21   S    
Cu1   Cu2   S    
C104  H47   S    
Cu2   O2    S    
C29   C45   A    
C9    C81   A    
C5    O12   A    
C66   C74   S    
