data_mof_unit_47159.cif
_audit_creation_date              2012-12-10T16:58:28-0500
_audit_creation_method            fapswitch 2.2
_symmetry_space_group_name_H-M    P1
_symmetry_Int_Tables_number       1
_space_group_crystal_system       triclinic
_cell_length_a                    15.872262
_cell_length_b                    10.941193
_cell_length_c                    9.728709
_cell_angle_alpha                 88.60027
_cell_angle_beta                  90.136888
_cell_angle_gamma                 90.546295
_cell_volume                      1688.91718139

loop_
_atom_site_label
_atom_site_type_symbol
_atom_type_description
_atom_site_fract_x
_atom_site_fract_y
_atom_site_fract_z
_atom_type_partial_charge
C1    C     C_R   0.493947 0.265646 0.501716 0.715279
C2    C     C_3   0.083312 0.501866 0.499862 0.101941
C3    C     C_3   0.972772 0.602262 0.565553 -0.301387
C4    C     C_3   0.916762 0.504699 0.496310 0.064179
C5    C     C_3   0.029327 0.603738 0.436478 0.433231
C6    C     C_3   0.972976 0.507972 0.366909 -0.065816
C7    C     C_1   0.174885 0.501623 0.499919 0.008934
C8    C     C_1   0.825133 0.503580 0.498546 -0.001717
C9    C     C_2   0.471847 0.936506 0.396255 0.004733
C10   C     C_2   0.512035 0.867101 0.493093 0.302102
C11   C     C_2   0.485783 0.069158 0.393093 -0.168828
C12   C     C_R   0.339982 0.500316 0.499867 0.813397
C13   C     C_2   0.475665 0.134351 0.506758 0.329088
C14   C     C_2   0.455250 0.423524 0.924361 0.636631
C15   C     C_2   0.469374 0.411206 0.078940 0.083485
C16   C     C_R   0.501783 0.734490 0.498237 0.679654
C17   C     C_R   0.660024 0.500505 0.500085 0.820344
C18   C     C_3   0.971223 0.403491 0.559506 0.454508
C19   C     C_3   0.027610 0.403946 0.430768 -0.314426
C20   C     C_1   0.250370 0.501065 0.499760 -0.176285
C21   C     C_1   0.749653 0.502128 0.499849 -0.159681
C22   C     C_3   0.027738 0.498488 0.630157 -0.265912
Cu1   Cu    Cu3+1 0.500020 0.500020 0.638630 1.029334
Cu2   Cu    Cu3+1 0.499980 0.499980 0.361370 0.990637
H1    H     H_    0.050579 0.321813 0.378099 0.161040
H2    H     H_    0.452517 0.325043 0.129489 0.039161
H3    H     H_    0.949769 0.684131 0.618653 0.155666
H4    H     H_    0.050733 0.491993 0.737914 0.160644
H5    H     H_    0.503726 0.112962 0.295962 0.103929
N1    N     N_2   0.499090 0.498660 0.846910 -0.002282
N2    N     N_2   0.499070 0.498630 0.153040 -0.001197
O1    O     O_R   0.500010 0.321960 0.617040 -0.545913
O2    O     O_R   0.499990 0.321920 0.382900 -0.616297
O3    O     O_R   0.379090 0.500010 0.617050 -0.532887
O4    O     O_R   0.379060 0.499970 0.382910 -0.570287
O5    O     O_R   0.500010 0.678080 0.617100 -0.585464
O6    O     O_R   0.499990 0.678040 0.382960 -0.593828
O7    O     O_R   0.620940 0.500030 0.617090 -0.582178
O8    O     O_R   0.620910 0.499990 0.382950 -0.565743
O9    O     O_3   0.443306 0.077664 0.624673 -0.696768
H6    H     H_    0.434058 0.139307 0.695741 0.348204
O10   O     O_3   0.394834 0.351926 0.862414 -0.757075
H7    H     H_    0.366665 0.301029 0.934726 0.278272
O11   O     O_3   0.572939 0.535623 0.900345 -0.631714
H8    H     H_    0.596628 0.594866 0.832209 0.365368
O12   O     O_3   0.491436 0.610926 0.095586 -0.601741
H9    H     H_    0.527798 0.664701 0.150565 0.372831
O13   O     O_3   0.938279 0.298237 0.624463 -0.724914
H10   H     H_    0.987933 0.251072 0.656332 0.321666
C23   C     C_R   0.940629 0.504382 0.221033 0.122288
C24   C     C_R   0.966875 0.590679 0.120173 -0.140880
C25   C     C_R   0.937140 0.583342 0.985081 -0.165397
C26   C     C_R   0.881257 0.489920 0.949358 -0.075649
C27   C     C_R   0.855111 0.403444 0.048705 -0.104818
C28   C     C_R   0.884841 0.410280 0.183789 -0.143646
H11   H     H_    0.010880 0.662863 0.144131 0.166229
H12   H     H_    0.957770 0.649870 0.907833 0.136139
H13   H     H_    0.858511 0.484307 0.844669 0.159624
H14   H     H_    0.812019 0.330810 0.020960 0.148156
H15   H     H_    0.864488 0.342017 0.259408 0.146818
O14   O     O_3   0.063453 0.710132 0.375706 -0.762354
H16   H     H_    0.015733 0.767501 0.365952 0.316835
C29   C     C_R   0.411989 0.886112 0.293661 0.055538
C30   C     C_R   0.340165 0.819418 0.336741 -0.092145
C31   C     C_R   0.284761 0.770974 0.239817 -0.096194
C32   C     C_R   0.299922 0.789956 0.099459 -0.093502
C33   C     C_R   0.370357 0.857837 0.055751 -0.068964
C34   C     C_R   0.426127 0.906091 0.152308 -0.147536
H17   H     H_    0.327422 0.804418 0.445204 0.114095
H18   H     H_    0.230109 0.718620 0.273518 0.174102
H19   H     H_    0.257029 0.752233 0.024581 0.129744
H20   H     H_    0.382006 0.872538 0.946985 0.153333
H21   H     H_    0.480931 0.957282 0.116783 0.127631
O15   O     O_3   0.568957 0.921621 0.581579 -0.692794
H22   H     H_    0.596462 0.857426 0.639158 0.321429

loop_
_geom_bond_atom_site_label_1
_geom_bond_atom_site_label_2
_ccdc_geom_bond_type
C11   C13   D    
C2    C7    S    
C4    C8    S    
C1    O2    A    
C26   C27   A    
C25   C26   A    
C6    C19   S    
C33   H20   S    
C5    C6    S    
C31   H18   S    
Cu2   O8    S    
C24   H11   S    
C17   O8    A    
C13   O9    S    
C27   C28   A    
N2    O12   S    
C2    C22   S    
Cu1   Cu2   S    
C9    C10   D    
C16   O6    A    
C14   O10   S    
C4    C18   S    
C32   C33   A    
C18   C22   S    
C28   H15   S    
N1    O11   S    
C14   N1    D    
C23   C24   A    
C27   H14   S    
Cu2   O4    S    
O15   H22   S    
C33   C34   A    
Cu1   N1    S    
C4    C6    S    
C18   C19   S    
C15   H2    S    
C34   H21   S    
C7    C20   T    
C1    O1    A    
C17   C21   S    
C24   C25   A    
C8    C21   T    
C32   H19   S    
Cu1   O3    S    
C12   C20   S    
Cu2   O6    S    
C5    O14   S    
O12   H9    S    
C30   H17   S    
C6    C23   S    
C12   O4    A    
C9    C11   S    
O13   H10   S    
Cu1   O5    S    
C2    C5    S    
C1    C13   S    
O10   H7    S    
C12   O3    A    
C3    C4    S    
O11   H8    S    
C29   C34   A    
O9    H6    S    
C2    C19   S    
C9    C29   S    
Cu2   O2    S    
C3    C5    S    
C18   O13   S    
C26   H13   S    
C15   N2    D    
Cu1   O7    S    
C23   C28   A    
Cu1   O1    S    
C3    H3    S    
Cu2   N2    S    
C10   C16   S    
C30   C31   A    
C10   O15   S    
C17   O7    A    
O14   H16   S    
C19   H1    S    
C25   H12   S    
C29   C30   A    
C11   H5    S    
C31   C32   A    
C14   C15   S    
C3    C22   S    
C22   H4    S    
C16   O5    A    
