data_mof_unit_25094.cif
_audit_creation_date              2012-12-11T14:08:22-0500
_audit_creation_method            fapswitch 2.2
_symmetry_space_group_name_H-M    P1
_symmetry_Int_Tables_number       1
_space_group_crystal_system       triclinic
_cell_length_a                    28.402977
_cell_length_b                    7.298419
_cell_length_c                    17.403026
_cell_angle_alpha                 90.447787
_cell_angle_beta                  103.341148
_cell_angle_gamma                 89.988114
_cell_volume                      3510.12352915

loop_
_atom_site_label
_atom_site_type_symbol
_atom_type_description
_atom_site_fract_x
_atom_site_fract_y
_atom_site_fract_z
_atom_type_partial_charge
O1    O     O_R   0.000700 0.436510 0.857920 -0.510319
O2    O     O_R   0.999300 0.563490 0.142080 -0.525499
O3    O     O_R   0.999300 0.936510 0.642080 -0.514578
O4    O     O_R   0.000700 0.063490 0.357920 -0.525916
O5    O     O_R   0.930080 0.766380 0.721890 -0.503644
O6    O     O_R   0.069920 0.233620 0.278110 -0.539386
O7    O     O_R   0.069920 0.266380 0.778110 -0.504307
O8    O     O_R   0.930080 0.733620 0.221890 -0.540452
C1    C     C_R   0.910740 0.597628 0.707932 0.745498
C2    C     C_R   0.088942 0.402910 0.291199 0.737424
C3    C     C_R   0.089168 0.097687 0.791274 0.750608
C4    C     C_R   0.911082 0.902200 0.208745 0.738642
O9    O     O_R   0.996180 0.766230 0.862310 -0.548093
O10   O     O_R   0.003820 0.233770 0.137690 -0.552604
O11   O     O_R   0.003820 0.266230 0.637690 -0.549700
O12   O     O_R   0.996180 0.733770 0.362310 -0.550342
O13   O     O_R   0.065870 0.936460 0.783500 -0.549408
O14   O     O_R   0.934130 0.063540 0.216500 -0.517537
O15   O     O_R   0.934130 0.436460 0.716500 -0.551701
O16   O     O_R   0.065870 0.563540 0.283500 -0.517187
C5    C     C_R   0.998091 0.595875 0.894091 0.689190
C6    C     C_R   0.002329 0.403822 0.106127 0.697958
C7    C     C_R   0.002026 0.095362 0.606111 0.675906
C8    C     C_R   0.997643 0.904578 0.393674 0.703493
O17   O     O_3   0.022790 0.603020 0.723980 -0.379748
O18   O     O_3   0.977210 0.396980 0.276020 -0.390265
O19   O     O_3   0.977210 0.103020 0.776020 -0.376570
O20   O     O_3   0.022790 0.896980 0.223980 -0.391414
V1    V     V_3+5 0.995770 0.877900 0.754830 1.505136
V2    V     V_3+5 0.004230 0.122100 0.245170 1.443528
V3    V     V_3+5 0.004230 0.377900 0.745170 1.504888
V4    V     V_3+5 0.995770 0.622100 0.254830 1.445242
C9    C     C_2   0.006927 0.076829 0.522267 0.170577
C10   C     C_2   0.991561 0.922821 0.476993 0.194271
C11   C     C_2   0.993205 0.576484 0.978085 0.170054
C12   C     C_2   0.008446 0.421710 0.022537 0.199259
C13   C     C_R   0.681376 0.862628 0.038422 0.638710
C14   C     C_R   0.317902 0.027993 0.984263 0.704836
C15   C     C_R   0.318381 0.399556 0.457259 0.645848
C16   C     C_R   0.682378 0.563594 0.510074 0.690022
O21   O     O_2   0.708693 0.778617 0.994851 -0.522300
O22   O     O_2   0.290614 0.052098 0.037471 -0.500595
O23   O     O_2   0.291187 0.326923 0.503492 -0.514775
O24   O     O_2   0.710555 0.612735 0.461063 -0.501713
N1    N     N_R   0.703804 0.944263 0.108287 -0.529641
N2    N     N_R   0.295910 0.991797 0.906580 -0.533623
N3    N     N_R   0.295977 0.468812 0.385340 -0.530792
N4    N     N_R   0.703830 0.513879 0.585909 -0.539257
C17   C     C_R   0.677534 0.030359 0.154551 0.542831
C18   C     C_R   0.323723 0.934891 0.855798 0.537837
C19   C     C_R   0.322286 0.543677 0.336718 0.545842
C20   C     C_R   0.676204 0.450275 0.635099 0.542658
C21   C     C_R   0.777775 0.824689 0.197124 -0.166121
C22   C     C_R   0.214847 0.896012 0.827172 -0.173184
C23   C     C_R   0.222310 0.334319 0.300488 -0.176566
C24   C     C_R   0.785031 0.391624 0.645745 -0.174889
C25   C     C_R   0.828199 0.811918 0.220724 -0.283880
C26   C     C_R   0.165417 0.923453 0.799447 -0.268601
C27   C     C_R   0.171996 0.313529 0.279245 -0.289034
C28   C     C_R   0.834437 0.412974 0.676954 -0.281252
C29   C     C_R   0.836031 0.022994 0.117059 0.347727
C30   C     C_R   0.171326 0.219862 0.865358 0.328064
C31   C     C_R   0.163884 0.539594 0.378713 0.351439
C32   C     C_R   0.827918 0.737671 0.647921 0.354597
C33   C     C_R   0.785285 0.038222 0.094183 0.368605
C34   C     C_R   0.221821 0.188363 0.895373 0.347692
C35   C     C_R   0.214447 0.563469 0.398919 0.372716
C36   C     C_R   0.777223 0.716035 0.619166 0.360934
C37   C     C_R   0.755926 0.937074 0.133888 0.232049
C38   C     C_R   0.243916 0.023671 0.877388 0.212447
C39   C     C_R   0.243908 0.458425 0.360235 0.228673
C40   C     C_R   0.755625 0.540382 0.616375 0.215959
C41   C     C_R   0.602666 0.959281 0.058512 -0.113011
C42   C     C_R   0.397337 0.972107 0.959114 -0.130681
C43   C     C_R   0.397110 0.481618 0.433610 -0.117508
C44   C     C_R   0.602644 0.493174 0.532419 -0.126331
C45   C     C_R   0.630202 0.864910 0.012652 -0.213357
C46   C     C_R   0.368915 0.039473 0.009275 -0.201036
C47   C     C_R   0.369419 0.400699 0.482157 -0.220115
C48   C     C_R   0.631161 0.566210 0.483554 -0.205368
C49   C     C_R   0.605624 0.764783 0.945939 0.321828
C50   C     C_R   0.391581 0.136922 0.078130 0.302025
C51   C     C_R   0.393697 0.310827 0.550878 0.320582
C52   C     C_R   0.608009 0.661668 0.415108 0.320218
C53   C     C_R   0.626637 0.041564 0.129904 -0.063644
C54   C     C_R   0.374430 0.915627 0.882318 -0.042343
C55   C     C_R   0.373252 0.554009 0.360674 -0.060314
C56   C     C_R   0.625444 0.434719 0.608649 -0.044875
C57   C     C_R   0.857757 0.912574 0.181920 -0.176795
C58   C     C_R   0.142887 0.083559 0.817982 -0.178219
C59   C     C_R   0.142295 0.417173 0.317170 -0.179316
C60   C     C_R   0.856917 0.584998 0.678711 -0.198241
C61   C     C_R   0.476627 0.892737 0.934907 0.035598
C62   C     C_R   0.523543 0.054622 0.082410 0.008586
C63   C     C_R   0.523163 0.412971 0.556338 0.035522
C64   C     C_R   0.476370 0.567100 0.408248 0.012316
C65   C     C_R   0.471729 0.059909 0.055700 -0.113535
C66   C     C_R   0.527462 0.873237 0.964361 -0.104494
C67   C     C_R   0.528091 0.575246 0.435481 -0.119317
C68   C     C_R   0.472126 0.397337 0.527840 -0.113354
C69   C     C_R   0.448673 0.969914 0.984425 -0.071037
C70   C     C_R   0.551147 0.966103 0.034255 -0.073016
C71   C     C_R   0.551228 0.488402 0.506827 -0.069372
C72   C     C_R   0.448661 0.485649 0.457309 -0.073791
C73   C     C_R   0.453742 0.854521 0.854668 0.475568
C74   C     C_R   0.548438 0.118863 0.158715 0.476803
C75   C     C_R   0.546164 0.374393 0.636111 0.466226
C76   C     C_R   0.451624 0.623474 0.331078 0.473721
C77   C     C_R   0.402786 0.859387 0.830682 -0.287367
C78   C     C_R   0.599410 0.119140 0.178962 -0.288857
C79   C     C_R   0.597046 0.378251 0.659919 -0.285558
C80   C     C_R   0.400651 0.621442 0.310152 -0.281546
O25   O     O_2   0.302856 0.898751 0.779425 -0.563509
O26   O     O_2   0.700575 0.103318 0.224654 -0.540246
O27   O     O_2   0.697598 0.404911 0.710045 -0.556238
O28   O     O_2   0.299254 0.607288 0.265311 -0.544212
C81   C     C_R   0.555036 0.749099 0.930073 0.436124
C82   C     C_R   0.441869 0.170707 0.092098 0.408277
C83   C     C_R   0.443674 0.284037 0.564689 0.461180
C84   C     C_R   0.557498 0.688353 0.399858 0.408414
H1    H     H_    0.144667 0.818423 0.762043 0.179580
H2    H     H_    0.844211 0.725208 0.270097 0.152079
H3    H     H_    0.855144 0.292244 0.699166 0.206011
H4    H     H_    0.156172 0.218471 0.232257 0.153759
H5    H     H_    0.230169 0.773950 0.808080 0.171911
H6    H     H_    0.755554 0.745693 0.227630 0.160920
H7    H     H_    0.769774 0.257217 0.643524 0.174582
H8    H     H_    0.244696 0.251842 0.271143 0.158848
H9    H     H_    0.384981 0.831789 0.769951 0.160146
H10   H     H_    0.618299 0.164972 0.236890 0.175078
H11   H     H_    0.614562 0.351349 0.720708 0.159724
H12   H     H_    0.381977 0.658313 0.251171 0.167786
O29   O     O_3   0.034662 0.205957 0.494638 -0.579497
C85   C     C_3   0.008392 0.370053 0.476994 -0.150339
H13   H     H_    0.015057 0.461794 0.529446 0.182183
H14   H     H_    0.968810 0.348269 0.453158 0.104885
H15   H     H_    0.022423 0.441048 0.431013 0.182235
O30   O     O_3   0.969793 0.780825 0.508872 -0.560550
C86   C     C_3   0.922311 0.751032 0.463698 -0.316084
H16   H     H_    0.902259 0.881549 0.447375 0.109503
H17   H     H_    0.902392 0.670133 0.499670 0.162566
H18   H     H_    0.922413 0.668465 0.409949 0.153493
O31   O     O_3   0.965211 0.704510 0.006245 -0.580473
C87   C     C_3   0.991593 0.868133 0.025888 -0.164009
H19   H     H_    0.986722 0.958340 0.973748 0.183877
H20   H     H_    0.030753 0.844977 0.052535 0.104267
H21   H     H_    0.976258 0.941036 0.070358 0.186100
O32   O     O_3   0.030127 0.279946 0.989410 -0.558495
C88   C     C_3   0.075744 0.235770 0.037936 -0.306484
H22   H     H_    0.096492 0.359136 0.064642 0.102582
H23   H     H_    0.097056 0.163802 0.001030 0.163858
H24   H     H_    0.072133 0.139045 0.084980 0.152850
O33   O     O_3   0.864484 0.121084 0.077215 -0.545735
C89   C     C_3   0.869084 0.018766 0.010267 -0.181130
H25   H     H_    0.834013 0.009526 0.965959 0.176791
H26   H     H_    0.883425 0.878864 0.026504 0.147859
H27   H     H_    0.895115 0.089946 0.981993 0.153367
O34   O     O_3   0.149873 0.388021 0.873944 -0.549912
C90   C     C_3   0.158674 0.447726 0.953341 -0.155767
H28   H     H_    0.187725 0.552711 0.964777 0.166858
H29   H     H_    0.167860 0.335094 0.997070 0.131486
H30   H     H_    0.125529 0.516191 0.962519 0.129047
O35   O     O_3   0.135441 0.641174 0.417879 -0.543461
C91   C     C_3   0.130892 0.543954 0.485502 -0.181318
H31   H     H_    0.166213 0.534810 0.529168 0.173975
H32   H     H_    0.115734 0.404258 0.470056 0.141848
H33   H     H_    0.105494 0.619218 0.514097 0.149441
O36   O     O_3   0.848903 0.909782 0.650211 -0.548509
C92   C     C_3   0.846023 0.975050 0.572965 -0.153781
H34   H     H_    0.817062 0.079551 0.558031 0.171252
H35   H     H_    0.839346 0.866425 0.526316 0.114186
H36   H     H_    0.880750 0.043171 0.571672 0.125816
O37   O     O_3   0.764819 0.135549 0.026992 -0.549938
C93   C     C_3   0.744107 0.300734 0.046546 0.126476
H37   H     H_    0.767977 0.416586 0.038944 0.162243
H38   H     H_    0.739597 0.308497 0.108549 0.079692
C94   C     C_3   0.694366 0.326247 0.990914 -0.314278
H39   H     H_    0.669551 0.215824 0.999578 0.165230
H40   H     H_    0.678486 0.455941 0.006324 0.211464
C95   C     C_3   0.697119 0.326642 0.904223 -0.533524
H41   H     H_    0.719884 0.442475 0.892925 0.241966
H42   H     H_    0.660213 0.340669 0.866001 0.202193
H43   H     H_    0.712521 0.195912 0.888084 0.231150
O38   O     O_3   0.248898 0.312366 0.947363 -0.540501
C96   C     C_3   0.273107 0.431882 0.906613 0.099795
H44   H     H_    0.247837 0.540855 0.880520 0.123621
H45   H     H_    0.286603 0.362346 0.858660 0.090904
C97   C     C_3   0.316298 0.516800 0.964755 -0.324471
H46   H     H_    0.344377 0.411315 0.983340 0.205123
H47   H     H_    0.332476 0.623634 0.934512 0.142559
C98   C     C_3   0.302419 0.599292 0.037473 -0.531754
H48   H     H_    0.272029 0.696972 0.019333 0.209796
H49   H     H_    0.333985 0.672499 0.074509 0.177530
H50   H     H_    0.291203 0.490213 0.073665 0.282129
O39   O     O_3   0.234876 0.671556 0.463718 -0.546540
C99   C     C_3   0.254574 0.834489 0.440362 0.130358
H51   H     H_    0.229932 0.950151 0.445212 0.157773
H52   H     H_    0.259010 0.832380 0.378281 0.077810
C100  C     C_3   0.304223 0.871858 0.495236 -0.332156
H53   H     H_    0.329933 0.762670 0.488074 0.166118
H54   H     H_    0.318929 0.001909 0.477982 0.194872
C101  C     C_3   0.301842 0.882508 0.582024 -0.521196
H55   H     H_    0.278481 0.998347 0.591771 0.248756
H56   H     H_    0.338738 0.903526 0.619557 0.204197
H57   H     H_    0.287450 0.752890 0.600627 0.234245
O40   O     O_3   0.750673 0.864163 0.584566 -0.549430
C102  C     C_3   0.716710 0.920426 0.627762 0.116821
H58   H     H_    0.733332 0.023818 0.672524 0.125436
H59   H     H_    0.704774 0.809990 0.662325 0.080285
C103  C     C_3   0.672232 0.001973 0.571129 -0.323325
H60   H     H_    0.645388 0.893510 0.548728 0.177801
H61   H     H_    0.654330 0.097441 0.604465 0.162137
C104  C     C_3   0.684376 0.099789 0.500559 -0.540492
H62   H     H_    0.714963 0.195826 0.520199 0.208728
H63   H     H_    0.652479 0.176795 0.467843 0.165506
H64   H     H_    0.694887 0.999150 0.459527 0.291556
O41   O     O_3   0.630395 0.661102 0.901404 -0.558736
C105  C     C_3   0.639661 0.768166 0.839040 0.122930
H65   H     H_    0.668395 0.698241 0.816064 0.174945
H66   H     H_    0.653711 0.907413 0.859211 0.119576
C106  C     C_3   0.594343 0.782887 0.772345 -0.324454
H67   H     H_    0.577844 0.645682 0.759038 0.260079
H68   H     H_    0.568367 0.872545 0.792575 0.214405
C107  C     C_3   0.605012 0.863773 0.698080 -0.910901
H69   H     H_    0.622295 0.000180 0.711482 0.233521
H70   H     H_    0.570985 0.877938 0.651938 0.244601
H71   H     H_    0.629241 0.771469 0.674991 0.245160
O42   O     O_3   0.363076 0.243111 0.115789 -0.546538
C108  C     C_3   0.374723 0.215016 0.198158 0.122660
H72   H     H_    0.364562 0.341482 0.225012 0.167736
H73   H     H_    0.413923 0.193145 0.223971 0.132832
C109  C     C_3   0.344345 0.060277 0.220487 -0.279362
H74   H     H_    0.305320 0.090691 0.197452 0.240482
H75   H     H_    0.352736 0.930224 0.193207 0.191186
C110  C     C_3   0.354223 0.040295 0.310053 -0.873733
H76   H     H_    0.392970 0.009237 0.335164 0.228117
H77   H     H_    0.331664 0.928901 0.325273 0.258034
H78   H     H_    0.344630 0.167998 0.337344 0.229367
O43   O     O_3   0.369134 0.235369 0.602654 -0.549961
C111  C     C_3   0.368248 0.364376 0.663588 0.143769
H79   H     H_    0.332471 0.433729 0.650870 0.157963
H80   H     H_    0.396542 0.472680 0.670307 0.071170
C112  C     C_3   0.375231 0.262808 0.741448 -0.285298
H81   H     H_    0.344479 0.167218 0.736874 0.233270
H82   H     H_    0.409370 0.183008 0.751438 0.225958
C113  C     C_3   0.377280 0.392163 0.811438 -0.886927
H83   H     H_    0.412217 0.466203 0.826254 0.241264
H84   H     H_    0.374575 0.311791 0.864013 0.233338
H85   H     H_    0.347141 0.492427 0.798256 0.241397
O44   O     O_3   0.635641 0.769209 0.377145 -0.545602
C114  C     C_3   0.625719 0.728315 0.295562 0.126673
H86   H     H_    0.637523 0.848449 0.267214 0.173036
H87   H     H_    0.586579 0.708315 0.268163 0.134835
C115  C     C_3   0.655567 0.565364 0.278057 -0.297461
H88   H     H_    0.694581 0.592349 0.303357 0.245533
H89   H     H_    0.645083 0.440169 0.305808 0.184989
C116  C     C_3   0.647934 0.535395 0.189110 -0.865622
H90   H     H_    0.609315 0.506436 0.161671 0.227780
H91   H     H_    0.670413 0.419944 0.176934 0.265347
H92   H     H_    0.659241 0.658244 0.161458 0.230301
O45   O     O_3   0.482115 0.859269 0.799245 -0.570120
C117  C     C_3   0.466192 0.735995 0.735905 -0.172773
H93   H     H_    0.433651 0.787549 0.693656 0.113895
H94   H     H_    0.460837 0.596792 0.757257 0.185167
H95   H     H_    0.494724 0.725070 0.702373 0.185474
O46   O     O_3   0.522832 0.141028 0.217388 -0.548678
C118  C     C_3   0.540160 0.288475 0.269019 -0.110715
H96   H     H_    0.547885 0.411776 0.236845 0.151372
H97   H     H_    0.572092 0.247696 0.315451 0.095320
H98   H     H_    0.511569 0.324607 0.300001 0.179294
O47   O     O_3   0.518294 0.379248 0.692268 -0.567618
C119  C     C_3   0.531820 0.242619 0.749742 -0.149671
H99   H     H_    0.564173 0.283952 0.795531 0.119819
H100  H     H_    0.537308 0.109904 0.722232 0.184000
H101  H     H_    0.501672 0.223366 0.779496 0.187410
O48   O     O_3   0.477404 0.640491 0.272571 -0.550287
C120  C     C_3   0.461073 0.788560 0.221841 -0.106263
H102  H     H_    0.454660 0.913446 0.254901 0.156063
H103  H     H_    0.428461 0.751483 0.175799 0.082210
H104  H     H_    0.489713 0.820009 0.190461 0.177747
O49   O     O_3   0.532793 0.600470 0.886654 -0.536670
C121  C     C_3   0.540299 0.444041 0.935459 -0.251418
H105  H     H_    0.537443 0.473505 0.997168 0.115399
H106  H     H_    0.576209 0.382464 0.936472 0.164279
H107  H     H_    0.512121 0.340738 0.910919 0.151968
O50   O     O_3   0.459609 0.333919 0.128338 -0.523629
C122  C     C_3   0.453131 0.473349 0.070857 -0.199224
H108  H     H_    0.455690 0.424699 0.011048 0.107126
H109  H     H_    0.481814 0.578008 0.089853 0.149372
H110  H     H_    0.417597 0.540475 0.066340 0.152091
O51   O     O_3   0.463713 0.131016 0.605946 -0.534180
C123  C     C_3   0.451243 0.975008 0.556632 -0.262273
H111  H     H_    0.478029 0.865407 0.577468 0.147419
H112  H     H_    0.451619 0.000900 0.493696 0.112161
H113  H     H_    0.414995 0.923456 0.559900 0.161931
O52   O     O_3   0.538770 0.847294 0.362073 -0.525134
C124  C     C_3   0.538579 0.985354 0.419482 -0.200226
H114  H     H_    0.530636 0.933793 0.475231 0.108124
H115  H     H_    0.510055 0.086437 0.394921 0.147388
H116  H     H_    0.573918 0.057121 0.433646 0.151660

loop_
_geom_bond_atom_site_label_1
_geom_bond_atom_site_label_2
_ccdc_geom_bond_type
O17   V3    S    
C52   C84   A    
C67   C71   A    
O18   V4    S    
C23   C27   A    
C23   H8    S    
O19   V1    S    
O13   V1    S    
C92   H34   S    
O3    C7    A    
O35   C91   S    
C68   C72   A    
C106  C107  S    
C48   C52   A    
C102  H59   S    
C21   C37   A    
C107  H69   S    
C85   H15   S    
O29   C85   S    
C25   C57   A    
C114  H86   S    
C34   C38   A    
O37   C93   S    
O1    C5    A    
C121  H105  S    
C108  H72   S    
C101  H56   S    
C66   C81   A    
C97   C98   S    
C20   O27   S    
C32   C36   A    
C97   H47   S    
C123  H111  S    
N4    C40   S    
C9    O29   S    
C14   O22   S    
C108  C109  S    
C88   H23   S    
N1    C37   S    
C22   C26   A    
O50   C122  S    
O4    C8    A    
C118  H98   S    
C33   C37   A    
C96   H45   S    
C51   C83   A    
C112  H81   S    
C64   C67   A    
C49   C81   A    
O1    V3    S    
O38   C96   S    
O49   C121  S    
O2    V4    S    
C116  H90   S    
C124  H114  S    
C24   H7    S    
C83   O51   S    
C65   C82   A    
O3    V1    S    
C93   H37   S    
C109  H74   S    
C115  H89   S    
C108  H73   S    
C76   O48   S    
C61   C73   A    
C67   C84   A    
C56   C79   A    
C1    O15   A    
C3    O13   A    
C96   H44   S    
O43   C111  S    
C2    O16   A    
C119  H99   S    
C24   C40   A    
C101  H57   S    
O2    C6    A    
C100  C101  S    
C41   C70   A    
C110  H76   S    
C16   C48   A    
C23   C39   A    
O14   V2    S    
N1    C17   A    
C44   C56   A    
C89   H26   S    
C95   H43   S    
C36   C40   A    
C33   O37   S    
O47   C119  S    
C112  C113  S    
O51   C123  S    
O11   C7    A    
C17   O26   S    
C25   H2    S    
O5    V1    S    
O15   V3    S    
C100  H53   S    
O12   C8    A    
C120  H102  S    
C13   O21   S    
C110  H77   S    
C81   O49   S    
C91   H31   S    
C117  H95   S    
C87   H21   S    
C35   O39   S    
C1    C60   S    
C109  H75   S    
O42   C108  S    
C29   C57   A    
C111  C112  S    
C113  H84   S    
C104  H63   S    
C34   O38   S    
C116  H92   S    
C22   H5    S    
C31   C35   A    
C74   O46   S    
O7    V3    S    
C101  H55   S    
C30   C34   A    
C63   C71   A    
C75   O47   S    
C102  H58   S    
O8    V4    S    
C19   C55   A    
C4    C57   S    
C20   C56   A    
C54   C77   A    
O32   C88   S    
C84   O52   S    
C89   H27   S    
C99   H52   S    
C53   C78   A    
O46   C118  S    
C88   H24   S    
C61   C69   A    
C68   C83   A    
C73   O45   S    
C21   C25   A    
C63   C68   A    
C87   H19   S    
C96   C97   S    
N3    C19   A    
C55   C80   A    
C14   C46   A    
C62   C65   A    
C7    C9    S    
O44   C114  S    
O10   V2    S    
C52   O44   S    
C123  H112  S    
C10   O30   S    
C109  C110  S    
C8    C10   S    
C24   C28   A    
C107  H70   S    
C97   H46   S    
C116  H91   S    
C11   C12   D    
C15   C47   A    
O34   C90   S    
C28   H3    S    
O7    C3    A    
C98   H49   S    
C51   O43   S    
C85   H14   S    
C115  H88   S    
C86   H17   S    
C17   C53   A    
C102  C103  S    
C106  H67   S    
C46   C50   A    
C105  H66   S    
C90   H28   S    
C22   C38   A    
C45   C49   A    
O8    C4    A    
C94   C95   S    
C49   O41   S    
C111  H80   S    
C9    C10   D    
C90   H30   S    
O9    C5    A    
C21   H6    S    
C124  H115  S    
C27   C59   A    
C118  H96   S    
C80   H12   S    
C122  H110  S    
C26   C58   A    
C93   C94   S    
C41   C53   A    
C89   H25   S    
C117  H93   S    
C63   C75   A    
C74   C78   A    
C42   C69   A    
C87   H20   S    
O36   C92   S    
O6    V2    S    
C114  H87   S    
C2    C59   S    
C94   H39   S    
C103  H61   S    
C120  H103  S    
C122  H108  S    
C77   H9    S    
C43   C72   A    
C32   O36   S    
C110  H78   S    
C50   C82   A    
C31   O35   S    
C13   N1    A    
C107  H71   S    
C42   C54   A    
N2    C38   S    
C95   H41   S    
C105  C106  S    
C15   N3    A    
O16   V4    S    
C104  H64   S    
O9    V1    S    
C27   H4    S    
C16   N4    A    
C73   C77   A    
C113  H83   S    
C62   C74   A    
C26   H1    S    
C95   H42   S    
C99   C100  S    
O40   C102  S    
C75   C79   A    
C123  H113  S    
C31   C59   A    
C44   C48   A    
O5    C1    A    
C99   H51   S    
C114  C115  S    
C29   O33   S    
O6    C2    A    
C117  H94   S    
C86   H16   S    
O11   V3    S    
C85   H13   S    
C5    C11   S    
O12   V4    S    
C103  C104  S    
C6    C12   S    
C79   H11   S    
N2    C18   A    
C121  H106  S    
C19   O28   S    
C115  C116  S    
O52   C124  S    
C18   O25   S    
C64   C72   A    
C90   H29   S    
O41   C105  S    
C98   H50   S    
O20   V2    S    
C106  H68   S    
C66   C70   A    
C88   H22   S    
C36   O40   S    
C118  H97   S    
C3    C58   S    
O10   C6    A    
C105  H65   S    
O45   C117  S    
C50   O42   S    
C12   O32   S    
C44   C71   A    
C119  H101  S    
C104  H62   S    
C30   C58   A    
C91   H32   S    
C111  H79   S    
C124  H116  S    
C93   H38   S    
C94   H40   S    
C30   O34   S    
C78   H10   S    
C35   C39   A    
C91   H33   S    
C29   C33   A    
C64   C76   A    
C98   H48   S    
C65   C69   A    
C14   N2    A    
C82   O50   S    
O30   C86   S    
C18   C54   A    
O39   C99   S    
C47   C51   A    
C76   C80   A    
C16   O24   S    
C13   C45   A    
O48   C120  S    
C15   O23   S    
C121  H107  S    
C119  H100  S    
C103  H60   S    
C42   C46   A    
C120  H104  S    
C4    O14   A    
N3    C39   S    
C100  H54   S    
C41   C45   A    
C92   H36   S    
C112  H82   S    
C32   C60   A    
O33   C89   S    
N4    C20   A    
C28   C60   A    
C43   C47   A    
C61   C66   A    
C113  H85   S    
C122  H109  S    
O4    V2    S    
C43   C55   A    
O31   C87   S    
C62   C70   A    
C11   O31   S    
C86   H18   S    
C92   H35   S    
