data_mof_unit_59081.cif
_audit_creation_date              2013-03-05T15:43:11-0500
_audit_creation_method            fapswitch 2.2
_symmetry_space_group_name_H-M    P1
_symmetry_Int_Tables_number       1
_space_group_crystal_system       triclinic
_cell_length_a                    12.841969
_cell_length_b                    10.743978
_cell_length_c                    10.029107
_cell_angle_alpha                 90.129429
_cell_angle_beta                  97.835054
_cell_angle_gamma                 90.16674
_cell_volume                      1370.82573004

loop_
_atom_site_label
_atom_site_type_symbol
_atom_site_description
_atom_site_fract_x
_atom_site_fract_y
_atom_site_fract_z
_atom_type_partial_charge
O1    O     O_R   0.499980 0.319060 0.613040 -0.614429
O2    O     O_R   0.500020 0.319100 0.386900 -0.619320
C1    C     C_R   0.498447 0.262682 0.499447 0.933031
O3    O     O_R   0.346340 0.499960 0.594380 -0.615108
O4    O     O_R   0.346380 0.500000 0.368250 -0.610195
C2    C     C_R   0.298558 0.500232 0.472744 0.871988
Zn1   Zn    Zn3+2 0.499980 0.499970 0.650990 0.991286
Zn2   Zn    Zn3+2 0.500020 0.500030 0.349010 0.978210
O5    O     O_R   0.499980 0.680900 0.613100 -0.614421
O6    O     O_R   0.500020 0.680940 0.386960 -0.622004
O7    O     O_R   0.653620 0.500000 0.631750 -0.580081
O8    O     O_R   0.653660 0.500040 0.405620 -0.602302
C3    C     C_R   0.502924 0.737294 0.500592 0.954237
C4    C     C_R   0.701790 0.499292 0.527402 0.925050
C5    C     C_R   0.814867 0.494308 0.545894 -0.232921
C6    C     C_R   0.186964 0.506288 0.454294 -0.055210
C7    C     C_R   0.030186 0.615492 0.369445 -0.112663
C8    C     C_R   0.135900 0.594337 0.367774 -0.177600
C9    C     C_R   0.133435 0.433827 0.536607 -0.173515
C10   C     C_R   0.026578 0.450849 0.537453 0.036019
C11   C     C_R   0.974182 0.545445 0.455031 0.058369
C12   C     C_R   0.868296 0.569435 0.462437 -0.073281
C13   C     C_R   0.866799 0.401209 0.628816 -0.161594
C14   C     C_R   0.973229 0.379278 0.624165 0.254580
H1    H     H_    0.994631 0.689264 0.306059 0.183185
H2    H     H_    0.179061 0.651759 0.305286 0.160570
H3    H     H_    0.177291 0.367540 0.603353 0.186559
C15   C     C_2   0.505702 0.932970 0.388392 -0.175872
C16   C     C_2   0.514739 0.868710 0.503101 -0.279952
H4    H     H_    0.493800 0.887320 0.290666 0.176983
H5    H     H_    0.533973 0.911381 0.601454 0.164405
C17   C     C_2   0.512053 0.066913 0.390448 -0.126554
C18   C     C_2   0.490710 0.130989 0.497572 -0.281268
H6    H     H_    0.532463 0.112947 0.301117 0.178151
H7    H     H_    0.464539 0.088081 0.584948 0.152435
C19   C     C_2   0.557285 0.575260 0.935096 -0.071952
N1    N     N_2   0.501130 0.501330 0.852280 -0.193913
H8    H     H_    0.610525 0.639355 0.895018 0.183588
H9    H     H_    0.446069 0.445958 0.888317 0.170209
C20   C     C_2   0.551424 0.580966 0.084006 -0.089957
N2    N     N_2   0.501160 0.501360 0.147950 -0.197882
H10   H     H_    0.593806 0.655569 0.140999 0.190532
H11   H     H_    0.466350 0.426386 0.095996 0.168947
C21   C     C_2   0.812181 0.673536 0.385371 0.921888
O9    O     O_2   0.804458 0.675485 0.262490 -0.631034
O10   O     O_R   0.764554 0.766014 0.454170 -0.787043
H12   H     H_    0.727838 0.830857 0.391330 0.348734
C22   C     C_2   0.809099 0.318955 0.712328 1.017034
O11   O     O_2   0.796302 0.209046 0.682466 -0.591023
O12   O     O_R   0.771892 0.366778 0.826594 -0.747334
H13   H     H_    0.733845 0.301815 0.875195 0.343856
N3    N     N_R   0.026305 0.282731 0.705856 0.202883
O13   O     O_R   0.030399 0.286449 0.836148 -0.352511
O14   O     O_R   0.062040 0.185543 0.649336 -0.361786

loop_
_geom_bond_atom_site_label_1
_geom_bond_atom_site_label_2
_geom_bond_distance
_ccdc_geom_bond_type
C14   N3    1.437890 S    
O4    Zn2   2.008462 S    
C13   C14   1.394620 A    
C20   N2    1.292887 D    
C9    H3    1.083611 S    
C9    C10   1.386079 A    
C8    H2    1.083989 S    
C19   C20   1.506662 S    
Zn2   O8    1.977324 S    
C7    H1    1.079846 S    
C17   C18   1.334665 D    
C10   C11   1.423072 A    
C20   H10   1.084427 S    
C7    C8    1.379466 A    
Zn1   N1    2.016820 S    
C15   H4    1.086775 S    
C16   H5    1.083985 S    
C6    C8    1.389269 A    
O1    Zn1   1.979764 S    
C11   C12   1.396582 A    
C21   O9    1.223044 D    
Zn1   O7    2.008461 S    
N2    H11   1.026012 S    
C12   C21   1.491434 S    
C19   N1    1.292746 D    
N3    O13   1.301105 A    
O3    Zn1   1.977324 S    
C22   O12   1.397738 S    
C15   C16   1.334639 D    
C18   H7    1.083789 S    
N3    O14   1.301251 A    
O12   H13   1.013875 S    
O2    C1    1.284968 A    
C6    C9    1.383706 A    
O4    C2    1.284873 A    
O7    C4    1.286237 A    
O2    Zn2   1.981546 S    
O3    C2    1.288653 A    
C5    C13   1.411846 A    
C2    C6    1.421440 S    
C19   H8    1.084739 S    
C15   C17   1.441087 S    
Zn2   N2    2.018582 S    
N1    H9    1.026019 S    
C5    C12   1.406859 A    
C3    C16   1.419431 S    
Zn1   O5    1.981544 S    
C1    C18   1.418008 S    
O10   H12   1.013776 S    
C22   O11   1.222693 D    
O5    C3    1.286974 A    
C13   C22   1.483332 S    
C21   O10   1.397459 S    
C4    C5    1.439798 S    
Zn2   O6    1.979763 S    
C7    C11   1.410141 A    
C10   C14   1.406888 A    
O8    C4    1.291546 A    
O1    C1    1.286793 A    
O6    C3    1.285258 A    
C17   H6    1.086856 S    
