data_mof_unit_50468.cif
_audit_creation_date              2013-03-05T16:03:53-0500
_audit_creation_method            fapswitch 2.2
_symmetry_space_group_name_H-M    P1
_symmetry_Int_Tables_number       1
_space_group_crystal_system       triclinic
_cell_length_a                    11.063159
_cell_length_b                    10.843889
_cell_length_c                    9.58787
_cell_angle_alpha                 88.777081
_cell_angle_beta                  101.990442
_cell_angle_gamma                 92.370232
_cell_volume                      1124.08062076

loop_
_atom_site_label
_atom_site_type_symbol
_atom_site_description
_atom_site_fract_x
_atom_site_fract_y
_atom_site_fract_z
_atom_type_partial_charge
O1    O     O_R   0.499990 0.319660 0.618740 -0.549275
O2    O     O_R   0.500010 0.680340 0.381260 -0.549174
O3    O     O_R   0.499990 0.319630 0.381170 -0.548627
O4    O     O_R   0.500010 0.680370 0.618830 -0.548638
C1    C     C_R   0.504623 0.262573 0.502032 0.878083
C2    C     C_R   0.495375 0.737425 0.497966 0.878351
O5    O     O_R   0.320690 0.500020 0.575130 -0.548762
O6    O     O_R   0.679310 0.499980 0.424870 -0.548576
O7    O     O_R   0.320680 0.499990 0.337560 -0.565733
O8    O     O_R   0.679320 0.500010 0.662440 -0.565876
C3    C     C_R   0.263321 0.495254 0.442542 0.787180
C4    C     C_R   0.736675 0.504733 0.557458 0.787292
Cu1   Cu    Cu3+1 0.500000 0.500020 0.640660 1.099166
Cu2   Cu    Cu3+1 0.500000 0.499980 0.359340 1.099247
C5    C     C_R   0.405332 0.444821 0.054644 -0.069012
C6    C     C_R   0.594660 0.555187 0.945341 -0.069078
C7    C     C_R   0.404191 0.444073 0.906556 0.437055
C8    C     C_R   0.595816 0.555939 0.093434 0.436849
H1    H     H_    0.888270 0.418006 0.417663 0.223597
H2    H     H_    0.111812 0.581642 0.582691 0.223777
H3    H     H_    0.330384 0.399406 0.094925 0.213425
H4    H     H_    0.669587 0.600614 0.905031 0.213424
C9    C     C_2   0.129635 0.472928 0.411251 0.175020
C10   C     C_2   0.870348 0.527085 0.588753 0.175291
C11   C     C_2   0.064814 0.518138 0.501367 -0.131171
C12   C     C_2   0.935219 0.481685 0.498812 -0.131436
C13   C     C_R   0.558092 0.066018 0.402068 0.341108
C14   C     C_R   0.441883 0.933977 0.597911 0.341027
C15   C     C_R   0.545571 0.938130 0.397125 -0.199611
C16   C     C_R   0.454418 0.061865 0.602859 -0.199703
C17   C     C_R   0.490789 0.871405 0.495680 -0.203422
C18   C     C_R   0.509200 0.128591 0.504309 -0.203427
N1    N     N_R   0.500030 0.500030 0.852080 -0.251593
N2    N     N_R   0.499970 0.499970 0.147920 -0.251518
N3    N     N_R   0.924435 0.608916 0.703324 0.146500
O9    O     O_R   0.862938 0.702111 0.730496 -0.300682
O10   O     O_R   0.023114 0.579106 0.795112 -0.238332
N4    N     N_R   0.075466 0.391414 0.296381 0.146604
O11   O     O_R   0.137025 0.298498 0.268547 -0.300726
O12   O     O_R   0.976542 0.421273 0.205030 -0.238509
N5    N     N_R   0.299926 0.383881 0.816586 0.139678
O13   O     O_R   0.315903 0.289178 0.743135 -0.336133
O14   O     O_R   0.189880 0.399418 0.839629 -0.283284
N6    N     N_R   0.700108 0.616162 0.183365 0.139705
O15   O     O_R   0.684090 0.710517 0.257338 -0.336048
O16   O     O_R   0.810081 0.601171 0.159777 -0.282982
N7    N     N_R   0.626088 0.129636 0.308003 0.151228
O17   O     O_R   0.712699 0.211433 0.358363 -0.333910
O18   O     O_R   0.615861 0.092062 0.177912 -0.279138
N8    N     N_R   0.373859 0.870363 0.691956 0.151233
O19   O     O_R   0.287314 0.788502 0.641594 -0.333848
O20   O     O_R   0.383936 0.908038 0.821981 -0.279064
H5    H     H_    0.584039 0.890858 0.319601 0.246179
H6    H     H_    0.415958 0.109138 0.680384 0.246271

loop_
_geom_bond_atom_site_label_1
_geom_bond_atom_site_label_2
_geom_bond_distance
_ccdc_geom_bond_type
Cu2   N2    2.027001 S    
C16   C18   1.398634 A    
O7    Cu2   1.951189 S    
Cu1   N1    2.027001 S    
C8    N6    1.431620 S    
C6    N1    1.354766 A    
C13   C15   1.388830 A    
C9    N4    1.441166 S    
N5    O14   1.299897 A    
N5    O13   1.295931 A    
C4    C10   1.457687 S    
C5    N2    1.354854 A    
N8    O20   1.301439 A    
N7    O17   1.301458 A    
O5    Cu1   1.952460 S    
O6    C4    1.298596 A    
C1    C18   1.455402 S    
C14   C16   1.388835 A    
C2    C17   1.455380 S    
C11   C12   1.466759 S    
N7    O18   1.301466 A    
Cu1   Cu2   2.697269 S    
N4    O12   1.299474 A    
C16   H6    1.077969 S    
O2    C2    1.301514 A    
O3    Cu2   1.962415 S    
C15   H5    1.078017 S    
C8    N2    1.388893 A    
O1    C1    1.301531 A    
O8    C4    1.295716 A    
C3    C9    1.457785 S    
N3    O10   1.299486 A    
N6    O16   1.300027 A    
O5    C3    1.298610 A    
O7    C3    1.295748 A    
N4    O11   1.301527 A    
O2    Cu2   1.971510 S    
C7    N5    1.431443 S    
C10   N3    1.441080 S    
O1    Cu1   1.971510 S    
H2    C11   1.085068 S    
C5    H3    1.081828 S    
C9    C11   1.343786 D    
N6    O15   1.295958 A    
C6    C8    1.417488 A    
O4    C2    1.294464 A    
C13   N7    1.437906 S    
O4    Cu1   1.962415 S    
C5    C7    1.417478 A    
H1    C12   1.085045 S    
C6    H4    1.081829 S    
O6    Cu2   1.952459 S    
C7    N1    1.388720 A    
N8    O19   1.301464 A    
C13   C18   1.411723 A    
C15   C17   1.398658 A    
C14   N8    1.437953 S    
C14   C17   1.411731 A    
N3    O9    1.301462 A    
C10   C12   1.343712 D    
O3    C1    1.294457 A    
O8    Cu1   1.951188 S    
