data_mof_unit_23335.cif
_audit_creation_date              2012-12-11T16:58:20-0500
_audit_creation_method            fapswitch 2.2
_symmetry_space_group_name_H-M    P1
_symmetry_Int_Tables_number       1
_space_group_crystal_system       triclinic
_cell_length_a                    16.936888
_cell_length_b                    7.258872
_cell_length_c                    16.777119
_cell_angle_alpha                 89.999376
_cell_angle_beta                  100.291014
_cell_angle_gamma                 90.0009
_cell_volume                      2029.44304563

loop_
_atom_site_label
_atom_site_type_symbol
_atom_type_description
_atom_site_fract_x
_atom_site_fract_y
_atom_site_fract_z
_atom_type_partial_charge
O1    O     O_R   0.413450 0.494370 0.415710 -0.533703
O2    O     O_R   0.586550 0.994370 0.584290 -0.533701
O3    O     O_R   0.578420 0.819350 0.429360 -0.541045
O4    O     O_R   0.421580 0.319350 0.570640 -0.541031
C1    C     C_R   0.605098 0.656909 0.414110 0.700488
C2    C     C_R   0.394903 0.156902 0.585890 0.700488
O5    O     O_R   0.413570 0.823780 0.406240 -0.541559
O6    O     O_R   0.586430 0.323780 0.593760 -0.541563
O7    O     O_R   0.420530 0.998740 0.561000 -0.534852
O8    O     O_R   0.579470 0.498740 0.439000 -0.534857
C3    C     C_R   0.385908 0.655393 0.383895 0.692722
C4    C     C_R   0.614091 0.155393 0.616105 0.692706
O9    O     O_3   0.502480 0.662320 0.550800 -0.377885
O10   O     O_3   0.497520 0.162320 0.449200 -0.377894
V1    V     V_3+5 0.499540 0.935370 0.490580 1.392127
V2    V     V_3+5 0.500460 0.435370 0.509420 1.392132
C5    C     C_R   0.738366 0.997912 0.690929 0.083148
C6    C     C_R   0.261628 0.497913 0.309077 0.083167
C7    C     C_R   0.685085 0.147491 0.682370 -0.099359
C8    C     C_R   0.314914 0.647491 0.317630 -0.099392
C9    C     C_R   0.704914 0.295868 0.736579 -0.197138
C10   C     C_R   0.295090 0.795868 0.263417 -0.197100
H1    H     H_    0.667684 0.417910 0.731356 0.138230
H2    H     H_    0.332323 0.917909 0.268637 0.138221
C11   C     C_R   0.770430 0.283919 0.801447 -0.209456
C12   C     C_R   0.229575 0.783919 0.198548 -0.209482
H3    H     H_    0.781095 0.397463 0.843810 0.128856
H4    H     H_    0.218912 0.897463 0.156182 0.128842
C13   C     C_R   0.818824 0.124083 0.813730 -0.128007
C14   C     C_R   0.181177 0.624084 0.186269 -0.128040
C15   C     C_R   0.803457 0.986936 0.754264 0.175640
C16   C     C_R   0.196538 0.486938 0.245740 0.175749
C17   C     C_3   0.796017 0.782309 0.760544 -0.201279
C18   C     C_3   0.203972 0.282312 0.239469 -0.201331
C19   C     C_3   0.724282 0.794885 0.691019 -0.482744
C20   C     C_3   0.275704 0.294885 0.308996 -0.482657
H5    H     H_    0.779578 0.736774 0.818702 0.103378
H6    H     H_    0.220412 0.236774 0.181313 0.103335
H7    H     H_    0.666354 0.759551 0.709680 0.173829
H8    H     H_    0.333632 0.259543 0.290339 0.173812
H9    H     H_    0.733737 0.729516 0.633476 0.168792
H10   H     H_    0.266243 0.229524 0.366540 0.168807
C21   C     C_R   0.331408 0.161042 0.636726 -0.064866
C22   C     C_R   0.668588 0.661074 0.363268 -0.064889
C23   C     C_R   0.167712 0.108490 0.863060 -0.057138
C24   C     C_R   0.832293 0.608459 0.136947 -0.057159
C25   C     C_R   0.274820 0.933524 0.817321 -0.187516
C26   C     C_R   0.725247 0.433390 0.182755 -0.187572
C27   C     C_R   0.221428 0.958332 0.871002 -0.152495
C28   C     C_R   0.778625 0.458208 0.129061 -0.152468
C29   C     C_R   0.169891 0.236827 0.800814 -0.223282
C30   C     C_R   0.830071 0.736880 0.199145 -0.223323
C31   C     C_R   0.223166 0.211450 0.745811 0.150494
C32   C     C_R   0.776808 0.711497 0.254159 0.150533
C33   C     C_R   0.275776 0.057879 0.753795 0.157277
C34   C     C_R   0.724251 0.557832 0.246235 0.157304
C35   C     C_R   0.329059 0.032477 0.698819 -0.237020
C36   C     C_R   0.670980 0.532423 0.301223 -0.237040
C37   C     C_R   0.277795 0.311359 0.628796 -0.157157
C38   C     C_R   0.722150 0.811486 0.371140 -0.157168
C39   C     C_R   0.224230 0.335957 0.682341 -0.179353
C40   C     C_R   0.775704 0.836092 0.317583 -0.179421
H11   H     H_    0.370666 0.917649 0.706337 0.119410
H12   H     H_    0.629415 0.417512 0.293752 0.119434
H13   H     H_    0.278261 0.412705 0.581456 0.127940
H14   H     H_    0.721654 0.912900 0.418442 0.127969
H15   H     H_    0.314695 0.815581 0.824986 0.117623
H16   H     H_    0.685413 0.315374 0.175136 0.117629
H17   H     H_    0.184394 0.453971 0.674692 0.132434
H18   H     H_    0.815497 0.954181 0.325186 0.132438
H19   H     H_    0.221208 0.857201 0.918469 0.120146
H20   H     H_    0.778874 0.357012 0.081631 0.120186
H21   H     H_    0.128250 0.351594 0.793272 0.134893
H22   H     H_    0.871671 0.851728 0.206642 0.134895
O11   O     O_R   0.920630 0.775410 0.061150 -0.539806
O12   O     O_R   0.079370 0.275410 0.938850 -0.539796
O13   O     O_R   0.086500 0.441450 0.093690 -0.527014
O14   O     O_R   0.913500 0.941450 0.906310 -0.526962
C41   C     C_R   0.114017 0.610245 0.116175 0.699313
C42   C     C_R   0.885984 0.110245 0.883824 0.699334
O15   O     O_R   0.921670 0.445960 0.070740 -0.531211
O16   O     O_R   0.078330 0.945960 0.929260 -0.531175
O17   O     O_R   0.913380 0.271130 0.915780 -0.545129
O18   O     O_R   0.086620 0.771130 0.084220 -0.545138
C43   C     C_R   0.895632 0.612817 0.085872 0.690396
C44   C     C_R   0.104367 0.112824 0.914128 0.690406
O19   O     O_3   0.997500 0.603030 0.949220 -0.370729
O20   O     O_3   0.002500 0.103030 0.050780 -0.370806
V3    V     V_3+5 0.000470 0.329940 0.009420 1.454991
V4    V     V_3+5 0.999530 0.829940 0.990580 1.455074
C45   C     C_2   0.865967 0.678580 0.738122 0.424266
H23   H     H_    0.858317 0.536053 0.718973 0.056690
O21   O     O_2   0.931550 0.751454 0.742053 -0.523404
C46   C     C_2   0.134018 0.178580 0.261889 0.424313
H24   H     H_    0.141642 0.035958 0.280935 0.056668
O22   O     O_2   0.068465 0.251569 0.258087 -0.523410

loop_
_geom_bond_atom_site_label_1
_geom_bond_atom_site_label_2
_ccdc_geom_bond_type
C20   H10   S    
O1    C3    A    
O2    C4    A    
C2    O7    A    
C25   C27   A    
O14   V4    S    
O5    C3    A    
O13   V3    S    
C7    C9    A    
C30   H22   S    
C17   C45   S    
C41   O18   A    
O14   C42   A    
C23   C29   A    
C24   C30   A    
C40   H18   S    
C38   C40   A    
C28   H20   S    
O11   V4    S    
C17   C19   S    
C31   C39   A    
O11   C43   A    
C22   C36   A    
C15   C17   S    
C18   C20   S    
C21   C37   A    
O12   V3    S    
C24   C43   S    
O15   V3    S    
O13   C41   A    
C38   H14   S    
O6    V2    S    
C36   H12   S    
O18   V4    S    
C42   O17   A    
C25   H15   S    
C30   C32   A    
C35   H11   S    
C31   C33   A    
C11   C13   A    
O17   V3    S    
C32   C34   A    
C3    C8    S    
C37   C39   A    
C18   C46   S    
C20   H8    S    
O4    C2    A    
C45   H23   S    
O5    V1    S    
C32   C40   A    
O16   C44   A    
C17   H5    S    
C29   C31   A    
C16   C18   S    
O4    V2    S    
C19   H7    S    
C45   O21   D    
C23   C27   A    
O6    C4    A    
O1    V2    S    
C26   H16   S    
C46   O22   D    
O2    V1    S    
C14   C41   S    
C1    C22   S    
C8    C10   A    
C12   C14   A    
C2    C21   S    
C33   C35   A    
C10   C12   A    
C5    C15   A    
C10   H2    S    
O9    V2    S    
C6    C16   A    
O12   C44   A    
O3    V1    S    
C25   C33   A    
C39   H17   S    
C26   C34   A    
C9    C11   A    
C18   H6    S    
C29   H21   S    
O3    C1    A    
C11   H3    S    
C24   C28   A    
C12   H4    S    
O16   V4    S    
C9    H1    S    
C23   C44   S    
O7    V1    S    
C1    O8    A    
C13   C15   A    
O8    V2    S    
C37   H13   S    
C14   C16   A    
C13   C42   S    
C22   C38   A    
C4    C7    S    
C26   C28   A    
C5    C7    A    
C34   C36   A    
C6    C8    A    
C46   H24   S    
C19   H9    S    
C21   C35   A    
O20   V3    S    
C27   H19   S    
O19   V4    S    
O10   V1    S    
C5    C19   S    
C6    C20   S    
O15   C43   A    
