data_mof_unit_63466.cif
_audit_creation_date              2012-12-10T21:02:18-0500
_audit_creation_method            fapswitch 2.2
_symmetry_space_group_name_H-M    P1
_symmetry_Int_Tables_number       1
_space_group_crystal_system       triclinic
_cell_length_a                    15.065745
_cell_length_b                    15.855122
_cell_length_c                    16.730912
_cell_angle_alpha                 89.995566
_cell_angle_beta                  85.030565
_cell_angle_gamma                 90.00308
_cell_volume                      3981.47732178

loop_
_atom_site_label
_atom_site_type_symbol
_atom_type_description
_atom_site_fract_x
_atom_site_fract_y
_atom_site_fract_z
_atom_type_partial_charge
C1    C     C_R   0.500026 0.661120 0.499985 0.913059
C2    C     C_1   0.500506 0.824258 0.500376 0.010334
C3    C     C_1   0.500095 0.749454 0.500168 -0.147222
C4    C     C_1   0.499875 0.250564 0.500304 -0.143415
C5    C     C_R   0.040743 0.535778 0.563904 -0.143105
C6    C     C_R   0.959255 0.464140 0.436084 -0.143035
C7    C     C_R   0.094957 0.499964 0.499987 0.068683
C8    C     C_R   0.905043 0.499961 0.500001 0.068271
C9    C     C_R   0.053027 0.464139 0.436079 -0.139803
C10   C     C_R   0.946974 0.535779 0.563910 -0.140208
C11   C     C_1   0.192818 0.499992 0.499978 0.071005
C12   C     C_R   0.499973 0.338883 0.500057 0.907186
C13   C     C_1   0.807182 0.499970 0.500012 0.070214
C14   C     C_R   0.487688 0.495800 0.653588 0.877835
C15   C     C_R   0.512410 0.498992 0.346117 0.882100
C16   C     C_R   0.480071 0.467464 0.736500 -0.074273
C17   C     C_R   0.520644 0.485854 0.259778 -0.081451
C18   C     C_R   0.550020 0.420507 0.764069 -0.191480
C19   C     C_R   0.444751 0.490013 0.217461 -0.187620
C20   C     C_R   0.541893 0.386894 0.840559 -0.173691
C21   C     C_R   0.450017 0.467465 0.137348 -0.161102
C22   C     C_R   0.464833 0.402010 0.891540 0.134162
C23   C     C_R   0.418248 0.042894 0.500707 0.186760
C24   C     C_R   0.531122 0.439492 0.098571 0.132203
C25   C     C_R   0.392229 0.444914 0.862768 0.185489
C26   C     C_R   0.608257 0.437972 0.140133 0.177771
C27   C     C_R   0.400156 0.477123 0.784974 -0.205567
C28   C     C_R   0.602582 0.461079 0.220591 -0.206518
C29   C     C_2   0.467831 0.388658 0.977508 -0.202384
C30   C     C_2   0.536711 0.420804 0.012916 -0.183501
C31   C     C_R   0.581656 0.957140 0.500731 0.186624
C32   C     C_R   0.498841 0.086951 0.500732 0.058538
C33   C     C_R   0.501071 0.913079 0.500620 0.058730
C34   C     C_R   0.580061 0.044610 0.500785 -0.234235
C35   C     C_R   0.419842 0.955424 0.500650 -0.234781
C36   C     C_1   0.499442 0.175765 0.500529 0.010384
H1    H     H_    0.610934 0.409086 0.726304 0.171294
H2    H     H_    0.641944 0.079493 0.500806 0.179805
H3    H     H_    0.907144 0.563851 0.613997 0.147201
H4    H     H_    0.092860 0.436071 0.385991 0.147125
H5    H     H_    0.070948 0.563848 0.613989 0.146688
H6    H     H_    0.929048 0.436072 0.385999 0.148368
H7    H     H_    0.381058 0.509800 0.246444 0.171962
H8    H     H_    0.661721 0.457160 0.252887 0.182860
H9    H     H_    0.344779 0.511056 0.763029 0.177304
H10   H     H_    0.595194 0.443744 0.976852 0.184467
H11   H     H_    0.408369 0.367101 0.012907 0.184945
H12   H     H_    0.390692 0.473359 0.105615 0.171687
H13   H     H_    0.597682 0.352747 0.861587 0.166556
H14   H     H_    0.357962 0.920544 0.500575 0.179712
I1    I     I_    0.272682 0.470451 0.935438 -0.362433
I2    I     I_    0.734106 0.397748 0.086536 -0.343452
I3    I     I_    0.293288 0.104756 0.500658 -0.312800
I4    I     I_    0.706631 0.895302 0.500734 -0.314456
N1    N     N_1   0.729450 0.499980 0.500020 -0.082803
N2    N     N_1   0.270550 0.500020 0.499980 -0.081952
O1    O     O_R   0.426350 0.621980 0.500000 -0.611529
O2    O     O_R   0.573650 0.378020 0.500000 -0.615882
O3    O     O_R   0.573690 0.621980 0.499960 -0.590699
O4    O     O_R   0.426310 0.378020 0.500040 -0.592283
O5    O     O_R   0.417630 0.500010 0.615820 -0.610694
O6    O     O_R   0.582370 0.499990 0.384180 -0.614181
O7    O     O_R   0.564960 0.500010 0.615780 -0.615002
O8    O     O_R   0.435040 0.499990 0.384220 -0.614600
Zn1   Zn    Zn3+2 0.401630 0.500000 0.500020 1.000171
Zn2   Zn    Zn3+2 0.598370 0.500000 0.499980 0.996664

loop_
_geom_bond_atom_site_label_1
_geom_bond_atom_site_label_2
_ccdc_geom_bond_type
C19   C21   A    
C10   H3    S    
C15   O8    A    
C31   C33   A    
C7    C9    A    
C8    C13   S    
C22   C29   S    
C26   I2    S    
C4    C12   S    
C29   C30   D    
C5    C7    A    
C30   H10   S    
C26   C28   A    
C25   I1    S    
C20   C22   A    
C21   H12   S    
C12   O2    A    
C23   C32   A    
C27   H9    S    
C16   C27   A    
C4    C36   T    
C2    C3    T    
O7    Zn2   S    
C5    C10   A    
C31   I4    S    
O8    Zn1   S    
C7    C11   S    
C14   O5    A    
C20   H13   S    
C29   H11   S    
C14   O7    A    
C32   C36   S    
C2    C33   S    
C8    C10   A    
C17   C19   A    
C15   O6    A    
O2    Zn2   S    
O4    Zn1   S    
C23   I3    S    
C35   H14   S    
C1    O1    A    
C1    O3    A    
O3    Zn2   S    
C33   C35   A    
C23   C35   A    
C24   C30   S    
C31   C34   A    
C25   C27   A    
O6    Zn2   S    
N2    Zn1   S    
C12   O4    A    
O5    Zn1   S    
C6    C9    A    
C18   C20   A    
C16   C18   A    
C6    H6    S    
C21   C24   A    
O1    Zn1   S    
C15   C17   S    
C5    H5    S    
C18   H1    S    
C6    C8    A    
C1    C3    S    
C14   C16   S    
C34   H2    S    
C17   C28   A    
C28   H8    S    
C9    H4    S    
C11   N2    T    
C24   C26   A    
C19   H7    S    
N1    Zn2   S    
C13   N1    T    
C22   C25   A    
C32   C34   A    
