data_mof_unit_23682.cif
_audit_creation_date              2012-12-11T14:25:34-0500
_audit_creation_method            fapswitch 2.2
_symmetry_space_group_name_H-M    P1
_symmetry_Int_Tables_number       1
_space_group_crystal_system       triclinic
_cell_length_a                    6.945258
_cell_length_b                    14.657779
_cell_length_c                    16.26098
_cell_angle_alpha                 90.517322
_cell_angle_beta                  89.873564
_cell_angle_gamma                 89.867328
_cell_volume                      1655.32518964

loop_
_atom_site_label
_atom_site_type_symbol
_atom_type_description
_atom_site_fract_x
_atom_site_fract_y
_atom_site_fract_z
_atom_type_partial_charge
O1    O     O_R   0.494490 0.416160 0.413410 -0.543193
O2    O     O_R   0.823830 0.407240 0.585990 -0.541899
O3    O     O_R   0.994160 0.583840 0.586590 -0.538938
C1    C     C_R   0.654705 0.385902 0.614234 0.739942
O4    O     O_R   0.824200 0.405280 0.414020 -0.541215
O5    O     O_R   0.994530 0.581860 0.413390 -0.534949
C2    C     C_R   0.654885 0.382800 0.386017 0.764175
O6    O     O_R   0.494110 0.418140 0.586610 -0.542822
O7    O     O_3   0.660810 0.557940 0.500000 -0.371897
V1    V     V_3+5 0.935650 0.489250 0.500000 1.405867
O8    O     O_R   0.324250 0.592760 0.414010 -0.547066
C3    C     C_R   0.155630 0.614074 0.385450 0.758914
O9    O     O_R   0.323880 0.594720 0.585980 -0.547931
C4    C     C_R   0.153912 0.617820 0.613953 0.679070
V2    V     V_3+5 0.435660 0.510750 0.500000 1.387212
O10   O     O_3   0.160630 0.442060 0.500000 -0.371302
C5    C     C_3   0.941857 0.675889 0.731843 -0.331591
H1    H     H_    0.824112 0.697571 0.690611 0.131468
H2    H     H_    0.907173 0.603214 0.742043 0.122663
C6    C     C_3   0.935279 0.734007 0.813045 -0.100763
H3    H     H_    0.811980 0.781884 0.805321 0.097888
H4    H     H_    0.021736 0.894153 0.731077 0.140470
C7    C     C_3   0.175730 0.784921 0.661938 -0.118684
C8    C     C_3   0.298879 0.659689 0.749841 -0.369860
C9    C     C_3   0.140445 0.684217 0.686809 0.050140
H5    H     H_    0.443583 0.659530 0.720202 0.129369
H6    H     H_    0.268641 0.588123 0.767026 0.128052
C10   C     C_3   0.124685 0.793640 0.820571 0.035817
C11   C     C_3   0.147735 0.848136 0.738441 -0.378216
C12   C     C_3   0.305524 0.726287 0.826498 -0.102392
H7    H     H_    0.436478 0.769199 0.819588 0.105821
H8    H     H_    0.331449 0.789518 0.645475 0.104540
H9    H     H_    0.274843 0.894166 0.742766 0.131495
C13   C     C_2   0.985135 0.712347 0.284737 -0.132011
C14   C     C_2   0.150655 0.680624 0.317433 -0.322892
H10   H     H_    0.848837 0.687922 0.308762 0.139844
H11   H     H_    0.288817 0.703726 0.294947 0.121252
C15   C     C_2   0.972595 0.780075 0.216817 -0.154498
C16   C     C_2   0.125337 0.819276 0.180252 -0.340705
H12   H     H_    0.828866 0.797739 0.196198 0.129556
H13   H     H_    0.270097 0.804521 0.200851 0.125593
C17   C     C_2   0.780341 0.208401 0.781317 -0.134418
C18   C     C_2   0.614770 0.176686 0.813637 -0.314533
H14   H     H_    0.916708 0.182835 0.804317 0.138314
H15   H     H_    0.476468 0.200211 0.791725 0.126955
C19   C     C_2   0.792073 0.276909 0.714388 -0.139680
C20   C     C_2   0.638745 0.318997 0.681093 -0.312372
H16   H     H_    0.935398 0.293071 0.692072 0.135030
H17   H     H_    0.494337 0.305022 0.702597 0.127683
C21   C     C_2   0.779843 0.195574 0.223090 0.319750
C22   C     C_2   0.619384 0.179052 0.177008 -0.339625
H18   H     H_    0.489812 0.218937 0.186919 0.089077
C23   C     C_2   0.790532 0.270425 0.286309 -0.212783
C24   C     C_2   0.637514 0.312503 0.320506 -0.352214
H19   H     H_    0.933184 0.288407 0.308335 0.142589
H20   H     H_    0.492743 0.293713 0.302460 0.130548
O11   O     O_R   0.770850 0.076180 0.907410 -0.536320
O12   O     O_R   0.440600 0.088970 0.079950 -0.546523
O13   O     O_R   0.270430 0.912340 0.080550 -0.546431
C25   C     C_R   0.609610 0.109945 0.109489 0.766882
O14   O     O_R   0.441120 0.087010 0.907980 -0.544289
O15   O     O_R   0.270950 0.910370 0.907350 -0.542524
C26   C     C_R   0.609784 0.108782 0.880041 0.741545
O16   O     O_R   0.770320 0.078150 0.080620 -0.506830
O17   O     O_3   0.604200 0.936340 0.994000 -0.390971
V3    V     V_3+5 0.329300 0.004970 0.993950 1.394785
O18   O     O_R   0.941240 0.899420 0.907920 -0.553424
C27   C     C_R   0.111829 0.869029 0.886865 0.642263
O19   O     O_R   0.940720 0.901380 0.079890 -0.541493
C28   C     C_R   0.109341 0.882773 0.110358 0.746363
V4    V     V_3+5 0.829310 0.983370 0.993880 1.397848
O20   O     O_3   0.104280 0.052120 0.993920 -0.357180
N1    N     N_2   0.949306 0.141793 0.211223 -0.483561
H21   H     H_    0.075257 0.178405 0.217254 0.236585
C29   C     C_3   0.953021 0.059081 0.259118 -0.513375
H22   H     H_    0.086651 0.020229 0.245049 0.179529
H23   H     H_    0.827587 0.015252 0.243761 0.187526
H24   H     H_    0.950884 0.075822 0.325932 0.178763
C30   C     C_R   0.890846 0.677245 0.890253 0.070466
C31   C     C_R   0.792942 0.718681 0.956708 -0.151695
C32   C     C_R   0.775828 0.675062 0.032354 -0.079866
C33   C     C_R   0.845189 0.586516 0.041797 -0.090608
C34   C     C_R   0.926715 0.540681 0.974746 -0.112569
C35   C     C_R   0.950513 0.585356 0.899784 -0.083856
H25   H     H_    0.726920 0.784509 0.950163 0.151690
H26   H     H_    0.703149 0.709014 0.082941 0.103992
H27   H     H_    0.830214 0.552468 0.100234 0.100790
H28   H     H_    0.977287 0.471263 0.981535 0.105864
H29   H     H_    0.025314 0.548317 0.851955 0.096519
C36   C     C_R   0.063320 0.816925 0.586613 0.103598
C37   C     C_R   0.866403 0.840911 0.590387 -0.110399
C38   C     C_R   0.771133 0.873047 0.520713 -0.127888
C39   C     C_R   0.870532 0.882822 0.446665 -0.094193
C40   C     C_R   0.065594 0.860437 0.442122 -0.104437
C41   C     C_R   0.160940 0.826812 0.511151 -0.158966
H30   H     H_    0.786090 0.837585 0.647237 0.086085
H31   H     H_    0.620602 0.891801 0.524551 0.100220
H32   H     H_    0.796805 0.908343 0.392960 0.100216
H33   H     H_    0.143202 0.869028 0.384931 0.120866
H34   H     H_    0.311725 0.808918 0.505602 0.090827
C42   C     C_R   0.341228 0.670608 0.906022 0.086301
C43   C     C_R   0.278403 0.699299 0.984706 -0.080786
C44   C     C_R   0.296847 0.642495 0.053101 -0.129001
C45   C     C_R   0.377325 0.555916 0.044801 -0.113883
C46   C     C_R   0.450767 0.527905 0.969097 -0.098910
C47   C     C_R   0.442599 0.586309 0.901862 -0.111770
H35   H     H_    0.207122 0.762987 0.994219 0.091854
H36   H     H_    0.242451 0.663892 0.112350 0.127060
H37   H     H_    0.387062 0.511514 0.097452 0.099462
H38   H     H_    0.520705 0.462100 0.963120 0.105008
H39   H     H_    0.514878 0.563865 0.846274 0.098206

loop_
_geom_bond_atom_site_label_1
_geom_bond_atom_site_label_2
_ccdc_geom_bond_type
C46   H38   S    
C39   C40   A    
H4    C11   S    
N1    H21   S    
C8    H6    S    
C1    O6    A    
C32   C33   A    
C18   C26   S    
C36   C41   A    
C20   H17   S    
C23   C24   D    
C42   C43   A    
C7    C11   S    
C10   C11   S    
C14   H11   S    
C8    H5    S    
O13   V3    S    
O5    C3    A    
C30   C35   A    
O12   C25   A    
C33   H27   S    
C11   H9    S    
C5    C6    S    
O19   V4    S    
C13   C14   D    
C17   C19   S    
O16   V4    S    
O14   C26   A    
C37   H30   S    
O8    V2    S    
O14   V3    S    
O12   V3    S    
V3    O20   S    
C44   H36   S    
O1    V2    S    
O7    V1    S    
O18   V4    S    
C32   H26   S    
C34   H28   S    
C13   C15   S    
O9    C4    A    
N1    C29   S    
C43   C44   A    
C17   H14   S    
C45   C46   A    
C38   H31   S    
O11   C26   A    
C19   H16   S    
C47   H39   S    
C23   H19   S    
C15   C16   D    
C24   H20   S    
C21   C23   S    
O15   V3    S    
C22   H18   S    
C8    C9    S    
C16   H13   S    
C21   N1    S    
C37   C38   A    
O4    C2    A    
C41   H34   S    
C6    C10   S    
C21   C22   D    
O17   V4    S    
O18   C27   A    
O2    C1    A    
C29   H22   S    
C31   H25   S    
C18   H15   S    
C34   C35   A    
C5    H1    S    
C7    C36   S    
C43   H35   S    
O11   V4    S    
C3    C14   S    
C29   H23   S    
O3    C4    A    
O17   V3    S    
O6    V2    S    
O9    V2    S    
C35   H29   S    
O2    V1    S    
C42   C47   A    
C19   C20   D    
C6    C30   S    
C10   C27   S    
O1    C2    A    
C31   C32   A    
O5    V1    S    
O8    C3    A    
C46   C47   A    
O15   C27   A    
C25   O16   A    
C5    C9    S    
C7    H8    S    
C10   C12   S    
O7    V2    S    
V4    O20   S    
O3    V1    S    
V1    O10   S    
C15   H12   S    
C36   C37   A    
C12   H7    S    
C40   H33   S    
C12   C42   S    
C38   C39   A    
C5    H2    S    
C16   C28   S    
C13   H10   S    
C7    C9    S    
C4    C9    S    
O19   C28   A    
C29   H24   S    
C8    C12   S    
O13   C28   A    
C30   C31   A    
O4    V1    S    
C6    H3    S    
C33   C34   A    
C17   C18   D    
C44   C45   A    
C45   H37   S    
C22   C25   S    
C2    C24   S    
C39   H32   S    
C40   C41   A    
V2    O10   S    
C1    C20   S    
