data_mof_unit_5108.cif
_audit_creation_date              2013-03-05T15:48:16-0500
_audit_creation_method            fapswitch 2.2
_symmetry_space_group_name_H-M    P1
_symmetry_Int_Tables_number       1
_space_group_crystal_system       triclinic
_cell_length_a                    11.788414
_cell_length_b                    12.956722
_cell_length_c                    16.104135
_cell_angle_alpha                 97.763222
_cell_angle_beta                  75.669208
_cell_angle_gamma                 99.89263
_cell_volume                      2336.69406482

loop_
_atom_site_label
_atom_site_type_symbol
_atom_site_description
_atom_site_fract_x
_atom_site_fract_y
_atom_site_fract_z
_atom_type_partial_charge
O1    O     O_R   0.419950 0.645670 0.495380 -0.533477
O2    O     O_R   0.580050 0.354330 0.504620 -0.534820
O3    O     O_R   0.611110 0.658410 0.506370 -0.515793
O4    O     O_R   0.388890 0.341590 0.493630 -0.513342
C1    C     C_R   0.525224 0.698838 0.489601 0.866039
C2    C     C_R   0.474858 0.300978 0.509935 0.864568
O5    O     O_R   0.350820 0.490050 0.621260 -0.554112
O6    O     O_R   0.649180 0.509950 0.378740 -0.554432
O7    O     O_R   0.541970 0.502800 0.632250 -0.524327
O8    O     O_R   0.458030 0.497200 0.367750 -0.525220
C3    C     C_R   0.429220 0.492420 0.667272 0.873818
C4    C     C_R   0.570691 0.507255 0.332691 0.874297
Cu1   Cu    Cu3+1 0.386820 0.492450 0.493500 1.166045
Cu2   Cu    Cu3+1 0.613180 0.507550 0.506500 1.166271
C5    C     C_R   0.391393 0.474615 0.760273 -0.197454
C6    C     C_R   0.608238 0.524773 0.239662 -0.221187
C7    C     C_R   0.238082 0.405435 0.880301 0.374957
C8    C     C_R   0.761488 0.594232 0.119771 0.418155
C9    C     C_R   0.277433 0.424099 0.793251 -0.185865
C10   C     C_R   0.722429 0.574605 0.206552 -0.156229
C11   C     C_R   0.471832 0.499654 0.814599 0.325750
C12   C     C_R   0.527428 0.500372 0.185521 0.305841
C13   C     C_R   0.437143 0.475312 0.901239 -0.070059
C14   C     C_R   0.562096 0.525035 0.098936 -0.072698
C15   C     C_R   0.315052 0.442263 0.937380 -0.131686
C16   C     C_R   0.684176 0.558409 0.062783 -0.142750
C17   C     C_R   0.519772 0.492842 0.955396 0.052859
C18   C     C_R   0.479433 0.507665 0.044794 0.048750
C19   C     C_R   0.357605 0.505509 0.077118 -0.129489
C20   C     C_R   0.641642 0.495440 0.923052 -0.139476
C21   C     C_R   0.276639 0.458194 0.028524 0.347503
C22   C     C_R   0.722375 0.543344 0.971616 0.360814
H1    H     H_    0.781545 0.599360 0.249411 0.269092
H2    H     H_    0.218909 0.398171 0.750094 0.242972
H3    H     H_    0.323222 0.539836 0.140918 0.221309
H4    H     H_    0.676247 0.461470 0.859182 0.221846
C23   C     C_R   0.459264 0.188447 0.524887 -0.256269
C24   C     C_R   0.540739 0.811004 0.473453 -0.254501
C25   C     C_R   0.657812 0.982389 0.479177 -0.155143
C26   C     C_R   0.342459 0.017028 0.517328 -0.163460
C27   C     C_R   0.652578 0.873848 0.459221 0.337651
C28   C     C_R   0.347405 0.125474 0.537624 0.338949
C29   C     C_R   0.439554 0.858729 0.477309 0.306281
C30   C     C_R   0.560448 0.140578 0.520785 0.306820
C31   C     C_R   0.445203 0.968686 0.496424 -0.065277
C32   C     C_R   0.554974 0.030721 0.500879 -0.063795
H5    H     H_    0.744106 0.028742 0.470224 0.242614
H6    H     H_    0.256229 0.970663 0.525224 0.243487
N1    N     N_R   0.216750 0.481110 0.483710 -0.295972
N2    N     N_R   0.783250 0.518890 0.516290 -0.281426
C33   C     C_R   0.942447 0.594768 0.587414 -0.207050
C34   C     C_R   0.057820 0.405286 0.412319 -0.171096
C35   C     C_R   0.827868 0.593100 0.576186 0.502691
C36   C     C_R   0.172514 0.407291 0.423476 0.566340
C37   C     C_R   0.861785 0.462514 0.457472 0.515706
C38   C     C_R   0.138020 0.537055 0.542695 0.502665
C39   C     C_R   0.980146 0.467556 0.466569 -0.143376
C40   C     C_R   0.019729 0.531974 0.533513 -0.114355
H7    H     H_    0.975638 0.652609 0.633893 0.227398
H8    H     H_    0.025383 0.347968 0.365121 0.248002
N3    N     N_R   0.156275 0.437052 0.074393 0.177367
O9    O     O_R   0.101480 0.516349 0.110157 -0.244298
O10   O     O_R   0.121295 0.348043 0.108224 -0.196953
N4    N     N_R   0.842309 0.566716 0.925605 0.175694
O11   O     O_R   0.898575 0.489008 0.887799 -0.288507
O12   O     O_R   0.876226 0.657587 0.894712 -0.234784
S1    S     S_3+6 0.234663 0.291896 0.370738 0.116792
O13   O     O_2   0.366912 0.304146 0.344126 -0.235099
O14   O     O_2   0.191543 0.206039 0.429705 -0.243039
O15   O     O_3   0.182923 0.251891 0.281377 -0.449999
H9    H     H_    0.204914 0.180548 0.262550 0.404724
S2    S     S_3+6 0.766906 0.709963 0.626767 0.144593
O16   O     O_2   0.804549 0.791309 0.563708 -0.191538
O17   O     O_2   0.634927 0.696824 0.656847 -0.215625
O18   O     O_3   0.824353 0.760088 0.712158 -0.422866
H10   H     H_    0.816115 0.700565 0.746739 0.395134
N5    N     N_R   0.418419 0.432801 0.212683 0.148324
O19   O     O_R   0.327605 0.472166 0.261978 -0.322794
O20   O     O_R   0.402557 0.339214 0.172449 -0.267539
N6    N     N_R   0.580411 0.567622 0.787491 0.126871
O21   O     O_R   0.595581 0.661341 0.827645 -0.282642
O22   O     O_R   0.671399 0.528655 0.738042 -0.376088
S3    S     S_3+6 0.101128 0.321561 0.908946 0.148449
O23   O     O_2   0.119473 0.232247 0.952452 -0.161002
O24   O     O_2   0.009110 0.380172 0.969034 -0.177549
O25   O     O_3   0.049983 0.270163 0.821196 -0.413702
H11   H     H_    0.012738 0.326163 0.806646 0.389192
S4    S     S_3+6 0.898830 0.677795 0.091819 0.135750
O26   O     O_2   0.989372 0.620135 0.029172 -0.170361
O27   O     O_2   0.879936 0.770288 0.052308 -0.198639
O28   O     O_3   0.951758 0.722674 0.179928 -0.437416
H12   H     H_    0.023960 0.772566 0.159388 0.401649
N7    N     N_R   0.659227 0.200687 0.551603 0.155848
O29   O     O_R   0.640588 0.252367 0.627698 -0.302185
O30   O     O_R   0.765901 0.209493 0.503286 -0.308017
N8    N     N_R   0.340127 0.798093 0.447668 0.151611
O31   O     O_R   0.357642 0.745708 0.371842 -0.308756
O32   O     O_R   0.234132 0.789092 0.497039 -0.304959
S5    S     S_3+6 0.219780 0.168369 0.610059 0.090339
O33   O     O_2   0.205135 0.279399 0.603268 -0.237723
O34   O     O_2   0.109888 0.097093 0.595854 -0.180289
O35   O     O_3   0.233541 0.160552 0.710364 -0.470367
H13   H     H_    0.222857 0.084113 0.716405 0.381431
S6    S     S_3+6 0.778752 0.830202 0.385505 0.085071
O36   O     O_2   0.889555 0.901271 0.398012 -0.194485
O37   O     O_2   0.792948 0.719218 0.392854 -0.225028
O38   O     O_3   0.762824 0.836953 0.285583 -0.483047
H14   H     H_    0.765801 0.912897 0.281042 0.371215
N9    N     N_R   0.167544 0.585880 0.621470 0.134277
O39   O     O_R   0.236461 0.675392 0.623600 -0.282150
O40   O     O_R   0.111017 0.548264 0.693732 -0.321621
N10   N     N_R   0.832061 0.413414 0.378840 0.129948
O41   O     O_R   0.763867 0.323494 0.376855 -0.289444
O42   O     O_R   0.888094 0.451081 0.306501 -0.291123

loop_
_geom_bond_atom_site_label_1
_geom_bond_atom_site_label_2
_geom_bond_distance
_ccdc_geom_bond_type
C15   C21   1.422429 A    
C16   C22   1.421922 A    
N7    O29   1.301516 A    
C37   N10   1.434023 S    
C21   N3    1.426966 S    
C8    C16   1.428961 A    
O7    Cu2   1.995957 S    
S6    O37   1.499434 D    
C25   C27   1.393838 A    
N5    O19   1.301522 A    
C5    C9    1.397773 A    
O1    C1    1.299896 A    
C18   C19   1.397984 A    
C14   C16   1.427052 A    
N9    O40   1.301378 A    
N1    C36   1.398578 A    
O4    Cu1   1.959280 S    
C23   C28   1.410047 A    
N3    O10   1.300774 A    
N10   O41   1.298277 A    
C30   N7    1.441825 S    
C34   H8    1.081335 S    
O35   H13   0.991629 S    
C3    C5    1.490823 S    
S5    O33   1.499501 D    
C30   C32   1.410089 A    
N8    O32   1.300083 A    
O6    Cu2   1.998683 S    
O38   H14   0.990514 S    
O15   H9    0.990612 S    
C13   C17   1.432499 A    
C6    C10   1.397256 A    
C26   C28   1.393469 A    
N7    O30   1.300038 A    
C1    C24   1.483382 S    
C17   C20   1.397890 A    
O2    C2    1.300691 A    
S2    O18   1.685243 S    
N10   O42   1.301347 A    
S6    O36   1.503823 D    
C34   C36   1.402847 A    
N5    O20   1.301902 A    
C26   C31   1.405173 A    
N2    C35   1.399426 A    
S1    O13   1.497318 D    
C4    C6    1.490292 S    
C22   N4    1.426379 S    
C24   C27   1.409140 A    
S2    O17   1.497471 D    
O28   H12   0.990501 S    
O25   H11   0.990179 S    
S2    O16   1.498144 D    
C36   S1    1.794106 S    
C31   C32   1.413754 A    
C9    H2    1.080049 S    
C8    S4    1.778973 S    
C33   C35   1.402638 A    
N4    O12   1.300631 A    
O5    C3    1.314261 A    
O18   H10   0.988870 S    
C29   C31   1.409958 A    
S3    O23   1.502278 D    
S4    O28   1.682690 S    
C5    C11   1.413545 A    
O6    C4    1.314848 A    
N8    O31   1.301491 A    
S5    O35   1.680900 S    
C29   N8    1.441561 S    
C2    C23   1.482726 S    
C33   C40   1.384849 A    
O7    C3    1.300300 A    
O3    Cu2   1.959281 S    
O8    C4    1.299539 A    
C25   C32   1.405680 A    
Cu1   N1    2.028519 S    
C10   H1    1.080000 S    
N6    O22   1.301601 A    
S3    O24   1.501539 D    
S4    O27   1.502843 D    
C37   C39   1.428235 A    
C12   C14   1.416619 A    
O4    C2    1.313455 A    
C33   H7    1.080594 S    
C38   N9    1.434155 S    
C25   H5    1.075721 S    
S1    O14   1.499924 D    
C26   H6    1.075722 S    
C6    C12   1.414518 A    
S5    O34   1.503969 D    
C14   C18   1.432721 A    
C12   N5    1.431016 S    
N6    O21   1.301978 A    
O3    C1    1.314596 A    
O8    Cu1   1.995957 S    
N1    C38   1.377616 A    
C19   H3    1.072416 S    
N2    C37   1.378119 A    
C27   S6    1.781837 S    
C20   H4    1.072273 S    
S1    O15   1.684038 S    
C7    C15   1.428839 A    
N4    O11   1.299346 A    
C23   C30   1.419838 A    
C11   C13   1.416193 A    
C24   C29   1.419658 A    
C19   C21   1.392230 A    
C28   S5    1.782265 S    
C20   C22   1.391769 A    
C39   C40   1.395972 A    
Cu2   N2    2.028518 S    
C11   N6    1.429816 S    
C7    C9    1.403566 A    
C38   C40   1.427807 A    
C8    C10   1.402497 A    
C13   C15   1.426339 A    
N3    O9    1.299449 A    
O2    Cu2   1.953915 S    
C34   C39   1.385648 A    
O5    Cu1   1.998681 S    
S3    O25   1.683317 S    
O1    Cu1   1.953916 S    
S4    O26   1.500827 D    
N9    O39   1.298302 A    
C17   C18   1.397665 A    
C7    S3    1.778822 S    
Cu1   Cu2   2.699761 S    
C35   S2    1.795422 S    
S6    O38   1.680939 S    
