data_mof_unit_38150.cif
_audit_creation_date              2013-03-05T16:44:16-0500
_audit_creation_method            fapswitch 2.2
_symmetry_space_group_name_H-M    P1
_symmetry_Int_Tables_number       1
_space_group_crystal_system       triclinic
_cell_length_a                    23.393082
_cell_length_b                    10.661255
_cell_length_c                    9.895424
_cell_angle_alpha                 89.79027
_cell_angle_beta                  87.819848
_cell_angle_gamma                 91.748354
_cell_volume                      2464.95174363

loop_
_atom_site_label
_atom_site_type_symbol
_atom_site_description
_atom_site_fract_x
_atom_site_fract_y
_atom_site_fract_z
_atom_type_partial_charge
O1    O     O_R   0.500010 0.316790 0.614690 -0.623269
O2    O     O_R   0.500000 0.316760 0.385350 -0.531343
C1    C     C_R   0.504040 0.260095 0.499744 0.987140
O3    O     O_R   0.416160 0.499980 0.614700 -0.620646
O4    O     O_R   0.416150 0.499940 0.385360 -0.573309
C2    C     C_R   0.389568 0.504809 0.501995 1.032992
Zn1   Zn    Zn3+2 0.500000 0.500020 0.653130 0.974982
Zn2   Zn    Zn3+2 0.500000 0.499980 0.346870 1.058611
O5    O     O_R   0.500000 0.683240 0.614650 -0.624436
O6    O     O_R   0.499990 0.683210 0.385310 -0.632857
O7    O     O_R   0.583850 0.500060 0.614640 -0.647668
O8    O     O_R   0.583840 0.500020 0.385300 -0.577417
C3    C     C_R   0.504488 0.739878 0.499669 0.876057
C4    C     C_R   0.610784 0.499157 0.497867 0.883004
C5    C     C_R   0.880854 0.639121 0.518235 0.483038
N1    N     N_R   0.853994 0.531022 0.476016 -0.350444
C6    C     C_R   0.884199 0.430681 0.430132 0.549476
C7    C     C_R   0.943863 0.438492 0.420117 -0.026660
C8    C     C_R   0.972211 0.547673 0.466219 -0.019586
C9    C     C_R   0.940612 0.648688 0.516856 -0.014739
C10   C     C_R   0.975659 0.339506 0.366583 -0.155723
C11   C     C_R   0.035153 0.348182 0.360450 -0.156860
C12   C     C_R   0.063797 0.454659 0.410838 -0.021731
C13   C     C_R   0.032318 0.554790 0.463998 -0.020711
C14   C     C_R   0.060769 0.660887 0.517248 -0.035762
C15   C     C_R   0.028934 0.761574 0.566662 -0.158958
C16   C     C_R   0.969362 0.756026 0.565266 -0.152348
C17   C     C_R   0.123342 0.462088 0.413308 0.532200
N2    N     N_R   0.150133 0.561942 0.473595 -0.319129
C18   C     C_R   0.120407 0.661347 0.523373 0.547908
O9    O     O_2   0.849757 0.737059 0.560634 -0.553764
O10   O     O_2   0.856470 0.323304 0.395560 -0.542403
H1    H     H_    0.954731 0.255146 0.329390 0.194660
H2    H     H_    0.058557 0.270062 0.319200 0.195174
O11   O     O_2   0.154464 0.369285 0.358256 -0.569273
O12   O     O_2   0.148399 0.758455 0.581332 -0.547349
H3    H     H_    0.049880 0.844461 0.607220 0.194733
H4    H     H_    0.945950 0.834990 0.604420 0.195363
C19   C     C_R   0.248134 0.638602 0.418105 0.170241
C20   C     C_R   0.307448 0.625853 0.428561 0.056612
C21   C     C_R   0.328001 0.525508 0.504687 -0.236570
C22   C     C_R   0.289948 0.444793 0.579527 0.157316
C23   C     C_R   0.230885 0.463937 0.577232 0.128569
C24   C     C_R   0.210375 0.557110 0.492067 0.179977
C25   C     C_R   0.762930 0.501091 0.361182 0.263263
C26   C     C_R   0.703572 0.485684 0.369975 -0.265673
H5    H     H_    0.681214 0.463249 0.279764 0.190136
C27   C     C_R   0.673383 0.501389 0.493269 -0.053494
C28   C     C_R   0.703441 0.522985 0.611294 -0.218463
H6    H     H_    0.681197 0.534005 0.708291 0.160766
C29   C     C_R   0.762830 0.531607 0.604952 -0.142131
H7    H     H_    0.785694 0.546510 0.696953 0.160622
C30   C     C_R   0.792816 0.522411 0.480295 0.283402
C31   C     C_R   0.516331 0.062680 0.620792 -0.027405
C32   C     C_R   0.518324 0.129943 0.499205 -0.195346
C33   C     C_R   0.535860 0.066876 0.379024 0.339951
C34   C     C_R   0.532346 0.935880 0.379321 -0.284250
H8    H     H_    0.538558 0.885782 0.285425 0.191908
C35   C     C_R   0.518569 0.871106 0.500243 -0.122800
C36   C     C_R   0.520777 0.935493 0.622092 0.080427
C37   C     C_3   0.486305 0.919914 0.751764 -0.464993
C38   C     C_3   0.477903 0.060633 0.746261 0.152966
H9    H     H_    0.446458 0.861563 0.741571 0.224234
H10   H     H_    0.513146 0.891313 0.836263 0.196152
H11   H     H_    0.495621 0.113814 0.832419 0.171176
C39   C     C_R   0.449812 0.503587 0.075268 0.022970
N3    N     N_R   0.499610 0.499140 0.142800 -0.104157
C40   C     C_R   0.549857 0.512344 0.065572 0.307397
C41   C     C_R   0.549569 0.508961 0.922390 -0.148458
H12   H     H_    0.589611 0.515946 0.864448 0.144690
N4    N     N_R   0.499610 0.499180 0.857150 -0.098483
C42   C     C_R   0.450013 0.506004 0.933049 0.062291
C43   C     C_3   0.399645 0.418552 0.926214 -0.446966
C44   C     C_3   0.399819 0.411132 0.080805 0.404890
H13   H     H_    0.362703 0.467916 0.886130 0.203110
H14   H     H_    0.410396 0.331062 0.872295 0.274321
N5    N     N_R   0.556879 0.132093 0.258701 0.242405
O13   O     O_R   0.593316 0.226036 0.268527 -0.402287
O14   O     O_R   0.550500 0.081238 0.140638 -0.367970
N6    N     N_R   0.418236 0.086369 0.720779 0.250782
O15   O     O_R   0.383738 0.108308 0.823493 -0.314127
O16   O     O_R   0.396349 0.049478 0.608123 -0.355184
N7    N     N_2   0.602862 0.533437 0.126679 -0.266295
H15   H     H_    0.635475 0.484864 0.079725 0.209236
C45   C     C_3   0.618376 0.665093 0.139764 -0.768105
H16   H     H_    0.624490 0.709871 0.038311 0.225046
H17   H     H_    0.658968 0.675628 0.193714 0.238248
H18   H     H_    0.584628 0.713712 0.198912 0.260276
N8    N     N_2   0.348920 0.461885 0.147365 -0.300470
H19   H     H_    0.344972 0.557065 0.133448 0.198165
C46   C     C_3   0.295296 0.393118 0.130287 -0.627423
H20   H     H_    0.262879 0.426290 0.205687 0.249066
H21   H     H_    0.299933 0.290899 0.146059 0.292842
H22   H     H_    0.279537 0.409627 0.027536 0.228881
N9    N     N_R   0.414883 0.288168 0.134574 0.248046
O17   O     O_R   0.453726 0.222580 0.072393 -0.362198
O18   O     O_R   0.394418 0.249866 0.252252 -0.328970
N10   N     N_2   0.225684 0.733447 0.335070 -0.269450
H23   H     H_    0.247668 0.818651 0.335809 0.255850
C47   C     C_3   0.211949 0.693110 0.200383 -0.765166
H24   H     H_    0.190832 0.770027 0.147426 0.258835
H25   H     H_    0.182129 0.610091 0.204657 0.254696
H26   H     H_    0.251479 0.669440 0.141522 0.225355
N11   N     N_2   0.346897 0.711818 0.361221 -0.319782
H27   H     H_    0.335138 0.741393 0.267318 0.230419
C48   C     C_3   0.365779 0.814628 0.444866 -0.615432
H28   H     H_    0.329329 0.875090 0.472417 0.266775
H29   H     H_    0.399142 0.872138 0.388379 0.257095
H30   H     H_    0.384259 0.778759 0.538701 0.221540
N12   N     N_R   0.310978 0.336703 0.645758 0.211081
O19   O     O_R   0.342918 0.260354 0.577092 -0.298072
O20   O     O_R   0.294151 0.307415 0.768945 -0.400123
N13   N     N_2   0.190869 0.383118 0.650038 -0.270014
H31   H     H_    0.201699 0.290348 0.655905 0.294002
C49   C     C_3   0.169110 0.433401 0.776763 -0.704374
H32   H     H_    0.136435 0.366987 0.822955 0.241185
H33   H     H_    0.148616 0.524418 0.760082 0.243645
H34   H     H_    0.204321 0.447223 0.847923 0.251824
N14   N     N_2   0.792391 0.493947 0.232951 -0.285055
H35   H     H_    0.771547 0.438573 0.163833 0.237890
C50   C     C_3   0.810974 0.614172 0.175960 -0.762369
H36   H     H_    0.835365 0.599493 0.079142 0.245762
H37   H     H_    0.839407 0.665626 0.245467 0.259750
H38   H     H_    0.773336 0.671646 0.155866 0.237013

loop_
_geom_bond_atom_site_label_1
_geom_bond_atom_site_label_2
_geom_bond_distance
_ccdc_geom_bond_type
C32   C33   1.421342 A    
C7    C10   1.403422 A    
C21   C22   1.407053 A    
C31   C32   1.396909 A    
C8    C9    1.407708 A    
N11   C48   1.444475 S    
C31   C36   1.363170 A    
N5    O13   1.301546 A    
Zn1   O7    1.983858 S    
C15   C16   1.393620 A    
C44   N8    1.458267 S    
C38   N6    1.461771 S    
C17   N2    1.369082 A    
Zn1   N4    2.018524 S    
O4    C2    1.291996 A    
O7    C4    1.295139 A    
C34   C35   1.401283 A    
C10   H1    1.083184 S    
C48   H28   1.110866 S    
C16   H4    1.083124 S    
C49   H32   1.110213 S    
C39   C44   1.505544 S    
C33   C34   1.396485 A    
C41   N4    1.357921 A    
C7    C8    1.408041 A    
C43   C44   1.531659 S    
C37   H9    1.112789 S    
O5    C3    1.285380 A    
N1    C30   1.430293 S    
C50   H38   1.111542 S    
N12   O19   1.298090 A    
C1    C32   1.437112 S    
C39   C42   1.407282 A    
N9    O17   1.301000 A    
C17   O11   1.350354 S    
N1    C6    1.369340 A    
C28   C29   1.388543 A    
C2    C21   1.462942 S    
C12   C13   1.407546 A    
N8    C46   1.449350 S    
C42   C43   1.483784 S    
C25   N14   1.424175 S    
N5    O14   1.301564 A    
C39   N3    1.366833 A    
C25   C30   1.408787 A    
C35   C36   1.391518 A    
C10   C11   1.390997 A    
C43   H13   1.110599 S    
C37   C38   1.520047 S    
O3    Zn1   2.011942 S    
N11   H27   1.030115 S    
C45   H17   1.109847 S    
C5    C9    1.398081 A    
C11   H2    1.083199 S    
C26   C27   1.399456 A    
N3    C40   1.380676 A    
C13   C14   1.408963 A    
N6    O16   1.301501 A    
C19   C20   1.405966 A    
C40   C41   1.417700 A    
C19   N10   1.425675 S    
C4    C27   1.462802 S    
C31   C38   1.504584 S    
C49   H33   1.109917 S    
C14   C15   1.403890 A    
C45   H16   1.112479 S    
C46   H21   1.109506 S    
C47   H26   1.110139 S    
C33   N5    1.439226 S    
C29   H7    1.083067 S    
C36   C37   1.495304 S    
O1    C1    1.291649 A    
C37   H10   1.111814 S    
C23   C24   1.407437 A    
N2    C18   1.368231 A    
C20   N11   1.425749 S    
N7    H15   1.031990 S    
Zn2   O8    2.011940 S    
C49   H34   1.110626 S    
C47   H25   1.109774 S    
C6    C7    1.395384 A    
C12   C17   1.393923 A    
C50   H36   1.110352 S    
N14   C50   1.446359 S    
O3    C2    1.299130 A    
C20   C21   1.412861 A    
N7    C45   1.446534 S    
O8    C4    1.300709 A    
C28   H6    1.082764 S    
N10   C47   1.446672 S    
N2    C24   1.430370 S    
C43   H14   1.107116 S    
C22   C23   1.403826 A    
C46   H20   1.109981 S    
N13   H31   1.030417 S    
C45   H18   1.107499 S    
C14   C18   1.398602 A    
Zn1   O5    1.988755 S    
C26   H5    1.075669 S    
C27   C28   1.402148 A    
C38   H11   1.111851 S    
O1    Zn1   1.991523 S    
C40   N7    1.412330 S    
C44   N9    1.470794 S    
O2    Zn2   1.988753 S    
N6    O15   1.299960 A    
O6    C3    1.291061 A    
O4    Zn2   1.983858 S    
N14   H35   1.031905 S    
N9    O18   1.301574 A    
C15   H3    1.083143 S    
C5    O9    1.349730 S    
C19   C24   1.403575 A    
C3    C35   1.427577 S    
C9    C16   1.404598 A    
C18   O12   1.349483 S    
O2    C1    1.289142 A    
C22   N12   1.432875 S    
N4    C42   1.361896 A    
C23   N13   1.425719 S    
C46   H22   1.109890 S    
C34   H8    1.080644 S    
C48   H29   1.110230 S    
C47   H24   1.110112 S    
C8    C13   1.405170 A    
C41   H12   1.079952 S    
N12   O20   1.300603 A    
C50   H37   1.109814 S    
C25   C26   1.392638 A    
Zn2   N3    2.019778 S    
Zn2   O6    1.991524 S    
N10   H23   1.030306 S    
C6    O10   1.350088 S    
C11   C12   1.403348 A    
C29   C30   1.400898 A    
N8    H19   1.030948 S    
C5    N1    1.369980 A    
N13   C49   1.446375 S    
C48   H30   1.110551 S    
