data_mof_unit_18961.cif
_audit_creation_date              2012-12-10T17:31:26-0500
_audit_creation_method            fapswitch 2.2
_symmetry_space_group_name_H-M    P1
_symmetry_Int_Tables_number       1
_space_group_crystal_system       triclinic
_cell_length_a                    19.236223
_cell_length_b                    18.807301
_cell_length_c                    12.304427
_cell_angle_alpha                 89.999158
_cell_angle_beta                  129.173316
_cell_angle_gamma                 89.991993
_cell_volume                      3450.98554406

loop_
_atom_site_label
_atom_site_type_symbol
_atom_type_description
_atom_site_fract_x
_atom_site_fract_y
_atom_site_fract_z
_atom_type_partial_charge
C1    C     C_R   0.612813 0.899590 0.655102 0.785617
C2    C     C_R   0.688686 0.756887 0.075781 0.084986
C3    C     C_R   0.188563 0.743287 0.075499 0.085028
C4    C     C_R   0.193894 0.260646 0.085040 0.095585
C5    C     C_R   0.623454 0.194294 0.989581 -0.198477
C6    C     C_R   0.610987 0.790730 0.962722 -0.184171
C7    C     C_R   0.110852 0.709508 0.962369 -0.184106
C8    C     C_R   0.122560 0.305107 0.988272 -0.198327
C9    C     C_R   0.603837 0.180231 0.862071 -0.203591
C10   C     C_R   0.604073 0.811303 0.847563 -0.192254
C11   C     C_R   0.104028 0.688838 0.847333 -0.192290
C12   C     C_R   0.609392 0.103202 0.650996 0.787404
C13   C     C_R   0.103178 0.319304 0.860966 -0.203411
C14   C     C_R   0.312059 0.816815 0.139040 0.115759
C15   C     C_R   0.286043 0.162863 0.117144 0.065195
C16   C     C_R   0.786384 0.336809 0.117608 0.065490
C17   C     C_R   0.811954 0.683135 0.138996 0.115488
C18   C     C_R   0.265370 0.817036 0.282328 -0.243716
C19   C     C_R   0.285996 0.197811 0.306254 -0.236386
C20   C     C_R   0.786612 0.301917 0.307024 -0.236464
C21   C     C_R   0.765527 0.683123 0.282625 -0.243827
C22   C     C_R   0.664445 0.166620 0.731676 -0.110460
C23   C     C_R   0.109338 0.396752 0.650911 0.787183
C24   C     C_R   0.683180 0.849288 0.755514 -0.096241
C25   C     C_R   0.183254 0.650618 0.755613 -0.096145
C26   C     C_R   0.164247 0.333209 0.731345 -0.110416
C27   C     C_R   0.682899 0.989135 0.286508 -0.243775
C28   C     C_R   0.182915 0.510697 0.286520 -0.244117
C29   C     C_R   0.344821 0.004277 0.627305 0.069658
C30   C     C_R   0.844819 0.495786 0.627301 0.069544
C31   C     C_R   0.311842 0.010493 0.699867 -0.219934
C32   C     C_R   0.811839 0.489608 0.699862 -0.219894
C33   C     C_R   0.384945 0.098846 0.343130 0.849835
C34   C     C_R   0.112829 0.600391 0.655125 0.785540
C35   C     C_R   0.384990 0.900950 0.342415 0.854395
C36   C     C_R   0.884985 0.599054 0.342426 0.854444
C37   C     C_R   0.885007 0.401124 0.343212 0.849943
C38   C     C_R   0.371018 0.011665 0.845800 -0.154627
C39   C     C_R   0.871015 0.488402 0.845794 -0.154470
C40   C     C_R   0.464193 0.005683 0.921978 -0.009616
C41   C     C_R   0.964193 0.494323 0.921977 -0.009712
C42   C     C_R   0.494955 0.000721 0.842898 0.266099
C43   C     C_R   0.994957 0.499253 0.842897 0.266278
C44   C     C_R   0.527653 0.003656 0.072728 -0.023663
C45   C     C_R   0.256766 0.757933 0.066494 -0.005015
C46   C     C_R   0.027653 0.496325 0.072728 -0.023561
C47   C     C_R   0.619949 0.995212 0.140267 0.173968
C48   C     C_R   0.119958 0.504676 0.140271 0.174143
C49   C     C_R   0.648965 0.993335 0.061624 -0.249396
C50   C     C_R   0.148973 0.506525 0.061627 -0.249461
C51   C     C_R   0.588012 0.997236 0.916520 -0.182048
C52   C     C_R   0.088015 0.502687 0.916517 -0.181674
C53   C     C_R   0.503854 0.008494 0.160482 0.088179
C54   C     C_R   0.003848 0.491544 0.160479 0.088225
C55   C     C_R   0.654336 0.990874 0.365805 0.124322
C56   C     C_R   0.237771 0.224059 0.043076 0.018746
C57   C     C_R   0.154349 0.509017 0.365815 0.123940
C58   C     C_R   0.719952 0.251776 0.219745 0.157260
C59   C     C_R   0.696794 0.730902 0.190473 0.151219
C60   C     C_R   0.196602 0.769324 0.190097 0.151256
C61   C     C_R   0.219080 0.247752 0.218623 0.157276
C62   C     C_R   0.320325 0.844295 0.253531 -0.129028
C63   C     C_R   0.318959 0.154399 0.255070 -0.110812
C64   C     C_R   0.819264 0.345420 0.255481 -0.110715
C65   C     C_R   0.820335 0.655740 0.253618 -0.128999
C66   C     C_R   0.722932 0.192688 0.709339 -0.169132
C67   C     C_R   0.738375 0.275487 0.043902 0.018613
C68   C     C_R   0.761651 0.848045 0.769779 -0.176484
C69   C     C_R   0.261814 0.651665 0.770125 -0.176515
C70   C     C_R   0.222835 0.307187 0.709176 -0.169024
C71   C     C_R   0.340101 0.681104 0.888502 -0.124851
C72   C     C_R   0.283847 0.253555 0.793279 -0.134008
C73   C     C_R   0.784117 0.246162 0.793662 -0.133796
C74   C     C_R   0.839917 0.818486 0.888027 -0.124725
C75   C     C_R   0.339997 0.712176 0.990726 -0.130192
C76   C     C_R   0.288906 0.225696 0.902734 -0.143965
C77   C     C_R   0.789392 0.273861 0.903413 -0.143737
C78   C     C_R   0.756774 0.742089 0.066569 -0.004880
C79   C     C_R   0.839881 0.787513 0.990386 -0.130046
C80   C     C_R   0.730000 0.251049 0.926991 0.108598
C81   C     C_R   0.759595 0.780267 0.970700 0.101166
C82   C     C_R   0.259639 0.719647 0.970769 0.101241
C83   C     C_R   0.229475 0.248519 0.926231 0.108600
C84   C     C_R   0.664780 0.198686 0.838060 0.090147
C85   C     C_R   0.681036 0.813719 0.855694 0.084540
C86   C     C_R   0.181060 0.686275 0.855669 0.084555
C87   C     C_R   0.164324 0.300954 0.837333 0.090012
C88   C     C_R   0.694715 0.238824 0.086151 0.095603
Cu1   Cu    Cu3+1 0.526340 0.000000 0.421010 0.994560
Cu2   Cu    Cu3+1 0.026340 0.500000 0.421010 0.994500
Cu3   Cu    Cu3+1 0.473640 0.000000 0.578990 0.924532
Cu4   Cu    Cu3+1 0.973640 0.500000 0.578990 0.924493
H1    H     H_    0.271659 0.836269 0.371141 0.191661
H2    H     H_    0.936096 0.481941 0.118476 0.158389
H3    H     H_    0.298799 0.004192 0.513920 0.141880
H4    H     H_    0.798799 0.495896 0.513917 0.141893
H5    H     H_    0.342068 0.016560 0.896301 0.188810
H6    H     H_    0.842062 0.483523 0.896290 0.188962
H7    H     H_    0.240337 0.014689 0.643033 0.170426
H8    H     H_    0.740332 0.485469 0.643031 0.170422
H9    H     H_    0.617211 0.997582 0.866430 0.212509
H10   H     H_    0.117210 0.502361 0.866420 0.212452
H11   H     H_    0.579763 0.172720 0.008399 0.178437
H12   H     H_    0.308876 0.190572 0.411663 0.182639
H13   H     H_    0.552613 0.795831 0.956703 0.182960
H14   H     H_    0.052416 0.704519 0.956207 0.182743
H15   H     H_    0.078713 0.326607 0.006844 0.178323
H16   H     H_    0.723414 0.170154 0.628820 0.185714
H17   H     H_    0.764695 0.875083 0.695126 0.158882
H18   H     H_    0.264903 0.624546 0.695583 0.158758
H19   H     H_    0.223532 0.329863 0.628970 0.185411
H20   H     H_    0.402979 0.731266 0.085410 0.186149
H21   H     H_    0.341816 0.187869 0.971690 0.162063
H22   H     H_    0.842420 0.311567 0.972514 0.162279
H23   H     H_    0.809523 0.309229 0.412433 0.182645
H24   H     H_    0.902852 0.768310 0.084955 0.186264
H25   H     H_    0.401757 0.677947 0.903166 0.163524
H26   H     H_    0.329953 0.235266 0.776830 0.153669
H27   H     H_    0.830172 0.264457 0.777117 0.153738
H28   H     H_    0.901509 0.821469 0.902478 0.163521
H29   H     H_    0.539758 0.155639 0.785271 0.189667
H30   H     H_    0.537833 0.825481 0.754460 0.183522
H31   H     H_    0.037810 0.674679 0.754172 0.183387
H32   H     H_    0.039145 0.343952 0.783997 0.189516
H33   H     H_    0.702518 0.985189 0.478517 0.119214
H34   H     H_    0.771895 0.663940 0.371535 0.191625
H35   H     H_    0.202536 0.514653 0.478533 0.119130
H36   H     H_    0.719796 0.988909 0.112813 0.159655
H37   H     H_    0.219807 0.510897 0.112816 0.159531
H38   H     H_    0.753644 0.982425 0.339019 0.145080
H39   H     H_    0.253669 0.517325 0.339038 0.144969
H40   H     H_    0.436105 0.018146 0.118476 0.158251
I1    I     I_    0.664731 0.196252 0.300016 -0.453620
I2    I     I_    0.610163 0.762449 0.233258 -0.430154
I3    I     I_    0.109845 0.737910 0.232684 -0.430359
I4    I     I_    0.163467 0.303152 0.298413 -0.453248
I5    I     I_    0.343157 0.878778 0.027665 -0.357793
I6    I     I_    0.251905 0.069218 0.996131 -0.406685
I7    I     I_    0.752096 0.430287 0.996101 -0.406694
I8    I     I_    0.842495 0.620913 0.027183 -0.358282
N1    N     N_R   0.566260 0.000000 0.302220 -0.180336
N2    N     N_R   0.066260 0.500000 0.302220 -0.180372
N3    N     N_R   0.434410 0.000000 0.697680 -0.216608
N4    N     N_R   0.934410 0.500000 0.697680 -0.216627
O1    O     O_R   0.608610 0.924520 0.551740 -0.575743
O2    O     O_R   0.435880 0.924530 0.314850 -0.538550
O3    O     O_R   0.935880 0.575470 0.314850 -0.538633
O4    O     O_R   0.935880 0.424530 0.314850 -0.564073
O5    O     O_R   0.391380 0.075460 0.448260 -0.601663
O6    O     O_R   0.391380 0.924540 0.448260 -0.600700
O7    O     O_R   0.891380 0.575460 0.448260 -0.600707
O8    O     O_R   0.891380 0.424540 0.448260 -0.601806
O9    O     O_R   0.608610 0.075480 0.551740 -0.572410
O10   O     O_R   0.108610 0.424520 0.551740 -0.572485
O11   O     O_R   0.108610 0.575480 0.551740 -0.575718
O12   O     O_R   0.564110 0.924510 0.685150 -0.615210
O13   O     O_R   0.564110 0.075490 0.685150 -0.620978
O14   O     O_R   0.064110 0.424510 0.685150 -0.620902
O15   O     O_R   0.064110 0.575490 0.685150 -0.615161
O16   O     O_R   0.435880 0.075470 0.314850 -0.564166

loop_
_geom_bond_atom_site_label_1
_geom_bond_atom_site_label_2
_ccdc_geom_bond_type
C30   C32   A    
C5    H11   S    
C10   C85   A    
C8    C13   A    
C55   N1    A    
C1    O1    A    
C45   C82   A    
C12   O9    A    
C80   C84   A    
C82   C86   A    
C39   C41   A    
C28   C57   A    
Cu1   O1    S    
C52   H10   S    
C75   H20   S    
C57   N2    A    
Cu1   O16   S    
Cu4   O15   S    
C73   H27   S    
C35   C62   S    
C21   C59   A    
C3    C7    A    
C27   C55   A    
C43   C52   A    
C32   C39   A    
C11   C86   A    
C68   C74   A    
C29   N3    A    
C23   O14   A    
C12   C22   S    
C30   N4    A    
Cu4   O14   S    
C19   H12   S    
C23   C26   S    
C69   C71   A    
C22   C66   A    
C30   H4    S    
C5    C88   A    
Cu1   O9    S    
C44   C53   A    
C55   H33   S    
C19   C63   A    
C26   C87   A    
C49   C51   A    
Cu4   O8    S    
C9    H29   S    
C41   C46   A    
C35   O6    A    
C31   H7    S    
C12   O13   A    
Cu1   Cu3   S    
C24   C85   A    
C44   C47   A    
C4    C8    A    
C42   C51   A    
C15   I6    S    
C3    C60   A    
C40   C42   A    
C79   H24   S    
C4    C56   A    
C41   C43   A    
C13   C87   A    
C43   N4    A    
C2    C6    A    
C38   H5    S    
C76   C83   A    
C14   C45   A    
Cu3   N3    S    
C58   I1    S    
Cu1   O2    S    
C46   C48   A    
C71   C75   A    
Cu3   O13   S    
C71   H25   S    
C47   C49   A    
C70   H19   S    
C29   H3    S    
C13   H32   S    
C2    C59   A    
C18   C62   A    
C39   H6    S    
C34   O11   A    
C66   C73   A    
C4    C61   A    
C3    C45   A    
C32   H8    S    
C35   O2    A    
C22   C84   A    
C20   C64   A    
C1    O12   A    
C7    C11   A    
C5    C9    A    
Cu2   O3    S    
C2    C78   A    
C50   H37   S    
C20   H23   S    
C69   H18   S    
C36   O3    A    
C50   C52   A    
C14   I5    S    
C33   C63   S    
C46   C54   A    
Cu4   O7    S    
C76   H21   S    
C67   C88   A    
C7    H14   S    
C72   C76   A    
C75   C82   A    
C16   C67   A    
C53   H40   S    
C60   I3    S    
Cu2   N2    S    
C18   C60   A    
C54   N2    A    
C74   C79   A    
C26   C70   A    
C25   C86   A    
C16   I7    S    
Cu2   O10   S    
Cu2   O4    S    
C37   O8    A    
C20   C58   A    
C77   H22   S    
C8    H15   S    
C37   C64   S    
C56   C83   A    
Cu3   O5    S    
C77   C80   A    
C27   C47   A    
C18   H1    S    
C49   H36   S    
C28   C48   A    
C15   C63   A    
C21   C65   A    
C36   C65   S    
C11   H31   S    
C67   C80   A    
C66   H16   S    
C10   H30   S    
C58   C88   A    
C83   C87   A    
C57   H35   S    
Cu3   O6    S    
C33   O16   A    
C36   O7    A    
C51   H9    S    
C74   H28   S    
C25   C34   S    
C59   I2    S    
C17   C65   A    
C31   C38   A    
C28   H39   S    
C15   C56   A    
C21   H34   S    
Cu3   O12   S    
C29   C31   A    
C33   O5    A    
C34   O15   A    
C38   C40   A    
C78   C81   A    
C19   C61   A    
Cu1   N1    S    
C48   C50   A    
C17   C78   A    
Cu2   Cu4   S    
C6    H13   S    
C17   I8    S    
C53   N1    A    
C68   H17   S    
C37   O4    A    
C79   C81   A    
Cu4   N4    S    
C54   H2    S    
C6    C10   A    
C24   C68   A    
C9    C84   A    
C40   C44   A    
C25   C69   A    
C1    C24   S    
C23   O10   A    
C72   H26   S    
C42   N3    A    
C27   H38   S    
C73   C77   A    
C70   C72   A    
C16   C64   A    
Cu2   O11   S    
C81   C85   A    
C61   I4    S    
C14   C62   A    
