data_mof_unit_21863.cif
_audit_creation_date              2013-03-05T16:44:37-0500
_audit_creation_method            fapswitch 2.2
_symmetry_space_group_name_H-M    P1
_symmetry_Int_Tables_number       1
_space_group_crystal_system       triclinic
_cell_length_a                    27.655359
_cell_length_b                    10.716652
_cell_length_c                    9.841039
_cell_angle_alpha                 90.786637
_cell_angle_beta                  89.873542
_cell_angle_gamma                 90.144512
_cell_volume                      2916.32581599

loop_
_atom_site_label
_atom_site_type_symbol
_atom_site_description
_atom_site_fract_x
_atom_site_fract_y
_atom_site_fract_z
_atom_type_partial_charge
O1    O     O_R   0.500010 0.316790 0.614690 -0.621198
O2    O     O_R   0.500000 0.316760 0.385350 -0.627870
C1    C     C_R   0.499691 0.260325 0.499140 0.900857
O3    O     O_R   0.428760 0.500040 0.614660 -0.628956
O4    O     O_R   0.428750 0.500000 0.385310 -0.613912
C2    C     C_R   0.405959 0.501946 0.500352 0.889292
Zn1   Zn    Zn3+2 0.500000 0.500020 0.653130 0.990817
Zn2   Zn    Zn3+2 0.500000 0.499980 0.346870 0.987900
O5    O     O_R   0.500000 0.683240 0.614650 -0.611821
O6    O     O_R   0.499990 0.683210 0.385310 -0.597010
O7    O     O_R   0.571250 0.500000 0.614690 -0.621624
O8    O     O_R   0.571240 0.499960 0.385340 -0.627831
C3    C     C_R   0.497135 0.739670 0.500787 0.931471
C4    C     C_R   0.594194 0.497829 0.499895 0.905825
C5    C     C_R   0.179785 0.407050 0.559790 0.535191
O9    O     O_2   0.207657 0.317195 0.613373 -0.514661
N1    N     N_R   0.201241 0.513570 0.515842 -0.367366
C6    C     C_R   0.175380 0.614374 0.475939 0.545121
C7    C     C_R   0.279056 0.553702 0.624574 -0.085990
C8    C     C_R   0.329248 0.549381 0.621011 -0.196286
C9    C     C_R   0.326408 0.476198 0.386515 -0.189863
C10   C     C_R   0.276227 0.480424 0.390336 -0.085090
C11   C     C_R   0.252646 0.518197 0.509596 0.305412
C12   C     C_R   0.101367 0.497912 0.514261 -0.091974
C13   C     C_R   0.129258 0.392716 0.551431 -0.085081
C14   C     C_R   0.105673 0.278503 0.580531 0.005091
C15   C     C_R   0.124490 0.611478 0.480327 -0.029342
C16   C     C_R   0.353235 0.509120 0.502353 -0.025500
H1    H     H_    0.343986 0.444768 0.294284 0.160953
H2    H     H_    0.255562 0.452300 0.301678 0.148191
C17   C     C_R   0.647072 0.483650 0.497048 -0.092055
C18   C     C_R   0.975812 0.371848 0.551714 0.049885
C19   C     C_R   0.973279 0.573782 0.437220 0.064197
C20   C     C_R   0.949385 0.467629 0.488520 0.087780
C21   C     C_R   0.950044 0.273203 0.612970 -0.209675
C22   C     C_R   0.899859 0.267318 0.606954 -0.114076
C23   C     C_R   0.873824 0.358624 0.538398 -0.032020
C24   C     C_R   0.898638 0.457735 0.476671 -0.056491
C25   C     C_R   0.872662 0.548053 0.404490 -0.034957
C26   C     C_R   0.822238 0.541336 0.401603 0.547099
N2    N     N_R   0.798744 0.447620 0.467767 -0.344028
C27   C     C_R   0.823258 0.355676 0.533177 0.524535
C28   C     C_R   0.718445 0.426283 0.364948 0.163079
C29   C     C_R   0.668571 0.442298 0.374692 -0.277660
C30   C     C_R   0.676695 0.507163 0.612167 0.089744
C31   C     C_R   0.726491 0.491836 0.600797 -0.117365
C32   C     C_R   0.747341 0.452453 0.478196 0.274597
O10   O     O_2   0.798669 0.262914 0.594124 -0.536372
C33   C     C_R   0.026986 0.377570 0.549954 0.049233
C34   C     C_R   0.050380 0.489411 0.510371 0.076060
C35   C     C_R   0.022855 0.592822 0.467115 -0.046057
C36   C     C_R   0.055344 0.273407 0.582204 -0.253684
H3    H     H_    0.646731 0.421528 0.285882 0.171531
H4    H     H_    0.881545 0.191016 0.656814 0.201069
H5    H     H_    0.967662 0.201608 0.670694 0.167496
H6    H     H_    0.038997 0.183512 0.600206 0.162420
O11   O     O_2   0.199255 0.716235 0.432161 -0.513780
C37   C     C_R   0.096509 0.719350 0.457184 0.062920
H7    H     H_    0.349194 0.577743 0.710740 0.156791
H8    H     H_    0.260627 0.582848 0.716834 0.145494
C38   C     C_R   0.947259 0.654691 0.352477 -0.163428
C39   C     C_R   0.897535 0.643223 0.338075 -0.113522
O12   O     O_2   0.796722 0.629471 0.336475 -0.545104
C40   C     C_R   0.045615 0.711589 0.457590 -0.081342
H9    H     H_    0.965118 0.726590 0.294882 0.163584
H10   H     H_    0.878656 0.710113 0.276109 0.196013
H11   H     H_    0.749434 0.512711 0.687350 0.161593
C41   C     C_R   0.519865 0.064703 0.603623 0.093891
C42   C     C_R   0.499974 0.128725 0.496192 -0.103975
C43   C     C_R   0.479229 0.064933 0.386210 -0.217430
H12   H     H_    0.463392 0.116393 0.303491 0.184864
C44   C     C_R   0.473630 0.936392 0.390397 -0.027988
C45   C     C_R   0.493984 0.872027 0.501595 -0.166270
C46   C     C_R   0.517881 0.937301 0.605671 0.020872
C47   C     C_3   0.510306 0.936745 0.758265 -0.181650
C48   C     C_3   0.511051 0.080218 0.753371 -0.340218
H13   H     H_    0.475516 0.125011 0.774798 0.173480
C49   C     C_R   0.472087 0.416434 0.070152 0.198415
N3    N     N_R   0.499670 0.499140 0.142800 -0.121992
C50   C     C_R   0.532029 0.570699 0.072998 -0.070842
H14   H     H_    0.557082 0.629986 0.128283 0.152505
C51   C     C_R   0.532372 0.569478 0.928821 -0.056107
H15   H     H_    0.558132 0.626044 0.874961 0.158738
N4    N     N_R   0.499670 0.499180 0.857150 -0.105443
C52   C     C_R   0.471799 0.417336 0.927387 0.183752
C53   C     C_3   0.418210 0.406079 0.920114 -0.466478
C54   C     C_3   0.418201 0.405114 0.074651 -0.156490
H16   H     H_    0.401054 0.490962 0.878667 0.207237
H17   H     H_    0.406652 0.316831 0.871035 0.214495
H18   H     H_    0.399955 0.487262 0.121832 0.202247
N5    N     N_3   0.119975 0.838130 0.442992 -0.363808
H19   H     H_    0.111547 0.874297 0.347896 0.256148
H20   H     H_    0.107745 0.898650 0.519653 0.221369
N6    N     N_3   0.657938 0.549498 0.740445 -0.444588
H21   H     H_    0.635930 0.479792 0.780936 0.223983
H22   H     H_    0.637739 0.630336 0.725474 0.241258
C55   C     C_2   0.017065 0.828936 0.472392 0.876944
O13   O     O_2   0.986247 0.837485 0.561375 -0.594709
O14   O     O_R   0.025008 0.928683 0.384914 -0.823220
H23   H     H_    0.003428 0.002758 0.406396 0.349640
C56   C     C_2   0.441812 0.876775 0.286291 0.967961
O15   O     O_2   0.416398 0.787443 0.315491 -0.619044
O16   O     O_R   0.438714 0.927954 0.156668 -0.772251
H24   H     H_    0.413942 0.883610 0.097448 0.364896
C57   C     C_2   0.461420 0.883480 0.798770 0.947430
O17   O     O_2   0.458864 0.796222 0.877317 -0.611200
O18   O     O_R   0.419106 0.932409 0.743133 -0.807262
H25   H     H_    0.388925 0.888291 0.776317 0.347292
C58   C     C_2   0.552649 0.880388 0.833885 0.938542
O19   O     O_2   0.586995 0.835931 0.771584 -0.653151
O20   O     O_R   0.552659 0.882432 0.976003 -0.739730
H26   H     H_    0.582947 0.844136 0.015367 0.332375
C59   C     C_2   0.551632 0.146376 0.828328 0.980137
O21   O     O_2   0.586839 0.186467 0.767125 -0.607726
O22   O     O_R   0.547888 0.163699 0.968939 -0.778455
H27   H     H_    0.576549 0.210643 0.008631 0.336741
N7    N     N_3   0.401954 0.285694 0.129455 -0.423229
H28   H     H_    0.422740 0.212640 0.088710 0.234784
H29   H     H_    0.408203 0.287654 0.234155 0.200514
C60   C     C_2   0.131653 0.159285 0.600036 0.984689
O23   O     O_2   0.122163 0.094551 0.697993 -0.617197
O24   O     O_R   0.165637 0.118907 0.503670 -0.747932
H30   H     H_    0.181719 0.037769 0.529603 0.369471
N8    N     N_3   0.739986 0.384289 0.240099 -0.424880
H31   H     H_    0.724763 0.297793 0.214244 0.199464
H32   H     H_    0.730686 0.447287 0.164335 0.210877

loop_
_geom_bond_atom_site_label_1
_geom_bond_atom_site_label_2
_geom_bond_distance
_ccdc_geom_bond_type
C49   C54   1.495444 S    
C56   O15   1.223244 D    
N2    C27   1.366586 A    
C21   C22   1.390506 A    
C12   C15   1.417022 A    
C4    C17   1.470770 S    
C47   C48   1.539047 S    
C55   O13   1.223312 D    
C52   C53   1.488404 S    
Zn1   O7    2.005608 S    
C57   O18   1.399254 S    
N1    C11   1.423584 S    
C26   O12   1.350123 S    
C22   C23   1.398158 A    
C1    C42   1.410251 S    
C14   C60   1.482340 S    
C54   N7    1.464789 S    
C58   O20   1.398464 S    
C24   C25   1.407884 A    
O7    C4    1.294444 A    
C53   H16   1.110034 S    
C5    C13   1.407818 A    
C44   C56   1.488374 S    
C41   C46   1.366713 A    
O22   H27   1.013847 S    
N1    C6    1.359974 A    
C45   C46   1.398601 A    
C23   C27   1.399755 A    
O5    C3    1.283286 A    
C29   H3    1.083750 S    
C2    C16   1.460404 S    
C7    C8    1.389308 A    
C41   C42   1.384009 A    
Zn2   N3    2.008198 S    
O18   H25   1.013867 S    
O6    C3    1.282468 A    
C43   H12   1.083396 S    
C37   N5    1.435712 S    
C6    C15   1.408206 A    
C38   C39   1.387703 A    
Zn1   N4    2.007913 S    
C56   O16   1.398323 S    
O1    Zn1   1.994614 S    
C9    C10   1.389041 A    
C37   C40   1.409738 A    
C42   C43   1.395845 A    
O3    Zn1   2.007034 S    
C30   N6    1.432170 S    
C55   O14   1.398319 S    
C60   O24   1.398842 S    
C19   C20   1.412849 A    
C12   C34   1.413358 A    
C47   C58   1.519739 S    
C17   C29   1.408286 A    
C39   H10   1.083324 S    
C21   H5    1.078823 S    
C18   C21   1.414430 A    
N4    C52   1.360903 A    
C12   C13   1.420078 A    
C50   C51   1.418740 A    
C46   C47   1.515860 S    
N5    H19   1.044861 S    
C53   C54   1.520977 S    
C44   C45   1.419695 A    
C8    C16   1.404982 A    
C34   C35   1.416846 A    
C13   C14   1.417866 A    
C30   C31   1.391367 A    
C9    H1    1.078920 S    
C15   C37   1.414069 A    
O1    C1    1.280792 A    
C18   C20   1.413437 A    
C7    C11   1.396041 A    
C28   C29   1.393276 A    
C23   C24   1.407206 A    
C14   C36   1.392870 A    
N5    H20   1.044387 S    
C6    O11   1.349522 S    
O14   H23   1.014039 S    
Zn2   O8    2.007034 S    
C33   C36   1.406093 A    
C48   C59   1.513803 S    
N2    C32   1.426054 S    
C27   O10   1.349643 S    
C48   H13   1.113248 S    
C8    H7    1.081821 S    
N6    H22   1.044308 S    
C49   C52   1.405164 A    
O3    C2    1.291231 A    
C26   N2    1.366595 A    
C9    C16   1.402073 A    
C3    C45   1.421239 S    
C47   C57   1.520694 S    
C51   N4    1.366653 A    
C19   C35   1.416569 A    
C25   C26   1.396495 A    
C60   O23   1.223016 D    
N8    H32   1.045649 S    
C59   O21   1.223843 D    
Zn1   O5    2.004785 S    
C25   C39   1.397610 A    
C31   C32   1.396596 A    
C40   C55   1.491841 S    
C10   H2    1.082961 S    
O20   H26   1.013737 S    
C20   C24   1.412134 A    
Zn2   O6    1.994613 S    
O2    Zn2   2.004787 S    
C35   C40   1.422652 A    
O8    C4    1.295508 A    
C50   H14   1.081520 S    
C53   H17   1.112059 S    
O4    Zn2   2.005611 S    
C5    N1    1.360627 A    
C7    H8    1.082891 S    
C41   C48   1.500220 S    
C57   O17   1.223202 D    
N7    H29   1.045044 S    
O2    C1    1.279985 A    
C31   H11   1.083786 S    
N7    H28   1.047271 S    
C49   N3    1.363900 A    
O4    C2    1.294484 A    
C36   H6    1.079821 S    
N6    H21   1.045029 S    
C18   C33   1.416484 A    
C22   H4    1.083405 S    
N3    C50   1.367145 A    
C38   H9    1.080624 S    
C19   C38   1.410949 A    
C33   C34   1.419376 A    
C17   C30   1.418915 A    
C54   H18   1.111393 S    
O16   H24   1.013571 S    
C10   C11   1.396954 A    
C43   C44   1.386980 A    
C51   H15   1.077444 S    
O24   H30   1.013683 S    
C58   O19   1.223432 D    
C28   C32   1.397702 A    
C28   N8    1.431759 S    
C5    O9    1.348690 S    
N8    H31   1.045579 S    
C59   O22   1.397283 S    
