data_mof_unit_57835.cif
_audit_creation_date              2012-12-10T17:12:03-0500
_audit_creation_method            fapswitch 2.2
_symmetry_space_group_name_H-M    P1
_symmetry_Int_Tables_number       1
_space_group_crystal_system       triclinic
_cell_length_a                    11.635294
_cell_length_b                    13.003133
_cell_length_c                    15.90704
_cell_angle_alpha                 92.226312
_cell_angle_beta                  74.557837
_cell_angle_gamma                 99.99477
_cell_volume                      2284.50423761

loop_
_atom_site_label
_atom_site_type_symbol
_atom_type_description
_atom_site_fract_x
_atom_site_fract_y
_atom_site_fract_z
_atom_type_partial_charge
C1    C     C_R   0.521142 0.700951 0.500900 0.818750
C2    C     C_R   0.479119 0.299075 0.498538 0.823359
C3    C     C_R   0.355897 0.463715 0.084717 -0.214531
C4    C     C_R   0.644332 0.548559 0.916246 -0.206135
C5    C     C_R   0.271502 0.454791 0.036359 -0.224699
C6    C     C_R   0.728930 0.555405 0.964285 -0.237037
C7    C     C_R   0.466932 0.185716 0.497476 -0.134261
C8    C     C_R   0.533772 0.814350 0.500935 -0.126553
C9    C     C_R   0.655151 0.985257 0.504546 0.451545
C10   C     C_R   0.346218 0.014917 0.492074 0.447497
C11   C     C_R   0.643888 0.876716 0.503333 -0.285268
C12   C     C_R   0.358496 0.123456 0.491263 -0.280825
C13   C     C_R   0.435124 0.860412 0.497644 -0.261170
C14   C     C_R   0.565051 0.139618 0.501878 -0.247317
C15   C     C_R   0.444986 0.968549 0.497035 0.001765
C16   C     C_R   0.555677 0.031485 0.501155 0.014389
C17   C     C_R   0.939729 0.592303 0.584914 -0.356002
C18   C     C_R   0.059499 0.406097 0.416289 -0.337700
C19   C     C_R   0.821584 0.584264 0.576163 0.120739
C20   C     C_R   0.178040 0.414945 0.424449 0.121732
C21   C     C_R   0.859547 0.459773 0.463620 0.014439
C22   C     C_R   0.140210 0.539746 0.536753 0.015445
C23   C     C_R   0.427252 0.491543 0.667926 0.847154
C24   C     C_R   0.572822 0.509133 0.332107 0.856718
C25   C     C_R   0.979459 0.465716 0.469733 0.062498
C26   C     C_R   0.020028 0.533224 0.531072 0.068667
C27   C     C_R   0.385372 0.481483 0.763530 -0.218502
C28   C     C_R   0.614920 0.521293 0.236622 -0.201746
C29   C     C_R   0.222958 0.460744 0.897050 0.434448
C30   C     C_R   0.777340 0.543438 0.103097 0.434354
C31   C     C_R   0.262708 0.475044 0.806526 -0.381346
C32   C     C_R   0.737428 0.526562 0.193335 -0.379420
C33   C     C_R   0.469336 0.476318 0.812371 0.380442
C34   C     C_R   0.531863 0.531471 0.188368 0.386405
C35   C     C_R   0.434553 0.487950 0.903725 -0.069724
C36   C     C_R   0.566156 0.521012 0.096719 -0.087894
C37   C     C_R   0.308935 0.469625 0.946132 0.001042
C38   C     C_R   0.691577 0.538062 0.054199 0.009451
C39   C     C_R   0.520301 0.511143 0.954315 0.100572
C40   C     C_R   0.480081 0.499816 0.046326 0.088712
Cu1   Cu    Cu3+1 0.386820 0.492450 0.493500 0.939925
Cu2   Cu    Cu3+1 0.613180 0.507550 0.506500 0.937282
H1    H     H_    0.176604 0.432540 0.069803 0.192702
H2    H     H_    0.823848 0.577625 0.930900 0.189804
H3    H     H_    0.239365 0.368789 0.383095 0.133881
H4    H     H_    0.760239 0.630330 0.617612 0.131529
H5    H     H_    0.968049 0.644490 0.633118 0.137400
H6    H     H_    0.030840 0.353209 0.368627 0.146642
H7    H     H_    0.803152 0.522464 0.229669 0.189298
H8    H     H_    0.196851 0.476719 0.769821 0.187531
H9    H     H_    0.321393 0.440407 0.152305 0.200234
H10   H     H_    0.678691 0.573857 0.849136 0.199924
H11   H     H_    0.649024 0.188253 0.505921 0.202430
H12   H     H_    0.350439 0.811777 0.495249 0.202593
H13   H     H_    0.283056 0.158610 0.485426 0.168945
H14   H     H_    0.721657 0.841660 0.503836 0.167693
H15   H     H_    0.172830 0.591590 0.583434 0.120215
H16   H     H_    0.826967 0.408059 0.416851 0.127204
N1    N     N_R   0.216750 0.481110 0.483710 -0.184082
N2    N     N_R   0.783250 0.518890 0.516290 -0.185538
O1    O     O_R   0.419950 0.645670 0.495380 -0.603085
O2    O     O_R   0.580050 0.354330 0.504620 -0.599348
O3    O     O_R   0.611110 0.658410 0.506370 -0.592935
O4    O     O_R   0.388890 0.341590 0.493630 -0.595313
O5    O     O_R   0.350820 0.490050 0.621260 -0.596970
O6    O     O_R   0.649180 0.509950 0.378740 -0.597895
O7    O     O_R   0.541970 0.502800 0.632250 -0.545878
O8    O     O_R   0.458030 0.497200 0.367750 -0.535623
O9    O     O_3   0.419949 0.556740 0.231412 -0.609689
C41   C     C_3   0.414967 0.661345 0.212612 0.055235
H17   H     H_    0.319495 0.665581 0.215316 0.166940
H18   H     H_    0.469385 0.688366 0.145894 0.131237
C42   C     C_3   0.453555 0.735251 0.281146 -0.339101
H19   H     H_    0.393510 0.711133 0.346589 0.249347
H20   H     H_    0.548156 0.730751 0.280847 0.200813
C43   C     C_3   0.445613 0.847937 0.263356 -0.883584
H21   H     H_    0.503463 0.873298 0.197489 0.244442
H22   H     H_    0.477655 0.900084 0.312298 0.273583
H23   H     H_    0.350550 0.855479 0.267745 0.267411
O10   O     O_3   0.583647 0.455275 0.770993 -0.618698
C44   C     C_3   0.580014 0.346227 0.759731 0.097628
H24   H     H_    0.649631 0.334730 0.698592 0.178303
H25   H     H_    0.491948 0.303810 0.750973 0.105206
C45   C     C_3   0.611064 0.298612 0.835883 -0.352463
H26   H     H_    0.694909 0.345381 0.847379 0.236054
H27   H     H_    0.536128 0.299848 0.895950 0.217868
C46   C     C_3   0.630805 0.186171 0.817406 -0.958288
H28   H     H_    0.549829 0.137967 0.802848 0.254298
H29   H     H_    0.647466 0.152642 0.875351 0.260694
H30   H     H_    0.710917 0.183974 0.761265 0.256376
O11   O     O_3   0.100414 0.446615 0.938224 -0.551648
C47   C     C_3   0.047436 0.343859 0.922700 0.062982
H31   H     H_    0.090465 0.285561 0.947601 0.127304
H32   H     H_    0.055649 0.330697 0.851895 0.133367
C48   C     C_3   0.913487 0.326198 0.970084 -0.719205
H33   H     H_    0.867416 0.381444 0.945027 0.256490
H34   H     H_    0.871385 0.245178 0.959025 0.177467
H35   H     H_    0.901435 0.338141 0.041218 0.261107
O12   O     O_3   0.899808 0.557482 0.062030 -0.552116
C49   C     C_3   0.951736 0.661101 0.075896 0.066311
H36   H     H_    0.945130 0.675296 0.146402 0.139278
H37   H     H_    0.906672 0.718125 0.051352 0.126389
C50   C     C_3   0.084933 0.679971 0.026621 -0.728989
H38   H     H_    0.095030 0.666093 0.955882 0.258938
H39   H     H_    0.125992 0.761875 0.035888 0.177463
H40   H     H_    0.133381 0.626708 0.051607 0.258578
O13   O     O_3   0.766060 0.046250 0.501871 -0.584506
C51   C     C_3   0.783884 0.050451 0.586353 0.035555
H41   H     H_    0.800225 0.973637 0.604796 0.145543
H42   H     H_    0.704443 0.072711 0.635710 0.136995
C52   C     C_3   0.894090 0.132411 0.587371 -0.794878
H43   H     H_    0.878034 0.210684 0.572527 0.248095
H44   H     H_    0.911646 0.134197 0.652737 0.191942
H45   H     H_    0.974863 0.113663 0.537866 0.257717
O14   O     O_3   0.241809 0.954821 0.479612 -0.581855
C53   C     C_3   0.152659 0.943306 0.560067 0.040845
H46   H     H_    0.129845 0.020326 0.585527 0.140631
H47   H     H_    0.183575 0.904247 0.609216 0.133847
C54   C     C_3   0.038553 0.875524 0.546794 -0.788847
H48   H     H_    0.059361 0.798981 0.519443 0.254682
H49   H     H_    0.968739 0.862405 0.610115 0.184422
H50   H     H_    0.002463 0.914491 0.500840 0.263924

loop_
_geom_bond_atom_site_label_1
_geom_bond_atom_site_label_2
_ccdc_geom_bond_type
C46   H28   S    
C8    C13   A    
C5    C37   A    
C1    C8    S    
Cu1   Cu2   S    
C48   H33   S    
C45   C46   S    
Cu1   O1    S    
C22   H15   S    
C44   H24   S    
C19   H4    S    
C11   H14   S    
C27   C33   A    
C4    H10   S    
C17   C26   A    
C35   C37   A    
C9    C16   A    
C43   H22   S    
C10   C15   A    
C15   C16   A    
C53   H46   S    
C30   C38   A    
C42   H19   S    
C23   O7    A    
C49   H36   S    
C17   C19   A    
C7    C14   A    
C2    C7    S    
C53   H47   S    
O13   C51   S    
C6    C38   A    
C41   H17   S    
C23   C27   S    
C50   H40   S    
Cu2   O2    S    
C18   C20   A    
C20   H3    S    
C24   O6    A    
C5    H1    S    
C28   C34   A    
C6    H2    S    
C42   H20   S    
C18   C25   A    
C1    O3    A    
C49   H37   S    
C44   H25   S    
C2    O4    A    
Cu1   O8    S    
C54   H49   S    
C7    C12   A    
C48   H35   S    
C27   C31   A    
C53   C54   S    
C24   C28   S    
C28   C32   A    
C45   H26   S    
Cu1   N1    S    
C21   N2    A    
C52   H44   S    
Cu2   N2    S    
O11   C47   S    
C3    H9    S    
Cu1   O5    S    
C25   C26   A    
C30   O12   S    
C49   C50   S    
C1    O1    A    
C35   C39   A    
O12   C49   S    
C4    C39   A    
C36   C40   A    
C41   C42   S    
C47   H32   S    
C50   H39   S    
C43   H21   S    
C20   N1    A    
C9    C11   A    
C34   O9    S    
C10   C12   A    
C4    C6    A    
C3    C40   A    
C13   C15   A    
Cu2   O7    S    
C42   C43   S    
C14   C16   A    
C31   H8    S    
C22   N1    A    
C44   C45   S    
C43   H23   S    
C13   H12   S    
C54   H50   S    
C21   C25   A    
C52   H43   S    
C17   H5    S    
C45   H27   S    
O10   C44   S    
C3    C5    A    
C18   H6    S    
C54   H48   S    
C48   H34   S    
C33   O10   S    
C19   N2    A    
C9    O13   S    
C51   C52   S    
C23   O5    A    
C46   H29   S    
C21   H16   S    
C29   C31   A    
C30   C32   A    
C8    C11   A    
C36   C38   A    
C47   H31   S    
C33   C35   A    
C51   H42   S    
C52   H45   S    
C34   C36   A    
C47   C48   S    
O9    C41   S    
C32   H7    S    
C12   H13   S    
C24   O8    A    
C39   C40   A    
C2    O2    A    
C51   H41   S    
C14   H11   S    
C22   C26   A    
C46   H30   S    
C29   C37   A    
C50   H38   S    
Cu2   O6    S    
C41   H18   S    
Cu1   O4    S    
Cu2   O3    S    
C10   O14   S    
O14   C53   S    
C29   O11   S    
