data_mof_unit_47461.cif
_audit_creation_date              2012-12-10T18:06:39-0500
_audit_creation_method            fapswitch 2.2
_symmetry_space_group_name_H-M    P1
_symmetry_Int_Tables_number       1
_space_group_crystal_system       triclinic
_cell_length_a                    12.609701
_cell_length_b                    13.214731
_cell_length_c                    15.417569
_cell_angle_alpha                 84.807728
_cell_angle_beta                  100.153615
_cell_angle_gamma                 95.074808
_cell_volume                      2511.57844646

loop_
_atom_site_label
_atom_site_type_symbol
_atom_type_description
_atom_site_fract_x
_atom_site_fract_y
_atom_site_fract_z
_atom_type_partial_charge
C1    C     C_R   0.443186 0.308898 0.504118 0.842716
C2    C     C_R   0.463714 0.555416 0.099859 -0.025013
C3    C     C_R   0.373624 0.611220 0.063808 0.066026
C4    C     C_R   0.544833 0.546857 0.048405 0.101900
C5    C     C_R   0.521936 0.573255 0.956684 0.055486
C6    C     C_R   0.433267 0.631832 0.922770 -0.232927
C7    C     C_R   0.361795 0.652601 0.976477 -0.174806
C8    C     C_R   0.648270 0.514314 0.085166 -0.156472
C9    C     C_R   0.718413 0.489999 0.031201 -0.297683
C10   C     C_R   0.685771 0.495327 0.939755 0.184026
C11   C     C_R   0.587108 0.537591 0.901973 0.093535
C12   C     C_R   0.433409 0.511166 0.335227 0.860710
C13   C     C_R   0.748383 0.456218 0.885627 -0.218429
C14   C     C_R   0.710273 0.452939 0.795202 -0.208450
C15   C     C_R   0.550886 0.533751 0.811427 -0.269547
C16   C     C_R   0.690178 0.937116 0.406470 -0.214213
C17   C     C_R   0.565256 0.795646 0.441480 -0.208865
C18   C     C_R   0.321225 0.159435 0.538438 -0.189093
C19   C     C_R   0.297256 0.054781 0.547140 -0.167044
C20   C     C_R   0.362792 0.989585 0.519110 -0.148406
C21   C     C_R   0.450821 0.028625 0.477789 0.111463
C22   C     C_R   0.471480 0.134495 0.463500 0.082896
C23   C     C_R   0.548568 0.690150 0.477785 0.847094
C24   C     C_R   0.520305 0.963798 0.451817 0.018125
C25   C     C_R   0.616417 0.003609 0.422058 0.137325
C26   C     C_R   0.630691 0.107488 0.400436 -0.229965
C27   C     C_R   0.553326 0.170408 0.413579 -0.191049
C28   C     C_R   0.483977 0.864582 0.434891 0.407586
C29   C     C_R   0.667426 0.832673 0.422060 -0.234117
C30   C     C_R   0.409733 0.200188 0.499213 -0.131109
C31   C     C_R   0.149283 0.579311 0.661024 -0.276784
C32   C     C_R   0.755973 0.391144 0.386696 -0.039627
C33   C     C_R   0.848471 0.353617 0.369248 -0.388798
C34   C     C_R   0.565912 0.487717 0.664264 0.885385
C35   C     C_R   0.949974 0.380945 0.419346 0.510402
C36   C     C_R   0.954812 0.449664 0.486207 -0.138596
C37   C     C_R   0.856544 0.478880 0.507455 0.069097
C38   C     C_R   0.053787 0.492720 0.532552 0.011644
C39   C     C_R   0.054820 0.533827 0.614097 0.134257
C40   C     C_R   0.959738 0.539701 0.644105 -0.418796
C41   C     C_R   0.862731 0.536878 0.583254 0.493651
C42   C     C_R   0.151016 0.502952 0.499429 0.002407
C43   C     C_R   0.241387 0.589292 0.623782 -0.001891
C44   C     C_R   0.396022 0.528709 0.239090 -0.270610
C45   C     C_R   0.610157 0.490234 0.758338 -0.058130
C46   C     C_R   0.293649 0.621877 0.113848 -0.364449
C47   C     C_R   0.302041 0.579665 0.202364 0.405193
C48   C     C_R   0.465467 0.503814 0.183630 0.353722
H1    H     H_    0.824773 0.425136 0.913631 0.135266
H2    H     H_    0.729547 0.781676 0.420279 0.192562
H3    H     H_    0.697551 0.138977 0.368451 0.140516
H4    H     H_    0.765921 0.965664 0.386074 0.146326
H5    H     H_    0.272413 0.208331 0.565122 0.184513
H6    H     H_    0.346047 0.908590 0.532154 0.136012
H7    H     H_    0.230109 0.023893 0.578886 0.145542
H8    H     H_    0.557876 0.246360 0.382647 0.175412
H9    H     H_    0.316001 0.622664 0.659354 0.127280
H10   H     H_    0.473079 0.559499 0.781731 0.153555
H11   H     H_    0.965140 0.566347 0.709121 0.135770
H12   H     H_    0.150777 0.610413 0.723984 0.135174
H13   H     H_    0.159088 0.475027 0.437738 0.193454
H14   H     H_    0.838941 0.300860 0.318286 0.133303
H15   H     H_    0.758204 0.420356 0.754503 0.161616
H16   H     H_    0.795747 0.462107 0.061272 0.145773
H17   H     H_    0.226116 0.664715 0.082778 0.134715
H18   H     H_    0.418960 0.664484 0.855334 0.133896
N1    N     N_R   0.239390 0.551900 0.544730 -0.129200
N2    N     N_R   0.759950 0.448600 0.455730 -0.110876
O1    O     O_R   0.374950 0.371210 0.521360 -0.598678
O2    O     O_R   0.542050 0.338030 0.492790 -0.625500
O3    O     O_R   0.368720 0.526070 0.390200 -0.592731
O4    O     O_R   0.535820 0.492890 0.361630 -0.587791
O5    O     O_R   0.457950 0.661970 0.507210 -0.639663
O6    O     O_R   0.625050 0.628790 0.478640 -0.530923
O7    O     O_R   0.464180 0.507110 0.638370 -0.625920
O8    O     O_R   0.631280 0.473930 0.609800 -0.555373
Zn1   Zn    Zn3+2 0.388420 0.522150 0.519080 0.937367
Zn2   Zn    Zn3+2 0.611580 0.477850 0.480920 0.989995
H19   H     H_    0.294144 0.697169 0.948281 0.135591
O9    O     O_3   0.392516 0.865471 0.368815 -0.643269
C49   C     C_3   0.335966 0.771670 0.351448 0.206777
H20   H     H_    0.388762 0.709724 0.352183 0.146135
H21   H     H_    0.292411 0.779686 0.282345 0.171456
C50   C     C_3   0.250840 0.748821 0.410683 -0.777513
H22   H     H_    0.190190 0.806733 0.395540 0.221972
H23   H     H_    0.209718 0.672962 0.398781 0.255703
H24   H     H_    0.287631 0.749608 0.481306 0.240674
H25   H     H_    0.679310 0.370174 0.347227 0.190488
O10   O     O_3   0.042314 0.331970 0.414510 -0.627458
C51   C     C_3   0.044714 0.299896 0.329778 0.078210
H26   H     H_    0.010735 0.355389 0.275481 0.134383
H27   H     H_    0.999198 0.224323 0.322276 0.154343
C52   C     C_3   0.161316 0.288953 0.320660 -0.820297
H28   H     H_    0.197347 0.231473 0.371760 0.266124
H29   H     H_    0.164279 0.263856 0.254368 0.197971
H30   H     H_    0.209384 0.363123 0.328429 0.268824
O11   O     O_3   0.780497 0.598147 0.590773 -0.549530
C53   C     C_3   0.806336 0.666463 0.659216 0.095122
H31   H     H_    0.881545 0.715261 0.652370 0.135506
H32   H     H_    0.814710 0.623312 0.724982 0.146025
C54   C     C_3   0.717212 0.737508 0.656721 -0.826376
H33   H     H_    0.637896 0.693902 0.655851 0.248584
H34   H     H_    0.734369 0.781047 0.716582 0.203438
H35   H     H_    0.714628 0.792980 0.598395 0.246271
O12   O     O_3   0.223893 0.588026 0.255192 -0.615788
C55   C     C_3   0.120661 0.607149 0.205778 0.096040
H36   H     H_    0.095933 0.552127 0.153916 0.143876
H37   H     H_    0.120650 0.686899 0.175787 0.140691
C56   C     C_3   0.035779 0.595579 0.265617 -0.882058
H38   H     H_    0.044924 0.660396 0.307903 0.243986
H39   H     H_    0.953784 0.594220 0.224876 0.215021
H40   H     H_    0.043202 0.523816 0.307885 0.262864
O13   O     O_3   0.530509 0.423690 0.209705 -0.624085
C57   C     C_3   0.469638 0.331212 0.189385 0.095304
H41   H     H_    0.408307 0.338774 0.127726 0.137321
H42   H     H_    0.427469 0.302475 0.245298 0.140135
C58   C     C_3   0.545696 0.253157 0.175682 -0.838012
H43   H     H_    0.611260 0.245650 0.233597 0.241266
H44   H     H_    0.500302 0.177894 0.166542 0.222106
H45   H     H_    0.582386 0.277587 0.116036 0.258422
H46   H     H_    0.676935 0.508847 0.155612 0.202589

loop_
_geom_bond_atom_site_label_1
_geom_bond_atom_site_label_2
_ccdc_geom_bond_type
C54   H33   S    
O2    Zn2   S    
C9    H16   S    
C17   C29   A    
O1    Zn1   S    
C35   C36   A    
N1    Zn1   S    
C50   H24   S    
C4    C8    A    
C57   H41   S    
C26   C27   A    
C17   C23   S    
C31   C43   A    
C36   C37   A    
O8    Zn2   S    
C5    C11   A    
C3    C7    A    
C58   H44   S    
C5    C6    A    
O9    C49   S    
C8    H46   S    
C55   H36   S    
C32   H25   S    
C37   N2    A    
C18   C19   A    
C52   H29   S    
O4    Zn2   S    
C18   H5    S    
C11   C15   A    
C19   C20   A    
C33   H14   S    
C47   O12   S    
C18   C30   A    
C13   C14   A    
C9    C10   A    
C44   C47   A    
C34   O7    A    
C32   N2    A    
C12   O4    A    
C54   H34   S    
C40   H11   S    
C21   C22   A    
C23   O5    A    
C49   H21   S    
O11   C53   S    
C14   C45   A    
C29   H2    S    
N2    Zn2   S    
C16   H4    S    
C24   C25   A    
C46   H17   S    
C20   H6    S    
C56   H40   S    
C39   C40   A    
C34   C45   S    
C27   H8    S    
C8    C9    A    
C2    C48   A    
C16   C29   A    
C49   H20   S    
C31   H12   S    
C2    C4    A    
C51   H27   S    
C52   H28   S    
C50   H22   S    
O7    Zn1   S    
C42   H13   S    
C13   H1    S    
C35   O10   S    
C40   C41   A    
C12   O3    A    
C54   H35   S    
C53   H32   S    
C22   C27   A    
C42   N1    A    
C15   H10   S    
C41   O11   S    
C58   H45   S    
C15   C45   A    
C23   O6    A    
O3    Zn1   S    
C49   C50   S    
C51   C52   S    
C7    H19   S    
O13   C57   S    
C19   H7    S    
C16   C25   A    
C46   C47   A    
C22   C30   A    
C17   C28   A    
C24   C28   A    
C50   H23   S    
C4    C5    A    
C10   C13   A    
C57   H42   S    
C38   C42   A    
C6    C7    A    
C52   H30   S    
C53   C54   S    
O12   C55   S    
C3    C46   A    
C1    O2    A    
C32   C33   A    
C36   C38   A    
C2    C3    A    
C25   C26   A    
C12   C44   S    
C58   H43   S    
C51   H26   S    
C38   C39   A    
C55   H37   S    
C14   H15   S    
C56   H39   S    
C1    C30   S    
C33   C35   A    
C31   C39   A    
C37   C41   A    
C28   O9    S    
C1    O1    A    
C57   C58   S    
C10   C11   A    
C43   H9    S    
C6    H18   S    
C20   C21   A    
C43   N1    A    
C53   H31   S    
O6    Zn2   S    
C21   C24   A    
C56   H38   S    
O5    Zn1   S    
O10   C51   S    
C26   H3    S    
C44   C48   A    
C34   O8    A    
C48   O13   S    
C55   C56   S    
