data_mof_unit_51090.cif
_audit_creation_date              2012-12-10T17:16:35-0500
_audit_creation_method            fapswitch 2.2
_symmetry_space_group_name_H-M    P1
_symmetry_Int_Tables_number       1
_space_group_crystal_system       triclinic
_cell_length_a                    10.190931
_cell_length_b                    10.644555
_cell_length_c                    10.771418
_cell_angle_alpha                 91.942666
_cell_angle_beta                  96.026827
_cell_angle_gamma                 78.836863
_cell_volume                      1139.90731687

loop_
_atom_site_label
_atom_site_type_symbol
_atom_type_description
_atom_site_fract_x
_atom_site_fract_y
_atom_site_fract_z
_atom_type_partial_charge
C1    C     C_R   0.443373 0.512493 0.267148 0.957147
C2    C     C_R   0.556305 0.496125 0.733074 0.928126
C3    C     C_2   0.410641 0.533803 0.135135 -0.348778
C4    C     C_2   0.587819 0.507877 0.866095 -0.359157
C5    C     C_2   0.509660 0.547512 0.068026 -0.178456
C6    C     C_2   0.486513 0.550700 0.934954 -0.137655
C7    C     C_2   0.076248 0.480350 0.496690 -0.011364
C8    C     C_2   0.931207 0.496322 0.523250 -0.065545
C9    C     C_R   0.507121 0.258767 0.511183 0.888789
C10   C     C_R   0.492438 0.740895 0.487437 0.866315
C11   C     C_R   0.740689 0.061623 0.432166 -0.086068
C12   C     C_R   0.255167 0.938422 0.557955 -0.089108
C13   C     C_R   0.818743 0.983855 0.348684 0.072165
C14   C     C_R   0.175672 0.016067 0.640384 0.061131
C15   C     C_R   0.772507 0.878416 0.292916 -0.246346
C16   C     C_R   0.222046 0.120534 0.698292 -0.257755
C17   C     C_R   0.655622 0.846027 0.327206 -0.121395
C18   C     C_R   0.340454 0.152288 0.666804 -0.142369
C19   C     C_R   0.581341 0.919856 0.417215 0.086458
C20   C     C_R   0.415701 0.079273 0.576860 0.075600
C21   C     C_R   0.614626 0.036343 0.458727 0.036378
C22   C     C_R   0.382203 0.963334 0.534209 0.040453
C23   C     C_R   0.476678 0.877586 0.468798 -0.220024
C24   C     C_R   0.521240 0.121625 0.526247 -0.225561
H1    H     H_    0.164617 0.180032 0.764995 0.158353
H2    H     H_    0.828989 0.818654 0.225752 0.143534
H3    H     H_    0.784152 0.136363 0.480765 0.191875
H4    H     H_    0.212862 0.863513 0.508182 0.189271
H5    H     H_    0.623690 0.762346 0.283400 0.150401
H6    H     H_    0.372469 0.235072 0.712461 0.163618
H7    H     H_    0.383113 0.578321 0.893737 0.201847
H8    H     H_    0.611940 0.545439 0.110067 0.193994
H9    H     H_    0.690928 0.480069 0.907731 0.174648
H10   H     H_    0.308663 0.535720 0.092643 0.184478
H11   H     H_    0.873347 0.403067 0.368108 0.201064
H12   H     H_    0.117981 0.625747 0.607998 0.223290
N1    N     N_2   0.157300 0.551390 0.551120 -0.209507
N2    N     N_2   0.842700 0.448610 0.448880 -0.239227
O1    O     O_R   0.568940 0.489660 0.307530 -0.623056
O2    O     O_R   0.431060 0.510340 0.692470 -0.612570
O3    O     O_R   0.348880 0.522640 0.340350 -0.563019
O4    O     O_R   0.651120 0.477360 0.659650 -0.626554
O5    O     O_R   0.610030 0.300280 0.483580 -0.620438
O6    O     O_R   0.389970 0.699720 0.516420 -0.629872
O7    O     O_R   0.389970 0.333270 0.516400 -0.625100
O8    O     O_R   0.610030 0.666730 0.483600 -0.637214
Zn1   Zn    Zn3+2 0.646940 0.477980 0.478080 0.939362
Zn2   Zn    Zn3+2 0.353060 0.522020 0.521920 0.974641
C25   C     C_2   0.948511 0.011557 0.318677 0.395110
H13   H     H_    0.008831 0.947741 0.256714 0.066102
O9    O     O_2   0.989570 0.105772 0.362240 -0.617838
C26   C     C_2   0.044647 0.988916 0.667503 0.392162
H14   H     H_    0.983397 0.052641 0.728838 0.066182
O10   O     O_2   0.003542 0.895325 0.622245 -0.607129
C27   C     C_2   0.890740 0.564902 0.638998 0.497727
H15   H     H_    0.798083 0.634031 0.638758 0.126414
O11   O     O_2   0.962165 0.544253 0.737280 -0.606010
C28   C     C_2   0.126687 0.378884 0.407805 0.524646
H16   H     H_    0.150214 0.279835 0.436905 0.104904
O12   O     O_2   0.135195 0.404688 0.299834 -0.569072

loop_
_geom_bond_atom_site_label_1
_geom_bond_atom_site_label_2
_ccdc_geom_bond_type
C10   O8    A    
C19   C23   A    
C27   H15   S    
C1    C3    S    
C9    C24   S    
C9    O7    A    
C18   H6    S    
C12   C22   A    
C10   C23   S    
C17   H5    S    
C7    C28   S    
C2    C4    S    
C10   O6    A    
C11   H3    S    
C5    H8    S    
C26   O10   D    
C25   O9    D    
C27   O11   D    
C6    H7    S    
C7    N1    D    
C7    C8    S    
C16   C18   A    
N1    Zn2   S    
C11   C13   A    
N2    Zn1   S    
C8    N2    D    
C2    O4    A    
C13   C25   S    
C8    C27   S    
C4    C6    D    
H12   N1    S    
C19   C21   A    
O3    Zn2   S    
C20   C22   A    
C18   C20   A    
O4    Zn1   S    
C13   C15   A    
C5    C6    S    
C20   C24   A    
C14   C16   A    
C9    O5    A    
C1    O1    A    
C28   O12   D    
C2    O2    A    
H11   N2    S    
C26   H14   S    
C12   H4    S    
O1    Zn1   S    
C25   H13   S    
C21   C24   A    
C1    O3    A    
C16   H1    S    
C15   C17   A    
O2    Zn2   S    
O8    Zn1   S    
C15   H2    S    
O7    Zn2   S    
C3    H10   S    
C17   C19   A    
C28   H16   S    
C4    H9    S    
O5    Zn1   S    
C11   C21   A    
C22   C23   A    
C14   C26   S    
O6    Zn2   S    
C12   C14   A    
C3    C5    D    
