data_mof_unit_61930.cif
_audit_creation_date              2013-03-05T16:22:51-0500
_audit_creation_method            fapswitch 2.2
_symmetry_space_group_name_H-M    P1
_symmetry_Int_Tables_number       1
_space_group_crystal_system       triclinic
_cell_length_a                    30.774254
_cell_length_b                    29.140563
_cell_length_c                    30.487552
_cell_angle_alpha                 89.94225
_cell_angle_beta                  90.034337
_cell_angle_gamma                 90.282204
_cell_volume                      27340.2487117

loop_
_atom_site_label
_atom_site_type_symbol
_atom_site_description
_atom_site_fract_x
_atom_site_fract_y
_atom_site_fract_z
_atom_type_partial_charge
O1    O     O_R   0.321670 1.000000 0.730060 -0.625487
O2    O     O_R   0.678330 1.000000 0.730060 -0.627449
O3    O     O_R   0.821670 0.500000 0.730060 -0.624858
O4    O     O_R   0.178330 0.500000 0.730060 -0.625513
O5    O     O_R   0.821670 0.000000 0.230060 -0.624389
O6    O     O_R   0.178330 0.000000 0.230060 -0.627786
O7    O     O_R   0.321670 0.500000 0.230060 -0.625361
O8    O     O_R   0.678330 0.500000 0.230060 -0.624357
O9    O     O_R   0.269940 0.000000 0.678340 -0.617009
O10   O     O_R   0.730060 0.000000 0.678340 -0.616509
O11   O     O_R   0.769940 0.500000 0.678340 -0.617038
O12   O     O_R   0.230060 0.500000 0.678340 -0.616653
O13   O     O_R   0.769940 1.000000 0.178340 -0.615358
O14   O     O_R   0.230060 1.000000 0.178340 -0.616313
O15   O     O_R   0.269940 0.500000 0.178340 -0.617218
O16   O     O_R   0.730060 0.500000 0.178340 -0.615041
C1    C     C_R   0.309805 0.000424 0.689839 0.847313
C2    C     C_R   0.690199 0.999542 0.689843 0.846315
C3    C     C_R   0.809809 0.500449 0.689831 0.847521
C4    C     C_R   0.190203 0.499550 0.689847 0.848228
C5    C     C_R   0.809752 0.000350 0.189875 0.846669
C6    C     C_R   0.190212 0.000448 0.189843 0.846041
C7    C     C_R   0.309808 0.500397 0.189824 0.847207
C8    C     C_R   0.690261 0.500452 0.189887 0.847577
O17   O     O_R   0.275870 0.936860 0.775860 -0.581077
O18   O     O_R   0.724130 0.063140 0.775860 -0.586901
O19   O     O_R   0.724130 0.936860 0.775860 -0.583699
O20   O     O_R   0.275870 0.063140 0.775860 -0.603756
O21   O     O_R   0.775870 0.436860 0.775860 -0.609265
O22   O     O_R   0.224130 0.563140 0.775860 -0.599461
O23   O     O_R   0.224130 0.436860 0.775860 -0.574829
O24   O     O_R   0.775870 0.563140 0.775860 -0.581301
O25   O     O_R   0.775870 0.936860 0.275860 -0.580998
O26   O     O_R   0.224130 0.063140 0.275860 -0.582729
O27   O     O_R   0.224130 0.936860 0.275860 -0.588148
O28   O     O_R   0.775870 0.063140 0.275860 -0.603330
O29   O     O_R   0.275870 0.436860 0.275860 -0.583301
O30   O     O_R   0.724130 0.563140 0.275860 -0.573048
O31   O     O_R   0.724130 0.436860 0.275860 -0.601082
O32   O     O_R   0.275870 0.563140 0.275860 -0.607173
O33   O     O_R   0.224140 0.936870 0.724140 -0.602509
O34   O     O_R   0.775860 0.063130 0.724140 -0.601021
O35   O     O_R   0.775860 0.936870 0.724140 -0.592073
O36   O     O_R   0.224140 0.063130 0.724140 -0.578650
O37   O     O_R   0.724140 0.436870 0.724140 -0.576174
O38   O     O_R   0.275860 0.563130 0.724140 -0.582226
O39   O     O_R   0.275860 0.436870 0.724140 -0.608077
O40   O     O_R   0.724140 0.563130 0.724140 -0.593471
O41   O     O_R   0.724140 0.936870 0.224140 -0.601955
O42   O     O_R   0.275860 0.063130 0.224140 -0.594467
O43   O     O_R   0.275860 0.936870 0.224140 -0.599256
O44   O     O_R   0.724140 0.063130 0.224140 -0.579099
O45   O     O_R   0.224140 0.436870 0.224140 -0.589856
O46   O     O_R   0.775860 0.563130 0.224140 -0.608379
O47   O     O_R   0.775860 0.436870 0.224140 -0.581249
O48   O     O_R   0.224140 0.563130 0.224140 -0.579591
C9    C     C_R   0.249979 0.914247 0.749941 0.886949
C10   C     C_R   0.749869 0.085744 0.749743 0.919016
C11   C     C_R   0.749975 0.914253 0.750106 0.893638
C12   C     C_R   0.250235 0.085757 0.749853 0.913412
C13   C     C_R   0.750150 0.414247 0.749782 0.915998
C14   C     C_R   0.249819 0.585745 0.749712 0.921580
C15   C     C_R   0.249989 0.414255 0.750108 0.877702
C16   C     C_R   0.749964 0.585754 0.750125 0.890523
C17   C     C_R   0.749981 0.914246 0.249948 0.885722
C18   C     C_R   0.250082 0.085747 0.249985 0.894076
C19   C     C_R   0.249737 0.914254 0.249837 0.919302
C20   C     C_R   0.750224 0.085756 0.249855 0.911966
C21   C     C_R   0.249905 0.414245 0.250035 0.895355
C22   C     C_R   0.750099 0.585747 0.249994 0.876629
C23   C     C_R   0.749695 0.414255 0.249814 0.919833
C24   C     C_R   0.250222 0.585756 0.249859 0.911418
Zn1   Zn    Zn3+2 0.284540 0.000000 0.784540 1.064226
Zn2   Zn    Zn3+2 0.715460 0.000000 0.784540 1.070357
Zn3   Zn    Zn3+2 0.784540 0.500000 0.784540 1.043220
Zn4   Zn    Zn3+2 0.215460 0.500000 0.784540 1.071791
Zn5   Zn    Zn3+2 0.784540 0.000000 0.284540 1.066435
Zn6   Zn    Zn3+2 0.215460 0.000000 0.284540 1.071223
Zn7   Zn    Zn3+2 0.284540 0.500000 0.284540 1.043915
Zn8   Zn    Zn3+2 0.715460 0.500000 0.284540 1.073504
Zn9   Zn    Zn3+2 0.215460 0.000000 0.715470 1.053025
Zn10  Zn    Zn3+2 0.784540 0.000000 0.715470 1.043720
Zn11  Zn    Zn3+2 0.715460 0.500000 0.715470 1.075713
Zn12  Zn    Zn3+2 0.284540 0.500000 0.715470 1.041714
Zn13  Zn    Zn3+2 0.715460 0.000000 0.215470 1.054109
Zn14  Zn    Zn3+2 0.284540 0.000000 0.215470 1.042976
Zn15  Zn    Zn3+2 0.215460 0.500000 0.215470 1.075265
Zn16  Zn    Zn3+2 0.784540 0.500000 0.215470 1.042990
O49   O     O_R   0.230060 0.000000 0.821670 -0.568098
O50   O     O_R   0.769940 0.000000 0.821670 -0.552352
O51   O     O_R   0.730060 0.500000 0.821670 -0.602265
O52   O     O_R   0.269940 0.500000 0.821670 -0.560221
O53   O     O_R   0.730060 0.000000 0.321670 -0.568373
O54   O     O_R   0.269940 0.000000 0.321670 -0.552582
O55   O     O_R   0.230060 0.500000 0.321670 -0.602025
O56   O     O_R   0.769940 0.500000 0.321670 -0.561202
O57   O     O_R   0.178330 0.000000 0.769950 -0.584715
O58   O     O_R   0.821670 0.000000 0.769950 -0.600859
O59   O     O_R   0.678330 0.500000 0.769950 -0.557086
O60   O     O_R   0.321670 0.500000 0.769950 -0.599970
O61   O     O_R   0.678330 0.000000 0.269950 -0.584379
O62   O     O_R   0.321670 0.000000 0.269950 -0.601361
O63   O     O_R   0.178330 0.500000 0.269950 -0.557317
O64   O     O_R   0.821670 0.500000 0.269950 -0.599308
C25   C     C_R   0.190301 0.000804 0.810054 0.970329
C26   C     C_R   0.809763 0.000262 0.809972 0.980151
C27   C     C_R   0.690229 0.499482 0.810093 0.991473
C28   C     C_R   0.309799 0.501257 0.810028 0.967972
C29   C     C_R   0.690299 0.000834 0.310058 0.969431
C30   C     C_R   0.309760 0.999629 0.309978 0.980410
C31   C     C_R   0.190231 0.500635 0.310097 0.991452
C32   C     C_R   0.809785 0.498631 0.310031 0.967030
C33   C     C_1   0.249958 0.863430 0.749776 -0.111738
C34   C     C_1   0.749973 0.136567 0.749606 -0.124545
C35   C     C_1   0.749942 0.863434 0.750354 -0.102143
C36   C     C_1   0.250276 0.136582 0.749987 -0.125403
C37   C     C_1   0.750120 0.363424 0.749666 -0.129739
C38   C     C_1   0.249874 0.636571 0.749571 -0.122870
C39   C     C_1   0.249973 0.363438 0.750294 -0.122543
C40   C     C_1   0.749914 0.636571 0.750370 -0.111585
C41   C     C_1   0.749981 0.863428 0.249828 -0.112181
C42   C     C_1   0.250200 0.136567 0.249967 -0.104724
C43   C     C_1   0.249677 0.863431 0.249947 -0.121119
C44   C     C_1   0.750238 0.136579 0.249946 -0.127568
C45   C     C_1   0.249810 0.363428 0.250055 -0.115306
C46   C     C_1   0.750227 0.636567 0.249937 -0.124703
C47   C     C_1   0.749593 0.363430 0.249908 -0.124107
C48   C     C_1   0.250244 0.636580 0.249956 -0.126643
C49   C     C_1   0.249942 0.821124 0.749702 0.060592
C50   C     C_1   0.750029 0.178873 0.749576 0.038791
C51   C     C_1   0.749942 0.821128 0.750524 0.067074
C52   C     C_1   0.250238 0.178889 0.750117 0.037800
C53   C     C_1   0.750098 0.321118 0.749619 0.033607
C54   C     C_1   0.249905 0.678879 0.749559 0.039569
C55   C     C_1   0.250021 0.321133 0.750360 0.053725
C56   C     C_1   0.749891 0.678878 0.750535 0.065020
C57   C     C_1   0.750028 0.821121 0.249834 0.061469
C58   C     C_1   0.250193 0.178874 0.250035 0.064393
C59   C     C_1   0.249744 0.821126 0.250012 0.040915
C60   C     C_1   0.750132 0.178885 0.249989 0.034792
C61   C     C_1   0.249845 0.321121 0.250106 0.061961
C62   C     C_1   0.750239 0.678874 0.249934 0.054147
C63   C     C_1   0.749653 0.321125 0.249963 0.036390
C64   C     C_1   0.250157 0.678886 0.250012 0.035304
C65   C     C_1   0.249929 0.771157 0.749644 0.045154
C66   C     C_1   0.750064 0.228841 0.749577 0.037547
C67   C     C_1   0.749925 0.771158 0.750632 0.057616
C68   C     C_1   0.250166 0.228857 0.750256 0.040318
C69   C     C_1   0.750080 0.271149 0.749590 0.035959
C70   C     C_1   0.249922 0.728848 0.749598 0.041005
C71   C     C_1   0.250099 0.271165 0.750336 0.044717
C72   C     C_1   0.749903 0.728848 0.750635 0.057386
C73   C     C_1   0.750112 0.771153 0.249885 0.048403
C74   C     C_1   0.250090 0.228843 0.250108 0.055271
C75   C     C_1   0.249881 0.771160 0.250047 0.039330
C76   C     C_1   0.749956 0.228852 0.250007 0.036027
C77   C     C_1   0.249969 0.271151 0.250131 0.055201
C78   C     C_1   0.750184 0.728844 0.249919 0.048088
C79   C     C_1   0.749805 0.271158 0.249998 0.036403
C80   C     C_1   0.250010 0.728853 0.250046 0.037549
C81   C     C_R   0.372316 0.964689 0.655438 0.107686
C82   C     C_R   0.627366 0.034974 0.655678 0.107188
C83   C     C_R   0.872794 0.465123 0.655878 0.108938
C84   C     C_R   0.127723 0.535281 0.655347 0.104958
C85   C     C_R   0.866884 0.961152 0.150302 0.105391
C86   C     C_R   0.127068 0.965064 0.155724 0.108485
C87   C     C_R   0.373301 0.465492 0.156379 0.110373
C88   C     C_R   0.632915 0.461303 0.150146 0.100957
C89   C     C_R   0.341656 0.999561 0.656141 -0.082521
C90   C     C_R   0.658343 0.000415 0.656135 -0.081631
C91   C     C_R   0.841662 0.499537 0.656115 -0.083896
C92   C     C_R   0.158353 0.500390 0.656147 -0.081335
C93   C     C_R   0.841460 0.999903 0.156189 -0.070754
C94   C     C_R   0.158360 0.999620 0.156139 -0.079277
C95   C     C_R   0.341645 0.499376 0.156086 -0.084086
C96   C     C_R   0.658533 0.500129 0.156225 -0.070992
C97   C     C_R   0.339035 0.030732 0.621194 -0.190714
C98   C     C_R   0.661235 0.969617 0.620967 -0.188184
C99   C     C_R   0.838627 0.530135 0.620729 -0.184187
C100  C     C_R   0.160962 0.469197 0.621281 -0.189799
C101  C     C_R   0.842944 0.035784 0.125631 -0.196023
C102  C     C_R   0.161413 0.030612 0.121057 -0.190361
C103  C     C_R   0.338234 0.529417 0.120301 -0.186499
C104  C     C_R   0.657153 0.536242 0.125917 -0.192761
H1    H     H_    0.313592 0.056279 0.619973 0.163444
H2    H     H_    0.686914 0.944348 0.619569 0.165251
H3    H     H_    0.812845 0.555279 0.619149 0.165566
H4    H     H_    0.186401 0.443646 0.620139 0.164214
H5    H     H_    0.821049 0.064672 0.128160 0.154235
H6    H     H_    0.187300 0.055915 0.119666 0.161952
H7    H     H_    0.312112 0.554139 0.118359 0.164924
H8    H     H_    0.679201 0.565214 0.128615 0.156474
C105  C     C_R   0.371332 0.030879 0.589303 -0.191477
C106  C     C_R   0.628921 0.969454 0.589065 -0.196926
C107  C     C_R   0.870923 0.530285 0.588833 -0.194514
C108  C     C_R   0.128655 0.469046 0.589372 -0.194467
C109  C     C_R   0.874953 0.035710 0.093441 -0.189057
C110  C     C_R   0.129020 0.030901 0.089238 -0.197640
C111  C     C_R   0.370572 0.529634 0.088459 -0.193536
C112  C     C_R   0.625077 0.536231 0.093752 -0.191559
C113  C     C_R   0.405020 0.998826 0.591997 -0.111351
C114  C     C_R   0.594946 0.001121 0.592009 -0.109996
C115  C     C_R   0.905040 0.498796 0.591987 -0.109868
C116  C     C_R   0.094981 0.501106 0.591994 -0.111299
C117  C     C_R   0.904246 0.999036 0.091468 -0.118257
C118  C     C_R   0.094791 0.999191 0.092190 -0.110212
C119  C     C_R   0.405135 0.498766 0.092076 -0.110824
C120  C     C_R   0.595632 0.499404 0.091597 -0.119325
C121  C     C_R   0.403471 0.963994 0.623259 0.146888
C122  C     C_R   0.596191 0.035664 0.623498 0.146570
C123  C     C_R   0.903950 0.464407 0.623703 0.148049
C124  C     C_R   0.096555 0.535964 0.623158 0.145891
C125  C     C_R   0.897884 0.960583 0.117966 0.154957
C126  C     C_R   0.095758 0.964564 0.123662 0.149715
C127  C     C_R   0.404560 0.464873 0.124285 0.148533
C128  C     C_R   0.601856 0.460812 0.117859 0.153823
C129  C     C_3   0.437933 0.948604 0.654432 -0.497335
C130  C     C_3   0.561601 0.050393 0.654752 -0.498299
C131  C     C_3   0.938618 0.449972 0.655062 -0.499138
C132  C     C_3   0.062115 0.551393 0.654268 -0.496163
C133  C     C_3   0.929591 0.935722 0.146382 -0.487014
C134  C     C_3   0.061106 0.950080 0.155123 -0.509513
C135  C     C_3   0.439407 0.451855 0.156004 -0.514172
C136  C     C_3   0.570075 0.435615 0.146151 -0.484587
C137  C     C_3   0.403479 0.949538 0.690037 -0.453890
C138  C     C_3   0.596084 0.049459 0.690369 -0.456079
C139  C     C_3   0.904163 0.450934 0.690664 -0.455153
C140  C     C_3   0.096590 0.550471 0.689894 -0.455738
C141  C     C_3   0.895270 0.936429 0.182126 -0.471469
C142  C     C_3   0.095770 0.950582 0.190543 -0.451326
C143  C     C_3   0.404819 0.452500 0.191454 -0.445493
C144  C     C_3   0.604476 0.436242 0.181860 -0.473117
H9    H     H_    0.449551 0.913443 0.646828 0.219652
H10   H     H_    0.549657 0.085505 0.647388 0.218217
H11   H     H_    0.535766 0.023977 0.659200 0.192421
H12   H     H_    0.464011 0.974710 0.659084 0.192078
H13   H     H_    0.950687 0.414875 0.647924 0.219020
H14   H     H_    0.050507 0.586553 0.646564 0.218265
H15   H     H_    0.036032 0.525302 0.658973 0.192290
H16   H     H_    0.964359 0.476514 0.659353 0.192361
H17   H     H_    0.936541 0.900672 0.133955 0.216815
H18   H     H_    0.035915 0.976859 0.159757 0.194253
H19   H     H_    0.048392 0.915141 0.147826 0.216316
H20   H     H_    0.958722 0.956813 0.154304 0.193724
H21   H     H_    0.452410 0.417008 0.149453 0.216340
H22   H     H_    0.541065 0.456513 0.154229 0.194062
H23   H     H_    0.562919 0.400615 0.133517 0.215919
H24   H     H_    0.464378 0.479242 0.160015 0.194901
C145  C     C_R   0.157327 0.971189 0.875957 -0.023539
C146  C     C_R   0.861449 0.960453 0.854592 -0.034875
C147  C     C_R   0.659931 0.528062 0.877707 -0.016178
C148  C     C_R   0.349375 0.463682 0.867514 -0.062034
C149  C     C_R   0.657593 0.971554 0.376253 -0.023237
C150  C     C_R   0.360952 0.039528 0.355437 -0.034701
C151  C     C_R   0.160068 0.472718 0.378191 -0.014840
C152  C     C_R   0.849063 0.535769 0.368154 -0.062379
C153  C     C_R   0.158279 0.003999 0.843158 -0.196926
C154  C     C_R   0.842582 0.001767 0.842400 -0.182855
C155  C     C_R   0.658199 0.496569 0.843492 -0.193243
C156  C     C_R   0.342699 0.502938 0.842609 -0.175143
C157  C     C_R   0.658270 0.004060 0.343167 -0.197544
C158  C     C_R   0.342559 0.998096 0.342428 -0.183114
C159  C     C_R   0.158241 0.503698 0.343517 -0.194113
C160  C     C_R   0.842654 0.496882 0.342640 -0.176005
C161  C     C_R   0.125748 0.038373 0.842580 0.308895
C162  C     C_R   0.861381 0.043803 0.855611 0.306267
C163  C     C_R   0.626075 0.461713 0.843556 0.310231
C164  C     C_R   0.373370 0.539241 0.844033 0.316049
C165  C     C_R   0.625459 0.038135 0.342315 0.309589
C166  C     C_R   0.361815 0.956186 0.354842 0.306364
C167  C     C_R   0.126135 0.538258 0.343210 0.310549
C168  C     C_R   0.873475 0.461010 0.343662 0.316926
C169  C     C_R   0.092910 0.036713 0.874554 -0.257449
C170  C     C_R   0.895186 0.042679 0.886104 -0.240453
C171  C     C_R   0.593558 0.463431 0.875467 -0.251986
C172  C     C_R   0.406625 0.537152 0.875212 -0.245540
C173  C     C_R   0.592621 0.036449 0.374290 -0.257464
C174  C     C_R   0.395633 0.957336 0.385345 -0.238525
C175  C     C_R   0.093702 0.536656 0.375249 -0.252180
C176  C     C_R   0.906655 0.463063 0.374947 -0.245996
C177  C     C_R   0.092170 0.001110 0.905697 -0.117295
C178  C     C_R   0.909122 0.000565 0.903425 -0.132063
C179  C     C_R   0.593454 0.498859 0.906584 -0.125590
C180  C     C_R   0.409367 0.499370 0.903556 -0.134959
C181  C     C_R   0.592164 0.001110 0.405707 -0.115464
C182  C     C_R   0.409143 0.999347 0.403416 -0.132810
C183  C     C_R   0.093649 0.501602 0.406802 -0.124806
C184  C     C_R   0.909194 0.500425 0.403756 -0.133580
C185  C     C_R   0.124615 0.968735 0.904884 0.022103
C186  C     C_R   0.894149 0.959751 0.885138 0.040711
C187  C     C_R   0.628583 0.528706 0.909364 0.025491
C188  C     C_R   0.383033 0.461191 0.896697 0.067527
C189  C     C_R   0.624886 0.969046 0.405184 0.023105
C190  C     C_R   0.393694 0.040237 0.385933 0.042780
C191  C     C_R   0.128791 0.472168 0.409912 0.024121
C192  C     C_R   0.882670 0.538287 0.397398 0.070080
C193  C     C_3   0.139306 0.925004 0.925376 -0.520157
C194  C     C_3   0.878183 0.916515 0.906348 -0.509629
C195  C     C_3   0.631673 0.579442 0.916163 -0.511092
C196  C     C_3   0.358288 0.431694 0.928326 -0.525397
C197  C     C_3   0.639972 0.925687 0.426098 -0.523871
C198  C     C_3   0.377280 0.082569 0.408052 -0.513998
C199  C     C_3   0.131981 0.421581 0.417517 -0.513238
C200  C     C_3   0.857754 0.566815 0.429429 -0.531918
C201  C     C_3   0.176964 0.927233 0.891911 0.511636
C202  C     C_3   0.841536 0.917153 0.872532 0.488462
C203  C     C_3   0.666492 0.579236 0.880283 0.488773
C204  C     C_3   0.320155 0.435192 0.896325 0.510302
C205  C     C_3   0.677630 0.927971 0.392632 0.513355
C206  C     C_3   0.340564 0.081892 0.374320 0.490771
C207  C     C_3   0.166724 0.421670 0.381558 0.490263
C208  C     C_3   0.819662 0.563251 0.397352 0.511915
O65   O     O_R   0.954170 0.964330 0.954180 -0.616312
O66   O     O_R   0.045830 0.035670 0.954180 -0.626320
O67   O     O_R   0.045830 0.964330 0.954180 -0.614429
O68   O     O_R   0.954170 0.035670 0.954180 -0.629447
O69   O     O_R   0.454170 0.464330 0.954180 -0.615308
O70   O     O_R   0.545830 0.535670 0.954180 -0.620296
O71   O     O_R   0.545830 0.464330 0.954180 -0.623022
O72   O     O_R   0.454170 0.535670 0.954180 -0.623477
O73   O     O_R   0.454170 0.964330 0.454180 -0.625046
O74   O     O_R   0.545830 0.035670 0.454180 -0.624432
O75   O     O_R   0.545830 0.964330 0.454180 -0.615920
O76   O     O_R   0.454170 0.035670 0.454180 -0.620115
O77   O     O_R   0.954170 0.464330 0.454180 -0.621263
O78   O     O_R   0.045830 0.535670 0.454180 -0.622256
O79   O     O_R   0.045830 0.464330 0.454180 -0.621003
O80   O     O_R   0.954170 0.535670 0.454180 -0.616911
C209  C     C_R   0.939266 0.000017 0.939107 0.943391
C210  C     C_R   0.059914 0.000149 0.938686 0.947564
C211  C     C_R   0.439391 0.499879 0.939117 0.939214
C212  C     C_R   0.559965 0.499982 0.938585 0.946958
C213  C     C_R   0.439279 0.999893 0.439099 0.943015
C214  C     C_R   0.559921 0.000149 0.438698 0.947673
C215  C     C_R   0.939348 0.500017 0.439175 0.940478
C216  C     C_R   0.060026 0.500181 0.438650 0.946394
O81   O     O_R   0.454180 0.964360 0.545790 -0.615549
O82   O     O_R   0.545820 0.035640 0.545790 -0.616069
O83   O     O_R   0.545820 0.964360 0.545790 -0.626299
O84   O     O_R   0.454180 0.035640 0.545790 -0.627400
O85   O     O_R   0.954180 0.464360 0.545790 -0.614967
O86   O     O_R   0.045820 0.535640 0.545790 -0.616329
O87   O     O_R   0.045820 0.464360 0.545790 -0.626053
O88   O     O_R   0.954180 0.535640 0.545790 -0.627564
O89   O     O_R   0.954180 0.964360 0.045790 -0.621108
O90   O     O_R   0.045820 0.035640 0.045790 -0.620896
O91   O     O_R   0.045820 0.964360 0.045790 -0.620937
O92   O     O_R   0.954180 0.035640 0.045790 -0.623385
O93   O     O_R   0.454180 0.464360 0.045790 -0.621639
O94   O     O_R   0.545820 0.535640 0.045790 -0.624470
O95   O     O_R   0.545820 0.464360 0.045790 -0.619252
O96   O     O_R   0.454180 0.535640 0.045790 -0.620358
C217  C     C_R   0.439758 0.999838 0.561208 0.901216
C218  C     C_R   0.560247 0.000134 0.561191 0.900980
C219  C     C_R   0.939746 0.499835 0.561184 0.899041
C220  C     C_R   0.060252 0.500133 0.561194 0.902580
C221  C     C_R   0.939492 0.999851 0.061049 0.901707
C222  C     C_R   0.060217 0.999970 0.061223 0.902652
C223  C     C_R   0.439784 0.499830 0.061216 0.900886
C224  C     C_R   0.560492 0.499988 0.061060 0.903489
Zn17  Zn    Zn3+2 1.000000 0.952400 0.999990 0.994116
Zn18  Zn    Zn3+2 0.000000 0.047600 0.999990 0.997409
Zn19  Zn    Zn3+2 0.500000 0.452400 0.999990 0.995704
Zn20  Zn    Zn3+2 0.500000 0.547600 0.999990 0.998350
Zn21  Zn    Zn3+2 0.500000 0.952400 0.499990 0.999631
Zn22  Zn    Zn3+2 0.500000 0.047600 0.499990 0.994177
Zn23  Zn    Zn3+2 1.000000 0.452400 0.499990 0.998588
Zn24  Zn    Zn3+2 0.000000 0.547600 0.499990 0.997655
H25   H     H_    0.370710 0.056464 0.563498 0.170427
H26   H     H_    0.629762 0.944160 0.563053 0.167625
H27   H     H_    0.869959 0.555445 0.562658 0.167409
H28   H     H_    0.129259 0.443461 0.563616 0.169916
H29   H     H_    0.877714 0.064655 0.071272 0.173607
H30   H     H_    0.130033 0.056281 0.063258 0.170237
H31   H     H_    0.369284 0.554388 0.061953 0.172898
H32   H     H_    0.622422 0.565277 0.071721 0.172958
H33   H     H_    0.395259 0.914922 0.703043 0.210659
H34   H     H_    0.603992 0.084025 0.703627 0.208395
H35   H     H_    0.590305 0.022413 0.715490 0.222337
H36   H     H_    0.409515 0.976274 0.715355 0.221892
H37   H     H_    0.896396 0.416399 0.704138 0.209081
H38   H     H_    0.104832 0.585093 0.702814 0.208472
H39   H     H_    0.090558 0.523757 0.715277 0.222700
H40   H     H_    0.909864 0.478123 0.715616 0.222358
H41   H     H_    0.882331 0.901784 0.190303 0.209141
H42   H     H_    0.090521 0.977505 0.215794 0.222685
H43   H     H_    0.103230 0.915887 0.203635 0.208254
H44   H     H_    0.904524 0.957907 0.210815 0.223557
H45   H     H_    0.397710 0.417980 0.205320 0.210100
H46   H     H_    0.595397 0.457491 0.210686 0.223780
H47   H     H_    0.617252 0.401604 0.189815 0.207739
H48   H     H_    0.409878 0.480133 0.216095 0.222097
N1    N     N_R   0.125996 0.075140 0.811071 0.219221
O97   O     O_R   0.162456 0.093860 0.798799 -0.406008
O98   O     O_R   0.089689 0.094169 0.799128 -0.354395
N2    N     N_R   0.845346 0.087360 0.840543 0.201023
O99   O     O_R   0.803887 0.093821 0.835296 -0.400431
O100  O     O_R   0.871503 0.122464 0.837708 -0.364074
N3    N     N_R   0.625627 0.425274 0.811752 0.218151
O101  O     O_R   0.661767 0.406510 0.799133 -0.412386
O102  O     O_R   0.589003 0.406492 0.799922 -0.354673
N4    N     N_R   0.369592 0.579339 0.816754 0.215629
O103  O     O_R   0.331608 0.595979 0.807235 -0.404004
O104  O     O_R   0.404115 0.602770 0.806078 -0.352313
N5    N     N_R   0.625438 0.074654 0.310541 0.218879
O105  O     O_R   0.661757 0.093617 0.298179 -0.407192
O106  O     O_R   0.588986 0.093256 0.298429 -0.356834
N6    N     N_R   0.346112 0.912653 0.339066 0.201656
O107  O     O_R   0.304671 0.905417 0.334122 -0.401242
O108  O     O_R   0.372584 0.878180 0.335403 -0.364411
N7    N     N_R   0.125612 0.574267 0.310912 0.218529
O109  O     O_R   0.161710 0.593414 0.298153 -0.412005
O110  O     O_R   0.088946 0.592398 0.298798 -0.354280
N8    N     N_R   0.869915 0.421314 0.315857 0.215660
O111  O     O_R   0.832023 0.404139 0.306230 -0.405640
O112  O     O_R   0.904570 0.398662 0.304840 -0.353227
H49   H     H_    0.068066 0.062942 0.875090 0.199166
H50   H     H_    0.908428 0.074714 0.898368 0.204551
H51   H     H_    0.567839 0.437878 0.875437 0.197677
H52   H     H_    0.428829 0.565883 0.878845 0.202008
H53   H     H_    0.567563 0.062454 0.374620 0.198094
H54   H     H_    0.409223 0.925339 0.397025 0.205115
H55   H     H_    0.067964 0.561919 0.374925 0.197470
H56   H     H_    0.929002 0.434636 0.378236 0.201304
H57   H     H_    0.149328 0.930042 0.960094 0.207557
H58   H     H_    0.901586 0.887943 0.901932 0.219319
H59   H     H_    0.867559 0.921926 0.940809 0.219550
H60   H     H_    0.115818 0.896495 0.919827 0.232007
H61   H     H_    0.601169 0.597294 0.906794 0.222096
H62   H     H_    0.372483 0.396823 0.931160 0.230240
H63   H     H_    0.352905 0.449172 0.960288 0.200854
H64   H     H_    0.644026 0.588173 0.949403 0.219207
H65   H     H_    0.649920 0.931190 0.460777 0.201124
H66   H     H_    0.366810 0.076077 0.442423 0.215099
H67   H     H_    0.400336 0.111787 0.404165 0.219614
H68   H     H_    0.616754 0.896880 0.420807 0.233347
H69   H     H_    0.144419 0.413517 0.450867 0.217870
H70   H     H_    0.852453 0.548693 0.461141 0.196037
H71   H     H_    0.871759 0.601863 0.432767 0.230813
H72   H     H_    0.101495 0.403204 0.408497 0.222599
N9    N     N_R   0.219555 0.932633 0.913029 0.215858
O113  O     O_R   0.235132 0.899353 0.936676 -0.324648
O114  O     O_R   0.241178 0.971024 0.910316 -0.363329
N10   N     N_R   0.843314 0.878456 0.841864 0.206975
O115  O     O_R   0.847917 0.885354 0.799929 -0.397863
O116  O     O_R   0.838011 0.836776 0.856311 -0.327857
N11   N     N_R   0.798129 0.923699 0.891542 0.202573
O117  O     O_R   0.765328 0.899191 0.877953 -0.321372
O118  O     O_R   0.791494 0.955531 0.920693 -0.380405
N12   N     N_R   0.175919 0.890622 0.858875 0.187342
O119  O     O_R   0.140606 0.882381 0.836636 -0.392199
O120  O     O_R   0.210667 0.867002 0.850333 -0.344896
N13   N     N_R   0.653011 0.605737 0.841516 0.194216
O121  O     O_R   0.638171 0.585746 0.806398 -0.398138
O122  O     O_R   0.651841 0.650297 0.843832 -0.323976
N14   N     N_R   0.307820 0.391636 0.875372 0.196790
O123  O     O_R   0.267227 0.382580 0.866887 -0.334658
O124  O     O_R   0.337541 0.364316 0.860105 -0.388596
N15   N     N_R   0.283091 0.459631 0.915700 0.215739
O125  O     O_R   0.281861 0.504282 0.915875 -0.374664
O126  O     O_R   0.256461 0.437291 0.941175 -0.318661
N16   N     N_R   0.710210 0.591569 0.895778 0.211666
O127  O     O_R   0.735109 0.618255 0.872394 -0.326428
O128  O     O_R   0.725998 0.572822 0.931109 -0.375135
N17   N     N_R   0.720155 0.934031 0.413730 0.215604
O129  O     O_R   0.736047 0.901135 0.437651 -0.324386
O130  O     O_R   0.741375 0.972650 0.410759 -0.363046
N18   N     N_R   0.297299 0.073844 0.393304 0.202359
O131  O     O_R   0.291129 0.041133 0.421795 -0.382445
O132  O     O_R   0.264176 0.097931 0.380352 -0.320292
N19   N     N_R   0.341794 0.121380 0.344466 0.207771
O133  O     O_R   0.336001 0.162554 0.359791 -0.327846
O134  O     O_R   0.346438 0.115648 0.302394 -0.398407
N20   N     N_R   0.676960 0.891028 0.359927 0.188345
O135  O     O_R   0.641702 0.882099 0.337839 -0.389673
O136  O     O_R   0.712007 0.867884 0.351430 -0.339265
N21   N     N_R   0.210492 0.410103 0.397149 0.211671
O137  O     O_R   0.235378 0.383357 0.374136 -0.325745
O138  O     O_R   0.226327 0.429576 0.432142 -0.376892
N22   N     N_R   0.782729 0.537860 0.416357 0.216013
O139  O     O_R   0.781638 0.493198 0.415715 -0.373456
O140  O     O_R   0.756040 0.559270 0.442234 -0.319479
N23   N     N_R   0.807086 0.606964 0.377018 0.198306
O141  O     O_R   0.766455 0.615435 0.368549 -0.327718
O142  O     O_R   0.836658 0.635079 0.362217 -0.383414
N24   N     N_R   0.153209 0.394422 0.343243 0.194681
O143  O     O_R   0.138553 0.413708 0.307729 -0.398957
O144  O     O_R   0.151970 0.349895 0.346306 -0.323557

loop_
_geom_bond_atom_site_label_1
_geom_bond_atom_site_label_2
_geom_bond_distance
_ccdc_geom_bond_type
O65   Zn17  2.015470 S    
N15   O125  1.301918 A    
O29   C21   1.299147 A    
C50   C66   1.456088 S    
C147  C187  1.365254 A    
C198  H66   1.112229 S    
C170  C178  1.404453 A    
C68   C71   1.232890 T    
C111  H31   1.083512 S    
C37   C53   1.232843 T    
N22   O139  1.301914 A    
O34   C10   1.300108 A    
O24   Zn3   1.878922 S    
C134  H18   1.111845 S    
C99   C107  1.390898 A    
C163  C171  1.397191 A    
O67   Zn17  2.014243 S    
C97   C105  1.390818 A    
O38   C14   1.300518 A    
O84   C217  1.225185 A    
O82   Zn22  2.015197 S    
C199  C207  1.531804 S    
N2    O100  1.301400 A    
N16   O128  1.302111 A    
N7    O110  1.301437 A    
O68   C209  1.223516 A    
C178  C209  1.429373 S    
C105  C113  1.401159 A    
C142  H43   1.111556 S    
O12   Zn12  2.022395 S    
C200  C208  1.529373 S    
C164  N4    1.438691 S    
O47   Zn16  1.876110 S    
C126  C134  1.493773 S    
C197  H68   1.111499 S    
C82   C138  1.493202 S    
C161  N1    1.438290 S    
O48   C24   1.299565 A    
O79   Zn23  2.014243 S    
C18   C42   1.480904 S    
O3    C3    1.279506 A    
O1    Zn1   2.016611 S    
C108  C116  1.401036 A    
C140  H39   1.112163 S    
O86   C220  1.221353 A    
C120  C128  1.393771 A    
C49   C65   1.456067 S    
C100  C108  1.390569 A    
C207  N21   1.468725 S    
O57   C25   1.276965 A    
C22   C46   1.480897 S    
C167  C175  1.397533 A    
O45   C21   1.299988 A    
C112  C120  1.402701 A    
C85   C141  1.492400 S    
C34   C50   1.232824 T    
C132  H14   1.111554 S    
C118  C126  1.392162 A    
C62   C78   1.456154 S    
C83   C139  1.493159 S    
O20   Zn1   1.878922 S    
O79   C216  1.225245 A    
C56   C72   1.456170 S    
C2    C90   1.420155 S    
C16   C40   1.480856 S    
C193  H60   1.111515 S    
C86   C94   1.389951 A    
O78   C216  1.220751 A    
Zn12  O60   2.015480 S    
O51   C27   1.275378 A    
C153  C161  1.419752 A    
O36   Zn9   1.876584 S    
C129  H9    1.111553 S    
C208  N22   1.471940 S    
C137  H33   1.111556 S    
C82   C122  1.372014 A    
C149  C205  1.499538 S    
O10   Zn10  2.022395 S    
C52   C68   1.456128 S    
N11   O118  1.302204 A    
C108  H28   1.083581 S    
C88   C144  1.492457 S    
O22   Zn4   1.876392 S    
C195  H64   1.111481 S    
C136  H23   1.111540 S    
O46   C22   1.300422 A    
C196  H62   1.111314 S    
C145  C185  1.340351 A    
O12   C4    1.275964 A    
O13   C5    1.274458 A    
C47   C63   1.232819 T    
C48   C64   1.232842 T    
O67   C210  1.222811 A    
C119  C223  1.422654 S    
O95   Zn19  2.013280 S    
O92   C221  1.225969 A    
C32   C160  1.418908 S    
Zn15  O63   2.016614 S    
C61   C77   1.456166 S    
C4    C92   1.419839 S    
N6    O108  1.301421 A    
C5    C93   1.417163 S    
C89   C97   1.401949 A    
C150  C206  1.502845 S    
O91   C222  1.220935 A    
O5    Zn5   2.016611 S    
C179  C212  1.420106 S    
C8    C96   1.416111 S    
O59   C27   1.277364 A    
C148  C156  1.388419 A    
O7    Zn7   2.016611 S    
C149  C157  1.383176 A    
N3    O102  1.301439 A    
C107  H27   1.083620 S    
O85   Zn23  2.016856 S    
C19   C43   1.481006 S    
C145  C201  1.499497 S    
O28   C20   1.299663 A    
Zn6   O54   2.022395 S    
C144  H47   1.111569 S    
N1    O97   1.300211 A    
O27   Zn6   1.879492 S    
O58   C26   1.274257 A    
C185  C193  1.490783 S    
O31   Zn8   1.879492 S    
C112  H32   1.083408 S    
C121  C129  1.493909 S    
N21   O138  1.302112 A    
N5    O105  1.300259 A    
O46   Zn16  1.879207 S    
C170  H50   1.083547 S    
C203  N13   1.471771 S    
O23   Zn4   1.879492 S    
C114  C218  1.422132 S    
O81   C217  1.221683 A    
C84   C124  1.372032 A    
O37   C13   1.299938 A    
C183  C191  1.386754 A    
C184  C192  1.389042 A    
N24   O143  1.300900 A    
O40   C16   1.299609 A    
C165  N5    1.438320 S    
C98   H2    1.083660 S    
C99   H3    1.083644 S    
C180  C188  1.389114 A    
C147  C203  1.505994 S    
O13   Zn13  2.023518 S    
O31   C23   1.300148 A    
C102  H6    1.083652 S    
C88   C96   1.388317 A    
C105  H25   1.083549 S    
C130  C138  1.518150 S    
O47   C23   1.299931 A    
C106  C114  1.400919 A    
C200  H70   1.112908 S    
O80   Zn24  2.013559 S    
C139  H40   1.112161 S    
C107  C115  1.400991 A    
C116  C220  1.422464 S    
C87   C127  1.372768 A    
C195  C203  1.531755 S    
O26   C18   1.299492 A    
N20   O135  1.302004 A    
C133  H17   1.111542 S    
O69   C211  1.222416 A    
N15   O126  1.301196 A    
O94   Zn20  2.015197 S    
C110  H30   1.083485 S    
C176  H56   1.083790 S    
O10   C2    1.276032 A    
C130  H11   1.112189 S    
O80   C215  1.221789 A    
N19   O134  1.301719 A    
O6    Zn6   2.015483 S    
O70   Zn20  2.017125 S    
O71   C212  1.220419 A    
N3    O101  1.300343 A    
C43   C59   1.232815 T    
C15   C39   1.480824 S    
C182  C190  1.390680 A    
C27   C155  1.419813 S    
C41   C57   1.232858 T    
C73   C78   1.232914 T    
O77   C215  1.225671 A    
O52   C28   1.277510 A    
C181  C214  1.413456 S    
C45   C61   1.232855 T    
N14   O123  1.301387 A    
C104  C112  1.390988 A    
C152  C208  1.503965 S    
C51   C67   1.456146 S    
O27   C19   1.300499 A    
C156  C164  1.414971 A    
C100  H4    1.083666 S    
C157  C165  1.419850 A    
C65   C70   1.232892 T    
C38   C54   1.232863 T    
Zn3   O51   2.023518 S    
C81   C89   1.390251 A    
C159  C167  1.414331 A    
O96   Zn20  2.013968 S    
C168  C176  1.397956 A    
O82   C218  1.221224 A    
C115  C123  1.392158 A    
O37   Zn11  1.878643 S    
O75   C214  1.222746 A    
C125  C133  1.494026 S    
C120  C224  1.426692 S    
C140  H38   1.111555 S    
C113  C121  1.392298 A    
Zn16  O64   2.015485 S    
O20   C12   1.299488 A    
C161  C169  1.405157 A    
O21   C13   1.299231 A    
O60   C28   1.276137 A    
O73   C213  1.224280 A    
O23   C15   1.300225 A    
O14   Zn14  2.022393 S    
O64   C32   1.276281 A    
C9    C33   1.480841 S    
C172  C180  1.401761 A    
O44   C20   1.299526 A    
C173  C181  1.405718 A    
O84   Zn22  2.013968 S    
N10   O115  1.301727 A    
O66   Zn18  2.017125 S    
C175  C183  1.402463 A    
O86   Zn24  2.015197 S    
C151  C207  1.506015 S    
N23   O141  1.301385 A    
C36   C52   1.232866 T    
C59   C75   1.456072 S    
C166  C174  1.395573 A    
O73   Zn21  2.015470 S    
C164  C172  1.397852 A    
O83   Zn21  2.013280 S    
C143  H45   1.111555 S    
O32   Zn7   1.878922 S    
C165  C173  1.405197 A    
O45   Zn15  1.878643 S    
O43   C19   1.299564 A    
O74   Zn22  2.017125 S    
C175  H55   1.084027 S    
C136  H22   1.111058 S    
O33   C9    1.299630 A    
C86   C126  1.372182 A    
O89   Zn17  2.016856 S    
C84   C92   1.390052 A    
C64   C80   1.456097 S    
C189  C197  1.490767 S    
Zn14  O62   2.015485 S    
O95   C224  1.222532 A    
C191  C199  1.495705 S    
N4    O103  1.300261 A    
C85   C125  1.372440 A    
C205  N20   1.468164 S    
C192  C200  1.497158 S    
O32   C24   1.299626 A    
O89   C221  1.223203 A    
C198  H67   1.111910 S    
O81   Zn21  2.016856 S    
N22   O140  1.301196 A    
C134  H19   1.111595 S    
C123  C131  1.493871 S    
O1    C1    1.279302 A    
C146  C186  1.370931 A    
O40   Zn11  1.876584 S    
O14   C6    1.275800 A    
C115  C219  1.422822 S    
O93   Zn19  2.016856 S    
O77   Zn23  2.015470 S    
O25   Zn5   1.876873 S    
C144  H46   1.112178 S    
O7    C7    1.279710 A    
Zn2   O50   2.022393 S    
N17   O130  1.301450 A    
O17   Zn1   1.876873 S    
O88   C219  1.225117 A    
C12   C36   1.481091 S    
O94   C224  1.226105 A    
C174  H54   1.083564 S    
N18   O131  1.302269 A    
C150  C158  1.389019 A    
C160  C168  1.415279 A    
O49   C25   1.273891 A    
C10   C34   1.480992 S    
C58   C74   1.456148 S    
O53   C29   1.273950 A    
C154  C162  1.411095 A    
N8    O112  1.301417 A    
O30   C22   1.299646 A    
Zn10  O58   2.015480 S    
O91   Zn17  2.013280 S    
C109  C117  1.402904 A    
C186  C194  1.496535 S    
C196  H63   1.112838 S    
C199  H69   1.111502 S    
C23   C47   1.481034 S    
C203  N16   1.468752 S    
O68   Zn18  2.013559 S    
C135  H21   1.111608 S    
C98   C106  1.390585 A    
O11   C3    1.275788 A    
C87   C95   1.390516 A    
O28   Zn5   1.878922 S    
O39   C15   1.299797 A    
N9    O114  1.301439 A    
C7    C95   1.421414 S    
O61   C29   1.277063 A    
O6    C6    1.279715 A    
C97   H1    1.083656 S    
C171  C179  1.402793 A    
C132  C140  1.518163 S    
O63   C31   1.277509 A    
C177  C210  1.413693 S    
O65   C209  1.227391 A    
N13   O122  1.301172 A    
C11   C35   1.480898 S    
O90   C222  1.225338 A    
C194  H58   1.111883 S    
C147  C155  1.390873 A    
O41   C17   1.299820 A    
C101  H5    1.083715 S    
Zn4   O52   2.022393 S    
O83   C218  1.224963 A    
C102  C110  1.390612 A    
C104  H8    1.083707 S    
O8    Zn8   2.015483 S    
C17   C41   1.480873 S    
C83   C91   1.390350 A    
C167  N7    1.438416 S    
C92   C100  1.401917 A    
C206  N18   1.469790 S    
C21   C45   1.480833 S    
C86   C142  1.492981 S    
Zn11  O59   2.016609 S    
C207  N24   1.471747 S    
C94   C102  1.402063 A    
C162  N2    1.438849 S    
O43   Zn14  1.876110 S    
C135  C143  1.517588 S    
O72   Zn20  2.013559 S    
C60   C76   1.456092 S    
C168  N8    1.438524 S    
N11   O117  1.301406 A    
N2    O99   1.300347 A    
O50   C26   1.276547 A    
C74   C77   1.232930 T    
C151  C191  1.364860 A    
C152  C192  1.366827 A    
C96   C104  1.400499 A    
N16   O127  1.301452 A    
C179  C187  1.386765 A    
C13   C37   1.481006 S    
O54   C30   1.276522 A    
C39   C55   1.232823 T    
C142  H42   1.112155 S    
C141  H41   1.111566 S    
C40   C56   1.232860 T    
O5    C5    1.278709 A    
C131  H16   1.112159 S    
C31   C159  1.420386 S    
O24   C16   1.299552 A    
C149  C189  1.340374 A    
N19   O133  1.301144 A    
C176  C184  1.401395 A    
Zn7   O55   2.023519 S    
N21   O137  1.301456 A    
C158  C166  1.411352 A    
C66   C69   1.232883 T    
O29   Zn7   1.876873 S    
N20   O136  1.301176 A    
C82   C90   1.390156 A    
O33   Zn9   1.878643 S    
C20   C44   1.481029 S    
C119  C127  1.392076 A    
O76   Zn22  2.013559 S    
O39   Zn12  1.876109 S    
N24   O144  1.301168 A    
C202  N11   1.469791 S    
O18   C10   1.299958 A    
C42   C58   1.232852 T    
O78   Zn24  2.017125 S    
O21   Zn3   1.876873 S    
O92   Zn18  2.013968 S    
N23   O142  1.302096 A    
O22   C14   1.299596 A    
N8    O111  1.300211 A    
C188  C196  1.497108 S    
C29   C157  1.414772 S    
C141  H44   1.112174 S    
O87   C220  1.225026 A    
O76   C213  1.226505 A    
C146  C202  1.502741 S    
C25   C153  1.414455 S    
C174  C182  1.403965 A    
C44   C60   1.232840 T    
C190  C198  1.496619 S    
C145  C153  1.383016 A    
C63   C79   1.456076 S    
C124  C132  1.493920 S    
C204  N15   1.471980 S    
C169  C177  1.405790 A    
C91   C99   1.402264 A    
N5    O106  1.301411 A    
O90   Zn18  2.015197 S    
Zn1   O49   2.023518 S    
C195  H61   1.112514 S    
C88   C128  1.371695 A    
C81   C121  1.372422 A    
C162  C170  1.395260 A    
C55   C71   1.456090 S    
C131  H13   1.111553 S    
Zn5   O53   2.023519 S    
O56   C32   1.277550 A    
O72   C211  1.225379 A    
C46   C62   1.232874 T    
C101  C109  1.390898 A    
O69   Zn19  2.015470 S    
C14   C38   1.481107 S    
C155  C163  1.413902 A    
C148  C188  1.367207 A    
C81   C137  1.493114 S    
C193  H57   1.112005 S    
O11   Zn11  2.023519 S    
C201  N9    1.467803 S    
N6    O107  1.300321 A    
N14   O124  1.302083 A    
C133  C141  1.518276 S    
N7    O109  1.300255 A    
O16   Zn16  2.022393 S    
Zn9   O57   2.016609 S    
O19   C11   1.300011 A    
C106  H26   1.083617 S    
C131  C139  1.518211 S    
C180  C211  1.424103 S    
C163  N3    1.438665 S    
C205  N17   1.467805 S    
C90   C98   1.402090 A    
C54   C70   1.456133 S    
O36   C12   1.299729 A    
O2    C2    1.279678 A    
O34   Zn10  1.879206 S    
C202  N10   1.466841 S    
O93   C223  1.221289 A    
C128  C136  1.494108 S    
O25   C17   1.299306 A    
C183  C216  1.419811 S    
C35   C51   1.232847 T    
N1    O98   1.301410 A    
C33   C49   1.232834 T    
C24   C48   1.481040 S    
C109  H29   1.083368 S    
O44   Zn13  1.876584 S    
C3    C91   1.421187 S    
C136  C144  1.518163 S    
C1    C89   1.420703 S    
O87   Zn23  2.013280 S    
C201  N12   1.468143 S    
C85   C93   1.388823 A    
C172  H52   1.083782 S    
C173  H53   1.083875 S    
N10   O116  1.301090 A    
O8    C8    1.278884 A    
C182  C213  1.429167 S    
C143  H48   1.112151 S    
C117  C125  1.393820 A    
C132  H15   1.112160 S    
C204  N14   1.469616 S    
C166  N6    1.438424 S    
Zn8   O56   2.022395 S    
O19   Zn2   1.879492 S    
C187  C195  1.495684 S    
C117  C221  1.427613 S    
O2    Zn2   2.015483 S    
C196  C204  1.529380 S    
O15   C7    1.275672 A    
N12   O119  1.302004 A    
C197  C205  1.545621 S    
C139  H37   1.111555 S    
C113  C217  1.423292 S    
C116  C124  1.392211 A    
C114  C122  1.392100 A    
C129  H12   1.112184 S    
C6    C94   1.419810 S    
O75   Zn21  2.014243 S    
C137  H36   1.112162 S    
N4    O104  1.301415 A    
C206  N19   1.466797 S    
O74   C214  1.219798 A    
C148  C204  1.503848 S    
O4    Zn4   2.015483 S    
C57   C73   1.456113 S    
O17   C9    1.299472 A    
O41   Zn13  1.878643 S    
C53   C69   1.456103 S    
C130  H10   1.111555 S    
C83   C123  1.372355 A    
O48   Zn15  1.876584 S    
N12   O120  1.301158 A    
C103  C111  1.390665 A    
O85   C219  1.221459 A    
C110  C118  1.400675 A    
C178  C186  1.390436 A    
C198  C206  1.527458 S    
C111  C119  1.400625 A    
N17   O129  1.301072 A    
C84   C140  1.493151 S    
C171  H51   1.084033 S    
O42   C18   1.300576 A    
C134  C142  1.517479 S    
C169  H49   1.083863 S    
C194  C202  1.527712 S    
O9    C1    1.275732 A    
C193  C201  1.545544 S    
O70   C212  1.225769 A    
N18   O132  1.301402 A    
C138  H35   1.112163 S    
O38   Zn12  1.879206 S    
C197  H65   1.112097 S    
C28   C156  1.418640 S    
C118  C222  1.422285 S    
Zn13  O61   2.016614 S    
O3    Zn3   2.016611 S    
O66   C210  1.219872 A    
O15   Zn15  2.023518 S    
C208  N23   1.469571 S    
C177  C185  1.377292 A    
C75   C80   1.232873 T    
C95   C103  1.402306 A    
C76   C79   1.232873 T    
C138  H34   1.111554 S    
C199  H72   1.112496 S    
C150  C190  1.370705 A    
C127  C135  1.493705 S    
C200  H71   1.111311 S    
C87   C143  1.493023 S    
C103  H7    1.083643 S    
O4    C4    1.279581 A    
O35   C11   1.300056 A    
C135  H24   1.111946 S    
C122  C130  1.493897 S    
C152  C160  1.388326 A    
C67   C72   1.232931 T    
O55   C31   1.275503 A    
O26   Zn6   1.876392 S    
C184  C215  1.423449 S    
N9    O113  1.301076 A    
C151  C159  1.390760 A    
C129  C137  1.518228 S    
O30   Zn8   1.876392 S    
O18   Zn2   1.876392 S    
C93   C101  1.400338 A    
N13   O121  1.300900 A    
C30   C158  1.413776 S    
O62   C30   1.274432 A    
C194  H59   1.112126 S    
O42   Zn14  1.879207 S    
O88   Zn24  2.013968 S    
O16   C8    1.274716 A    
O96   C223  1.225208 A    
C181  C189  1.377199 A    
C26   C154  1.413469 S    
O35   Zn10  1.876109 S    
O71   Zn19  2.014243 S    
C146  C154  1.389379 A    
O9    Zn9   2.023519 S    
C133  H20   1.111023 S    
