data_mof_unit_16920.cif
_audit_creation_date              2012-12-11T19:45:04-0500
_audit_creation_method            fapswitch 2.2
_symmetry_space_group_name_H-M    P1
_symmetry_Int_Tables_number       1
_space_group_crystal_system       triclinic
_cell_length_a                    8.26813
_cell_length_b                    14.974243
_cell_length_c                    19.174396
_cell_angle_alpha                 102.138302
_cell_angle_beta                  92.027521
_cell_angle_gamma                 98.564278
_cell_volume                      2289.54057972

loop_
_atom_site_label
_atom_site_type_symbol
_atom_type_description
_atom_site_fract_x
_atom_site_fract_y
_atom_site_fract_z
_atom_type_partial_charge
Ba1   Ba    Ba6+2 0.853900 0.540470 0.466700 1.635504
Ba2   Ba    Ba6+2 0.335940 0.459610 0.533310 1.625338
C1    C     C_3   0.655157 0.809796 0.201818 -0.377143
C2    C     C_R   0.020292 0.538578 0.728834 0.053502
C3    C     C_R   0.846837 0.433534 0.813272 -0.160642
C4    C     C_3   0.142795 0.742907 0.280745 0.413186
C5    C     C_R   0.778415 0.437627 0.746171 -0.001633
C6    C     C_R   0.339596 0.583590 0.196714 -0.182436
C7    C     C_R   0.413639 0.563861 0.257000 -0.001133
C8    C     C_R   0.116384 0.461079 0.197462 -0.138620
C9    C     C_R   0.167878 0.462723 0.269773 0.028341
C10   C     C_R   0.981945 0.500361 0.847743 0.006118
C11   C     C_R   0.873610 0.482233 0.701812 -0.243730
C12   C     C_3   0.653285 0.770851 0.269489 0.389391
C13   C     C_R   0.202290 0.524093 0.158286 0.007688
C14   C     C_R   0.323739 0.507722 0.295430 -0.219066
C15   C     C_R   0.754001 0.470606 0.963951 -0.078166
C16   C     C_3   0.125511 0.777150 0.211431 -0.190130
C17   C     C_R   0.647364 0.446058 0.013330 -0.085457
C18   C     C_R   0.698578 0.470515 0.084849 -0.068360
C19   C     C_R   0.860431 0.509213 0.105447 -0.079289
C20   C     C_R   0.980257 0.508952 0.055372 0.010139
C21   C     C_R   0.925379 0.495408 0.981125 0.040311
C22   C     C_R   0.148925 0.529346 0.080076 -0.017502
C23   C     C_3   0.574432 0.282919 0.297126 0.263706
C24   C     C_R   0.261118 0.552994 0.028300 0.037358
C25   C     C_R   0.207695 0.538321 0.953637 0.002468
C26   C     C_R   0.038821 0.509779 0.927939 -0.013757
C27   C     C_R   0.428055 0.592226 0.047215 -0.108074
C28   C     C_3   0.243320 0.745588 0.627608 0.311965
C29   C     C_R   0.527933 0.629052 0.000293 -0.063300
C30   C     C_R   0.480200 0.607421 0.928276 0.078392
C31   C     C_R   0.329690 0.551659 0.905498 -0.090983
C32   C     C_R   0.869958 0.167145 0.528667 0.012360
C33   C     C_R   0.794886 0.076131 0.529781 -0.043300
C34   C     C_3   0.547388 0.231612 0.218535 -0.234479
C35   C     C_R   0.648115 0.890493 0.525885 -0.040634
C36   C     C_R   0.797937 0.929346 0.565144 -0.043761
C37   C     C_R   0.871814 0.019202 0.565405 -0.100561
C38   C     C_R   0.579589 0.795904 0.518542 0.046772
C39   C     C_R   0.428705 0.762029 0.479616 -0.294219
C40   C     C_3   0.274853 0.850904 0.647663 -0.399684
C41   C     C_R   0.625702 0.188924 0.461508 0.001890
C42   C     C_R   0.552259 0.097858 0.460981 -0.030961
C43   C     C_R   0.637955 0.040667 0.493988 0.017911
C44   C     C_R   0.395661 0.062070 0.427494 -0.060907
C45   C     C_3   0.078673 0.279032 0.717868 0.373185
C46   C     C_R   0.324148 0.972255 0.426209 -0.109734
C47   C     C_R   0.407815 0.913407 0.456652 -0.030958
C48   C     C_R   0.564917 0.948013 0.492034 0.011343
C49   C     C_R   0.339148 0.820620 0.451976 -0.015965
C50   C     C_R   0.789868 0.219562 0.489422 -0.226431
C51   C     C_3   0.105538 0.245835 0.274227 0.267769
C52   C     C_3   0.019057 0.201366 0.201117 -0.424378
C53   C     C_3   0.750968 0.684459 0.687362 0.312420
C54   C     C_3   0.827108 0.732492 0.761614 -0.409453
C55   C     C_3   0.722534 0.847159 0.334199 -0.270446
C56   C     C_3   0.083948 0.256282 0.791503 -0.375523
C57   C     C_3   0.601761 0.294947 0.168567 -0.452132
C58   C     C_3   0.185917 0.881007 0.222367 -0.402001
C59   C     C_3   0.496030 0.151219 0.651685 -0.286357
C60   C     C_3   0.591703 0.640021 0.875730 -0.391792
C61   C     C_3   0.885695 0.304815 0.472400 -0.216613
C62   C     C_3   0.569635 0.222577 0.718413 0.378802
C63   C     C_3   0.580561 0.175971 0.781719 -0.362189
C64   C     C_R   0.059554 0.558172 0.803539 -0.149955
H1    H     H_    0.371702 0.875242 0.692075 0.123881
H2    H     H_    0.939371 0.781441 0.757451 0.141286
H3    H     H_    0.859583 0.681172 0.791242 0.060274
H4    H     H_    0.739110 0.772005 0.792021 0.123408
H5    H     H_    0.524319 0.749254 0.278623 -0.046049
H6    H     H_    0.570945 0.861511 0.205170 0.076540
H7    H     H_    0.560632 0.356890 0.303222 0.070957
H8    H     H_    0.415524 0.203163 0.204615 0.120878
H9    H     H_    0.616079 0.172257 0.209567 0.099196
H10   H     H_    0.614639 0.753413 0.154217 0.101925
H11   H     H_    0.184532 0.333303 0.716014 0.117998
H12   H     H_    0.315470 0.879562 0.601277 0.063936
H13   H     H_    0.964025 0.305870 0.709263 -0.053746
H14   H     H_    0.091033 0.320424 0.833556 0.076177
H15   H     H_    0.971903 0.207799 0.796771 0.101987
H16   H     H_    0.696647 0.249973 0.708200 -0.044238
H17   H     H_    0.456970 0.142983 0.792210 0.114806
H18   H     H_    0.084562 0.669130 0.271090 0.042397
H19   H     H_    0.152760 0.617014 0.825601 0.067462
H20   H     H_    0.790098 0.379953 0.838426 0.059546
H21   H     H_    0.388697 0.646658 0.181701 0.048398
H22   H     H_    0.007800 0.413656 0.173794 0.058990
H23   H     H_    0.160535 0.877175 0.664768 0.117641
H24   H     H_    0.829481 0.476770 0.647041 0.058302
H25   H     H_    0.375513 0.499055 0.345781 0.067739
H26   H     H_    0.694177 0.474965 0.914822 0.078249
H27   H     H_    0.518913 0.421072 0.997266 0.079153
H28   H     H_    0.608998 0.466932 0.123961 0.091078
H29   H     H_    0.274340 0.748796 0.295979 -0.099484
H30   H     H_    0.892700 0.541067 0.160707 0.126505
H31   H     H_    0.493774 0.590907 0.095191 0.072824
H32   H     H_    0.650764 0.664514 0.018992 0.070906
H33   H     H_    0.308221 0.520965 0.849886 0.130060
H34   H     H_    0.218860 0.292895 0.268191 -0.005456
H35   H     H_    0.862837 0.890713 0.595105 0.105204
H36   H     H_    0.991523 0.042189 0.592982 0.114266
H37   H     H_    0.203228 0.949946 0.399787 0.102982
H38   H     H_    0.375082 0.690411 0.475034 0.071616
H39   H     H_    0.197034 0.739818 0.170359 0.062233
H40   H     H_    0.358971 0.720325 0.612721 0.014343
H41   H     H_    0.150831 0.723481 0.581437 0.072300
H42   H     H_    0.735329 0.817010 0.381822 0.133979
H43   H     H_    0.843086 0.884248 0.324526 0.134092
H44   H     H_    0.637882 0.898686 0.345111 0.034680
H45   H     H_    0.911769 0.149724 0.206621 0.117242
H46   H     H_    0.144633 0.189960 0.297544 0.083311
H47   H     H_    0.646658 0.630375 0.691877 0.053881
H48   H     H_    0.698972 0.276789 0.315888 0.061494
H49   H     H_    0.518368 0.347020 0.171840 0.126180
H50   H     H_    0.729819 0.330144 0.183648 0.156823
H51   H     H_    0.593919 0.254211 0.112694 0.128942
H52   H     H_    0.185796 0.901139 0.169851 0.113505
H53   H     H_    0.104024 0.920905 0.256593 0.138396
H54   H     H_    0.312416 0.899063 0.248024 0.117977
H55   H     H_    0.193394 0.223760 0.799490 0.146393
H56   H     H_    0.104700 0.165795 0.166060 0.081021
H57   H     H_    0.499068 0.184635 0.605264 0.118081
H58   H     H_    0.568041 0.093480 0.640858 0.049379
H59   H     H_    0.367232 0.122520 0.658525 0.150384
H60   H     H_    0.661427 0.122359 0.770700 0.078803
H61   H     H_    0.632597 0.228098 0.830432 0.097946
H62   H     H_    0.695102 0.693298 0.903273 0.099671
H63   H     H_    0.643817 0.581583 0.844493 0.132808
H64   H     H_    0.521911 0.670844 0.838872 0.124945
H65   H     H_    0.326153 0.102028 0.400637 0.096440
H66   H     H_    0.013633 0.295120 0.462066 0.151056
H67   H     H_    0.976843 0.254636 0.175849 0.104048
H68   H     H_    0.838092 0.317645 0.422198 0.103190
H69   H     H_    0.880411 0.366157 0.515725 0.129427
H70   H     H_    0.995631 0.761142 0.190273 0.128395
H71   H     H_    0.845079 0.651960 0.656175 0.017913
H72   H     H_    0.779986 0.844016 0.194501 0.108411
O1    O     O_2   0.873950 0.434950 0.324050 -0.461332
O2    O     O_2   0.212756 0.183799 0.543756 -0.476789
O3    O     O_3   0.085078 0.198595 0.665946 -0.616558
O4    O     O_3   0.122400 0.443310 0.412980 -0.475253
O5    O     O_3   0.579970 0.613770 0.540070 -0.486841
O6    O     O_2   0.337870 0.272490 0.457870 -0.435716
O7    O     O_3   0.456651 0.240894 0.335280 -0.674962
O8    O     O_2   0.456199 0.467139 0.753101 -0.507886
O9    O     O_3   0.467753 0.290809 0.734801 -0.589923
O10   O     O_3   0.662890 0.605900 0.373340 -0.454549
O11   O     O_2   0.720349 0.517703 0.250360 -0.503241
O12   O     O_3   0.694205 0.751399 0.656345 -0.641651
O13   O     O_3   0.995561 0.287845 0.319764 -0.644715
O14   O     O_3   0.745864 0.697467 0.260738 -0.579128
O15   O     O_2   0.851830 0.727540 0.542170 -0.468977
O16   O     O_3   0.085020 0.656200 0.410840 -0.478076
O17   O     O_2   0.007936 0.819710 0.468447 -0.482926
O18   O     O_3   0.065662 0.795882 0.334687 -0.595004
O19   O     O_2   0.315750 0.565080 0.676000 -0.454618
O20   O     O_3   0.067310 0.556770 0.587020 -0.504340
O21   O     O_3   0.526830 0.394180 0.626670 -0.450859
O22   O     O_3   0.186919 0.712518 0.686829 -0.638637
O23   O     O_3   0.609740 0.386310 0.459940 -0.484300
O24   O     O_3   0.104690 0.343880 0.589170 -0.503511
P1    P     P_3+3 0.041310 0.408750 0.334260 0.970451
P2    P     P_3+3 0.676060 0.715830 0.563200 0.973323
P3    P     P_3+3 0.126007 0.774286 0.416943 0.950234
P4    P     P_3+3 0.148400 0.591330 0.665750 0.969862
P5    P     P_3+3 0.067781 0.223195 0.580818 0.934060
P6    P     P_3+3 0.633296 0.599111 0.282882 0.942315
P7    P     P_3+3 0.512055 0.271017 0.426940 0.928063
P8    P     P_3+3 0.560636 0.395922 0.716809 0.932195

loop_
_geom_bond_atom_site_label_1
_geom_bond_atom_site_label_2
_ccdc_geom_bond_type
C2    C64   A    
C53   C54   S    
C38   C39   A    
O21   P8    S    
C28   H41   S    
Ba2   O6    S    
C12   H5    S    
C60   H64   S    
C17   C18   A    
C45   H13   S    
C34   C57   S    
Ba2   O24   S    
C64   H19   S    
C41   P7    S    
C51   C52   S    
C25   C31   A    
C28   O22   S    
C15   H26   S    
C8    H22   S    
C24   C25   A    
C15   C21   A    
C10   C26   S    
C59   H58   S    
C63   H61   S    
Ba1   O20   S    
C7    C14   A    
C22   C24   A    
C38   P2    S    
C35   C38   A    
C8    C13   A    
C36   C37   A    
C32   C33   A    
C41   C50   A    
C63   H17   S    
C54   H4    S    
C58   H53   S    
Ba1   Ba2   S    
C29   H32   S    
C2    C11   A    
Ba1   O4    S    
C55   H43   S    
C29   C30   A    
Ba1   P2    S    
C6    C7    A    
C47   C49   A    
O16   P3    S    
C16   H70   S    
O22   P4    S    
Ba2   P4    S    
C17   H27   S    
O9    P8    S    
C56   H14   S    
O23   P7    S    
O2    P5    D    
C52   H56   S    
Ba1   O23   S    
C57   H51   S    
C19   C20   A    
C28   H40   S    
Ba2   O5    S    
C60   H63   S    
O11   P6    D    
Ba2   O23   S    
O14   P6    S    
C42   C44   A    
C44   C46   A    
C53   O12   S    
C51   H34   S    
C4    C16   S    
O7    P7    S    
O3    P5    S    
C4    H18   S    
O15   P2    D    
C61   H68   S    
C3    C10   A    
C56   H15   S    
O4    P1    S    
C3    C5    A    
C57   H50   S    
C53   H47   S    
C21   C26   A    
C46   H37   S    
C10   C64   A    
O6    P7    D    
Ba1   O15   S    
C30   C31   A    
C31   H33   S    
C61   H69   S    
C59   C62   S    
C33   C37   A    
C41   C42   A    
C35   C36   A    
Ba1   O5    S    
C34   H9    S    
C9    C14   A    
C55   H44   S    
Ba2   O20   S    
C9    P1    S    
C4    H29   S    
C1    H72   S    
C61   H66   S    
C58   H52   S    
C1    H10   S    
C62   H16   S    
C1    C12   S    
C34   H8    S    
C24   C27   A    
C3    H20   S    
C51   H46   S    
C16   C58   S    
C13   C22   S    
C54   H3    S    
C6    C13   A    
O13   P1    S    
O8    P8    D    
C62   O9    S    
C40   H1    S    
Ba2   O4    S    
C20   C22   A    
C49   P3    S    
C11   H24   S    
Ba2   O21   S    
C32   P5    S    
C33   C43   A    
O5    P2    S    
C44   H65   S    
C42   C43   A    
O20   P4    S    
C37   H36   S    
C12   C55   S    
C18   H28   S    
C46   C47   A    
C56   H55   S    
C7    P6    S    
C50   C61   S    
Ba1   O1    S    
O19   P4    D    
C59   H59   S    
C40   H12   S    
C19   H30   S    
C36   H35   S    
O12   P2    S    
C45   O3    S    
C32   C50   A    
C53   H71   S    
C39   H38   S    
C27   H31   S    
C59   H57   S    
C40   H23   S    
C63   H60   S    
C6    H21   S    
O1    P1    D    
C1    H6    S    
C16   H39   S    
C30   C60   S    
C27   C29   A    
C54   H2    S    
C23   H48   S    
C62   C63   S    
C45   C56   S    
C60   H62   S    
C35   C48   A    
C52   H67   S    
C43   C48   A    
O17   P3    D    
Ba2   O19   S    
O10   P6    S    
C15   C17   A    
C2    P4    S    
C52   H45   S    
C58   H54   S    
C23   H7    S    
Ba1   O16   S    
O18   P3    S    
C8    C9    A    
C23   C34   S    
O24   P5    S    
C5    C11   A    
C55   H42   S    
C18   C19   A    
Ba1   P1    S    
C14   H25   S    
C57   H49   S    
C47   C48   A    
C5    P8    S    
C12   O14   S    
C25   C26   A    
C51   O13   S    
C45   H11   S    
C20   C21   A    
C28   C40   S    
Ba1   O10   S    
C23   O7    S    
C39   C49   A    
C4    O18   S    
