data_mof_unit_60744.cif
_audit_creation_date              2012-12-10T18:04:51-0500
_audit_creation_method            fapswitch 2.2
_symmetry_space_group_name_H-M    P1
_symmetry_Int_Tables_number       1
_space_group_crystal_system       monoclinic
_cell_length_a                    10.891616
_cell_length_b                    9.590755
_cell_length_c                    17.739182
_cell_angle_alpha                 90.0
_cell_angle_beta                  93.14713
_cell_angle_gamma                 90.0
_cell_volume                      1850.2194048

loop_
_atom_site_label
_atom_site_type_symbol
_atom_type_description
_atom_site_fract_x
_atom_site_fract_y
_atom_site_fract_z
_atom_type_partial_charge
C1    C     C_R   0.262898 0.500023 0.506189 0.890621
C2    C     C_R   0.737102 0.500023 0.493810 0.890621
C3    C     C_1   0.499626 0.502109 0.966154 0.140311
C4    C     C_1   0.500374 0.502109 0.033846 0.140311
C5    C     C_R   0.062937 0.372932 0.509209 0.246934
C6    C     C_R   0.937012 0.627407 0.490904 0.246427
C7    C     C_R   0.937062 0.372932 0.490791 0.246934
C8    C     C_R   0.062988 0.627407 0.509096 0.246427
C9    C     C_R   0.500359 0.500052 0.355684 0.849374
C10   C     C_R   0.499641 0.500052 0.644316 0.849375
C11   C     C_R   0.871513 0.500130 0.488604 -0.308743
C12   C     C_R   0.128487 0.500130 0.511396 -0.308743
C13   C     C_R   0.482662 0.626872 0.844920 0.274780
C14   C     C_R   0.485872 0.375671 0.153534 0.273280
C15   C     C_R   0.517338 0.626872 0.155080 0.274780
C16   C     C_R   0.514128 0.375671 0.846465 0.273280
C17   C     C_R   0.483228 0.625861 0.766332 -0.165595
C18   C     C_R   0.487090 0.375509 0.232136 -0.165658
C19   C     C_R   0.516772 0.625861 0.233667 -0.165595
C20   C     C_R   0.512910 0.375509 0.767864 -0.165658
C21   C     C_R   0.498574 0.500427 0.727196 -0.140798
C22   C     C_R   0.501426 0.500427 0.272804 -0.140798
C23   C     C_R   0.423449 0.074090 0.450342 0.311310
C24   C     C_R   0.576224 0.925876 0.549855 0.312497
C25   C     C_R   0.576551 0.074090 0.549658 0.311310
C26   C     C_R   0.423776 0.925876 0.450145 0.312497
C27   C     C_R   0.498800 0.501588 0.885328 -0.054543
C28   C     C_R   0.501200 0.501588 0.114671 -0.054543
Cu1   Cu    Cu3+1 0.500000 0.640660 0.500000 1.081713
Cu2   Cu    Cu3+1 0.500000 0.359340 0.500000 1.082262
N1    N     N_R   0.500000 0.852070 0.500000 -0.260594
N2    N     N_R   0.500000 0.147930 0.500000 -0.258423
O1    O     O_R   0.319640 0.618740 0.499990 -0.530111
O2    O     O_R   0.680360 0.381260 0.500010 -0.528803
O3    O     O_R   0.680360 0.618740 0.500010 -0.530111
O4    O     O_R   0.319640 0.381260 0.499990 -0.528803
O5    O     O_R   0.500000 0.618830 0.391250 -0.562023
O6    O     O_R   0.500000 0.381170 0.608750 -0.562451
O7    O     O_R   0.500000 0.618830 0.608750 -0.562023
O8    O     O_R   0.500000 0.381170 0.391250 -0.562451
Br1   Br    Br    0.459047 0.801760 0.894529 -0.291926
Br2   Br    Br    0.461898 0.201375 0.101807 -0.287780
Br3   Br    Br    0.540954 0.801760 0.105470 -0.291926
Br4   Br    Br    0.538102 0.201375 0.898193 -0.287780
H1    H     H_    0.470901 0.723334 0.736027 0.211514
H2    H     H_    0.476038 0.277446 0.261131 0.218046
H3    H     H_    0.529100 0.723334 0.263973 0.211514
H4    H     H_    0.523961 0.277446 0.738869 0.218046
Br5   Br    Br    0.312062 0.168657 0.379219 -0.329257
Br6   Br    Br    0.685849 0.831212 0.622028 -0.318737
Br7   Br    Br    0.687938 0.168657 0.620781 -0.329257
Br8   Br    Br    0.314151 0.831212 0.377972 -0.318737
Br9   Br    Br    0.135638 0.198795 0.544610 -0.274172
Br10  Br    Br    0.863961 0.801844 0.456173 -0.276976
Br11  Br    Br    0.864362 0.198795 0.455389 -0.274172
Br12  Br    Br    0.136039 0.801844 0.543827 -0.276976

loop_
_geom_bond_atom_site_label_1
_geom_bond_atom_site_label_2
_ccdc_geom_bond_type
C2    O3    A    
C15   C19   A    
C25   Br7   S    
Cu1   Cu2   S    
C7    Br11  S    
C8    C12   A    
C15   Br3   S    
Cu1   O3    S    
C14   C18   A    
Cu2   O4    S    
C10   O6    A    
C23   N2    A    
C8    Br12  S    
C16   C27   A    
C9    O5    A    
C24   N1    A    
Cu2   O8    S    
C26   N1    A    
Cu1   N1    S    
C14   Br2   S    
C24   C25   A    
Cu2   N2    S    
Cu1   O7    S    
C15   C28   A    
C20   H4    S    
C1    C12   S    
C6    Br10  S    
C2    C11   S    
C18   H2    S    
C5    Br9   S    
C16   C20   A    
C4    C28   S    
C17   H1    S    
C7    C11   A    
C26   Br8   S    
C3    C27   S    
C10   C21   S    
C24   Br6   S    
C19   H3    S    
C9    C22   S    
C23   Br5   S    
Cu2   O2    S    
C1    O1    A    
C13   C17   A    
Cu1   O1    S    
C19   C22   A    
C20   C21   A    
Cu2   O6    S    
C5    C12   A    
C23   C26   A    
Cu1   O5    S    
C6    C11   A    
C5    C7    A    
C16   Br4   S    
C13   Br1   S    
C13   C27   A    
C6    C8    A    
C14   C28   A    
C2    O2    A    
C18   C22   A    
C9    O8    A    
C17   C21   A    
C3    C4    T    
C1    O4    A    
C10   O7    A    
C25   N2    A    
