data_mof_unit_36399.cif
_audit_creation_date              2012-12-10T17:18:53-0500
_audit_creation_method            fapswitch 2.2
_symmetry_space_group_name_H-M    P1
_symmetry_Int_Tables_number       1
_space_group_crystal_system       triclinic
_cell_length_a                    9.588196
_cell_length_b                    10.859893
_cell_length_c                    13.460088
_cell_angle_alpha                 92.833921
_cell_angle_beta                  73.094391
_cell_angle_gamma                 90.965994
_cell_volume                      1339.34311065

loop_
_atom_site_label
_atom_site_type_symbol
_atom_type_description
_atom_site_fract_x
_atom_site_fract_y
_atom_site_fract_z
_atom_type_partial_charge
C1    C     C_R   0.503965 0.736684 0.491675 0.815586
C2    C     C_R   0.445943 0.439512 0.972813 0.079455
C3    C     C_R   0.491285 0.439146 0.862667 0.092332
C4    C     C_R   0.552284 0.458181 0.027105 0.075425
C5    C     C_R   0.701705 0.466475 0.970440 0.176604
C6    C     C_R   0.745240 0.442548 0.863677 -0.261013
C7    C     C_R   0.641769 0.423478 0.811247 -0.203339
C8    C     C_R   0.514752 0.473707 0.135622 -0.256215
C9    C     C_R   0.767787 0.507035 0.129162 -0.185598
C10   C     C_R   0.384200 0.452358 0.808805 -0.108102
C11   C     C_R   0.294861 0.870691 0.410759 -0.175267
C12   C     C_R   0.423752 0.485532 0.698334 0.800103
C13   C     C_R   0.163846 0.925121 0.412167 0.188355
C14   C     C_R   0.127550 0.040211 0.461933 -0.174913
C15   C     C_R   0.228753 0.106135 0.500035 -0.212428
C16   C     C_R   0.369318 0.057455 0.488904 0.097882
C17   C     C_R   0.391527 0.931474 0.459180 0.057641
C18   C     C_R   0.507587 0.870079 0.481208 -0.106508
C19   C     C_R   0.617498 0.938279 0.507747 -0.174458
C20   C     C_R   0.611252 0.065489 0.515466 -0.207081
C21   C     C_R   0.488386 0.127083 0.506671 -0.103724
C22   C     C_R   0.910286 0.339205 0.358958 -0.155349
C23   C     C_R   0.495991 0.262107 0.504185 0.771097
C24   C     C_R   0.009402 0.261297 0.289474 -0.210519
C25   C     C_R   0.152846 0.260644 0.289986 -0.215246
C26   C     C_R   0.198036 0.337940 0.359926 -0.168525
C27   C     C_R   0.101441 0.420595 0.430940 0.204629
C28   C     C_R   0.951918 0.420919 0.430717 0.215632
C29   C     C_R   0.900671 0.575420 0.565790 -0.046348
C30   C     C_R   0.048665 0.575463 0.565703 -0.053072
C31   C     C_R   0.577674 0.500045 0.300364 0.782612
C32   C     C_R   0.806841 0.495326 0.021334 -0.203610
C33   C     C_R   0.621624 0.494195 0.186755 -0.046822
C34   C     C_R   0.236809 0.434669 0.862687 -0.195954
C35   C     C_R   0.195483 0.411628 0.968014 -0.145323
C36   C     C_R   0.296810 0.419504 0.023656 -0.173106
Cu1   Cu    Cu3+1 0.359340 0.500010 0.500010 0.926908
Cu2   Cu    Cu3+1 0.640660 0.499990 0.499990 0.940509
H1    H     H_    0.851510 0.526261 0.167231 0.173758
H2    H     H_    0.320173 0.781383 0.370840 0.179226
H3    H     H_    0.021948 0.079949 0.469427 0.161969
H4    H     H_    0.190846 0.191898 0.542032 0.180284
H5    H     H_    0.701874 0.115581 0.531096 0.165018
H6    H     H_    0.824597 0.637285 0.619670 0.144658
H7    H     H_    0.802637 0.330728 0.353014 0.202918
H8    H     H_    0.974079 0.200109 0.235452 0.168837
H9    H     H_    0.229667 0.198630 0.236643 0.168848
H10   H     H_    0.309318 0.327114 0.355869 0.206603
H11   H     H_    0.859881 0.437392 0.820493 0.139968
H12   H     H_    0.083213 0.637399 0.619486 0.143976
H13   H     H_    0.918882 0.509703 0.976998 0.135415
H14   H     H_    0.402658 0.471259 0.182065 0.161877
H15   H     H_    0.153465 0.436513 0.823057 0.146185
H16   H     H_    0.255559 0.405296 0.105656 0.142200
H17   H     H_    0.083685 0.389832 0.008192 0.141405
H18   H     H_    0.683556 0.391714 0.731124 0.186528
H19   H     H_    0.708342 0.893344 0.523442 0.183074
N1    N     N_R   0.852480 0.498790 0.499000 -0.199726
N2    N     N_R   0.148360 0.498710 0.498970 -0.203055
O1    O     O_R   0.381190 0.680360 0.500010 -0.581949
O2    O     O_R   0.618760 0.680340 0.500000 -0.559793
O3    O     O_R   0.323240 0.499990 0.650990 -0.580687
O4    O     O_R   0.560820 0.499960 0.650980 -0.593079
O5    O     O_R   0.381240 0.319660 0.500000 -0.616010
O6    O     O_R   0.618810 0.319640 0.499990 -0.609110
O7    O     O_R   0.439180 0.500040 0.349020 -0.604904
O8    O     O_R   0.676760 0.500010 0.349010 -0.590696
I1    I     I_    0.017526 0.829525 0.345129 -0.435987

loop_
_geom_bond_atom_site_label_1
_geom_bond_atom_site_label_2
_ccdc_geom_bond_type
C31   O7    A    
C2    C4    A    
C31   C33   S    
C32   H13   S    
Cu1   O5    S    
C29   C30   A    
C28   N1    A    
C12   O3    A    
C25   H9    S    
C19   C20   A    
Cu2   O6    S    
C26   H10   S    
C4    C8    A    
Cu2   O2    S    
C24   H8    S    
C30   N2    A    
C20   H5    S    
C2    C3    A    
C30   H12   S    
C10   C34   A    
C3    C10   A    
C27   N2    A    
C13   C14   A    
C19   H19   S    
C31   O8    A    
C11   C13   A    
C23   O6    A    
C1    C18   S    
Cu1   N2    S    
C10   C12   S    
C7    H18   S    
C9    C33   A    
C14   H3    S    
C5    C6    A    
C29   N1    A    
C23   O5    A    
Cu1   Cu2   S    
C17   C18   A    
C6    C7    A    
C3    C7    A    
C8    C33   A    
C21   C23   S    
C29   H6    S    
C26   C27   A    
C11   H2    S    
C34   C35   A    
C22   C24   A    
Cu1   O1    S    
C36   H16   S    
Cu1   O7    S    
C35   H17   S    
C15   C16   A    
Cu2   O8    S    
C16   C17   A    
C8    H14   S    
C9    H1    S    
C22   H7    S    
C24   C25   A    
C34   H15   S    
C20   C21   A    
Cu2   O4    S    
C1    O1    A    
C2    C36   A    
C27   C28   A    
C12   O4    A    
Cu1   O3    S    
C14   C15   A    
C18   C19   A    
C22   C28   A    
C9    C32   A    
C25   C26   A    
Cu2   N1    S    
C16   C21   A    
C5    C32   A    
C11   C17   A    
C6    H11   S    
C35   C36   A    
C15   H4    S    
C4    C5    A    
C13   I1    S    
C1    O2    A    
