data_mof_unit_39095.cif
_audit_creation_date              2012-12-11T17:05:32-0500
_audit_creation_method            fapswitch 2.2
_symmetry_space_group_name_H-M    P1
_symmetry_Int_Tables_number       1
_space_group_crystal_system       triclinic
_cell_length_a                    6.957796
_cell_length_b                    14.651953
_cell_length_c                    15.922673
_cell_angle_alpha                 90.102277
_cell_angle_beta                  90.306205
_cell_angle_gamma                 89.962947
_cell_volume                      1623.21557877

loop_
_atom_site_label
_atom_site_type_symbol
_atom_type_description
_atom_site_fract_x
_atom_site_fract_y
_atom_site_fract_z
_atom_type_partial_charge
O1    O     O_R   0.494380 0.415640 0.412830 -0.543013
O2    O     O_R   0.823960 0.405540 0.586560 -0.539913
O3    O     O_R   0.994270 0.584360 0.587170 -0.551467
C1    C     C_R   0.655882 0.384542 0.615990 0.691921
O4    O     O_R   0.824090 0.404620 0.413450 -0.544415
O5    O     O_R   0.994400 0.583430 0.412820 -0.550207
C2    C     C_R   0.655069 0.382325 0.384597 0.680527
O6    O     O_R   0.494250 0.416570 0.587180 -0.539417
O7    O     O_3   0.660800 0.558670 0.500000 -0.364009
V1    V     V_3+5 0.935650 0.489120 0.500000 1.422871
O8    O     O_R   0.324110 0.594460 0.413440 -0.521476
C3    C     C_R   0.154804 0.615826 0.384135 0.767330
O9    O     O_R   0.323980 0.595380 0.586550 -0.523587
C4    C     C_R   0.155632 0.617700 0.615203 0.778254
V2    V     V_3+5 0.435660 0.510880 0.500000 1.471162
O10   O     O_3   0.160640 0.441330 0.500000 -0.368005
C5    C     C_3   0.019749 0.654663 0.756354 -0.476312
H1    H     H_    0.869840 0.644180 0.733529 0.129114
H2    H     H_    0.073146 0.586564 0.776872 0.163509
C6    C     C_3   0.016385 0.722603 0.831783 0.125316
H3    H     H_    0.863122 0.739845 0.844736 0.111761
H4    H     H_    0.914733 0.765331 0.621093 0.049284
H5    H     H_    0.861512 0.845322 0.736941 0.010040
C7    C     C_3   0.057717 0.782484 0.648574 0.283569
C8    C     C_3   0.347933 0.712147 0.720572 -0.325331
C9    C     C_3   0.146252 0.690869 0.682918 -0.086733
H6    H     H_    0.451285 0.732004 0.670849 0.210622
H7    H     H_    0.407453 0.649785 0.750963 0.124995
C10   C     C_3   0.121265 0.813010 0.807671 -0.107255
C11   C     C_3   0.019013 0.849470 0.725304 0.230312
C12   C     C_3   0.335007 0.789616 0.786081 -0.327482
H8    H     H_    0.416167 0.769073 0.843362 0.137447
H9    H     H_    0.409568 0.850787 0.761471 0.226662
C13   C     C_R   0.274213 0.750644 0.187323 0.111145
C14   C     C_R   0.118842 0.810902 0.179636 -0.101950
C15   C     C_R   0.966832 0.800879 0.237003 -0.186181
H10   H     H_    0.844332 0.846067 0.233711 0.135845
C16   C     C_R   0.977921 0.737062 0.303013 -0.142339
H11   H     H_    0.862916 0.734345 0.348325 0.152133
C17   C     C_R   0.141825 0.681753 0.313830 -0.087753
C18   C     C_R   0.285586 0.687801 0.252864 0.063507
C19   C     C_3   0.495754 0.703200 0.263982 -0.401199
C20   C     C_3   0.483453 0.771234 0.192275 -0.395750
H12   H     H_    0.581567 0.641471 0.248457 0.159597
H13   H     H_    0.529750 0.735444 0.325526 0.203999
H14   H     H_    0.561413 0.748663 0.135114 0.168384
H15   H     H_    0.511178 0.842850 0.212058 0.171706
C21   C     C_R   0.493094 0.255211 0.688724 0.091271
C22   C     C_R   0.648528 0.314856 0.682834 -0.150496
C23   C     C_R   0.797997 0.305150 0.742139 -0.208658
H16   H     H_    0.920622 0.350334 0.740347 0.124904
C24   C     C_R   0.786044 0.239902 0.806879 -0.144075
H17   H     H_    0.901498 0.235481 0.852448 0.124961
C25   C     C_R   0.621600 0.184634 0.815660 -0.092411
C26   C     C_R   0.477471 0.192881 0.754373 0.144178
C27   C     C_3   0.267848 0.212973 0.764071 -0.432250
C28   C     C_3   0.283863 0.277377 0.689576 0.086265
H18   H     H_    0.237777 0.249138 0.824018 0.118734
H19   H     H_    0.174497 0.153661 0.751986 0.281462
H20   H     H_    0.253137 0.349804 0.705569 0.100003
C29   C     C_R   0.491611 0.251217 0.309960 0.107150
C30   C     C_R   0.647020 0.311443 0.317753 -0.108623
C31   C     C_R   0.799241 0.300541 0.260527 -0.176175
H21   H     H_    0.921973 0.345504 0.263823 0.126820
C32   C     C_R   0.788121 0.236223 0.194557 -0.182004
H22   H     H_    0.903474 0.232948 0.149452 0.126040
C33   C     C_R   0.623842 0.181204 0.183389 -0.103976
C34   C     C_R   0.480181 0.187889 0.244477 0.113124
C35   C     C_3   0.269904 0.203148 0.233643 -0.417170
C36   C     C_3   0.282369 0.271752 0.305144 -0.399759
H23   H     H_    0.184491 0.141501 0.249487 0.177233
H24   H     H_    0.235388 0.234908 0.172052 0.166229
H25   H     H_    0.204699 0.249658 0.362414 0.179079
H26   H     H_    0.254481 0.343230 0.285178 0.161433
O11   O     O_R   0.771490 0.080820 0.910070 -0.509469
O12   O     O_R   0.441590 0.092730 0.083780 -0.547250
O13   O     O_R   0.271350 0.913900 0.084390 -0.543325
C37   C     C_R   0.610851 0.114931 0.112740 0.663692
O14   O     O_R   0.441780 0.091820 0.910670 -0.537444
O15   O     O_R   0.271540 0.912980 0.910040 -0.534611
C38   C     C_R   0.610435 0.115430 0.883242 0.759144
O16   O     O_R   0.771300 0.081740 0.084420 -0.547630
O17   O     O_3   0.604960 0.938700 0.997240 -0.380134
V3    V     V_3+5 0.330090 0.008230 0.997220 1.454606
O18   O     O_R   0.941820 0.901930 0.910640 -0.537131
C39   C     C_R   0.110611 0.880645 0.880880 0.851627
O19   O     O_R   0.941630 0.902840 0.083750 -0.548593
C40   C     C_R   0.110680 0.880967 0.112661 0.691775
V4    V     V_3+5 0.830090 0.986410 0.997190 1.459704
O20   O     O_3   0.105080 0.055990 0.997200 -0.373436
S1    S     S_3+6 0.194000 0.829394 0.560315 0.028251
O21   O     O_2   0.351536 0.892029 0.589369 -0.289716
O22   O     O_2   0.285426 0.755524 0.509091 -0.369406
O23   O     O_3   0.043185 0.885887 0.495944 -0.478801
H27   H     H_    0.124288 0.907166 0.448935 0.362505
S2    S     S_3+6 0.052255 0.970566 0.707643 0.010704
O24   O     O_2   0.941815 0.022313 0.772630 -0.374794
O25   O     O_2   0.260635 0.995749 0.715949 -0.332434
O26   O     O_3   0.968020 0.004021 0.613660 -0.450172
H28   H     H_    0.828084 0.991805 0.615604 0.362341
N1    N     N_2   0.177640 0.246398 0.615290 -0.488689
H29   H     H_    0.033743 0.234732 0.625465 0.285979
C41   C     C_3   0.264533 0.181982 0.557545 -0.355983
H30   H     H_    0.161790 0.166163 0.505945 0.177894
H31   H     H_    0.301526 0.117616 0.590484 0.266413
H32   H     H_    0.395517 0.212002 0.529173 0.159470
N2    N     N_2   0.101151 0.682111 0.907027 -0.511296
H33   H     H_    0.232908 0.651261 0.898543 0.265725
C42   C     C_3   0.972406 0.629636 0.959142 -0.589097
H34   H     H_    0.050314 0.606172 0.016210 0.195968
H35   H     H_    0.918402 0.569113 0.924161 0.193033
H36   H     H_    0.849385 0.672542 0.979518 0.200071

loop_
_geom_bond_atom_site_label_1
_geom_bond_atom_site_label_2
_ccdc_geom_bond_type
C29   C36   S    
C8    C12   S    
C21   C26   A    
O19   C40   A    
C31   C32   A    
N1    H29   S    
C18   C19   S    
C14   C15   A    
O15   V3    S    
O12   V3    S    
C21   C28   S    
O18   C39   A    
C8    H7    S    
C33   C37   S    
C30   C31   A    
O16   V4    S    
C19   H12   S    
C5    C9    S    
C15   H10   S    
O12   C37   A    
C35   C36   S    
C42   H35   S    
O5    C3    A    
C16   H11   S    
V2    O10   S    
S2    O26   S    
C5    C6    S    
C27   C28   S    
C13   C14   A    
C35   H23   S    
C11   S2    S    
O8    V2    S    
O17   V3    S    
O13   C40   A    
C34   C35   S    
C32   C33   A    
S2    O25   D    
C36   H26   S    
C23   C24   A    
N2    H33   S    
C12   H9    S    
O1    V2    S    
O7    V1    S    
C1    O6    A    
C6    N2    S    
N1    C41   S    
O9    C4    A    
N2    C42   S    
C29   C30   A    
C13   C18   A    
V3    O20   S    
C36   H25   S    
C24   C25   A    
C5    H1    S    
C6    C10   S    
O17   V4    S    
C33   C34   A    
H5    C11   S    
C42   H36   S    
S1    O21   D    
O4    C2    A    
O18   V4    S    
O11   C38   A    
C28   H20   S    
O13   V3    S    
C8    C9    S    
C19   H13   S    
C3    C17   S    
C35   H24   S    
O2    C1    A    
C2    C30   S    
C10   C11   S    
S1    O22   D    
C14   C40   S    
C37   O16   A    
O26   H28   S    
S2    O24   D    
C26   C27   S    
C23   H16   S    
C41   H31   S    
C4    C9    S    
C10   C39   S    
O3    C4    A    
C21   C22   A    
C32   H22   S    
O6    V2    S    
O9    V2    S    
H4    C7    S    
C19   C20   S    
O2    V1    S    
C7    S1    S    
C24   H17   S    
O14   C38   A    
C25   C26   A    
C17   C18   A    
O1    C2    A    
C12   H8    S    
C13   C20   S    
C7    C9    S    
O5    V1    S    
O8    C3    A    
C8    H6    S    
C28   N1    S    
O15   C39   A    
C27   H19   S    
C1    C22   S    
O19   V4    S    
O7    V2    S    
O4    V1    S    
C10   C12   S    
O3    V1    S    
V1    O10   S    
C42   H34   S    
S1    O23   S    
C16   C17   A    
C29   C34   A    
O14   V3    S    
C15   C16   A    
C5    H2    S    
C27   H18   S    
C41   H32   S    
O23   H27   S    
C20   H14   S    
C7    C11   S    
O11   V4    S    
C31   H21   S    
C6    H3    S    
C22   C23   A    
C41   H30   S    
V4    O20   S    
C20   H15   S    
C25   C38   S    
