data_mof_unit_49965.cif
_audit_creation_date              2012-12-10T19:10:05-0500
_audit_creation_method            fapswitch 2.2
_symmetry_space_group_name_H-M    P1
_symmetry_Int_Tables_number       1
_space_group_crystal_system       triclinic
_cell_length_a                    10.914377
_cell_length_b                    10.866337
_cell_length_c                    9.642711
_cell_angle_alpha                 91.206546
_cell_angle_beta                  90.537633
_cell_angle_gamma                 91.961638
_cell_volume                      1142.63673023

loop_
_atom_site_label
_atom_site_type_symbol
_atom_type_description
_atom_site_fract_x
_atom_site_fract_y
_atom_site_fract_z
_atom_type_partial_charge
C1    C     C_R   0.496415 0.262704 0.498706 0.787841
C2    C     C_R   0.217512 0.714131 0.021535 -0.121031
C3    C     C_R   0.933582 0.543948 0.386484 -0.248178
C4    C     C_R   0.871742 0.500354 0.503432 -0.057627
C5    C     C_R   0.940253 0.463140 0.619786 0.077429
C6    C     C_R   0.067034 0.468291 0.614508 -0.191774
C7    C     C_R   0.128897 0.508443 0.497116 -0.082726
C8    C     C_R   0.061241 0.548920 0.381943 -0.009955
C9    C     C_R   0.864307 0.491676 0.865426 0.079969
C10   C     C_R   0.825132 0.437902 0.989014 -0.307410
C11   C     C_R   0.813135 0.309866 0.001943 0.016723
C12   C     C_R   0.262765 0.504315 0.498982 0.775670
C13   C     C_R   0.851737 0.232755 0.891757 0.073616
C14   C     C_R   0.883714 0.286371 0.764959 -0.205766
C15   C     C_R   0.886780 0.414452 0.749050 0.074639
C16   C     C_R   0.520139 0.068944 0.617715 0.230364
C17   C     C_R   0.486977 0.129216 0.498616 -0.105589
C18   C     C_R   0.443813 0.058954 0.384016 -0.172003
C19   C     C_R   0.445518 0.930613 0.386243 -0.198852
C20   C     C_R   0.490638 0.870962 0.503307 -0.106842
C21   C     C_R   0.520922 0.941911 0.622224 0.092801
C22   C     C_3   0.638459 0.949453 0.704108 -0.440634
C23   C     C_R   0.499608 0.737576 0.501234 0.813357
C24   C     C_3   0.636493 0.087577 0.696046 -0.415422
C25   C     C_R   0.574900 0.579222 0.075852 0.216649
C26   C     C_R   0.436522 0.410282 0.071434 0.039269
C27   C     C_R   0.435778 0.411553 0.922113 0.003833
C28   C     C_R   0.575780 0.578123 0.929916 0.248649
C29   C     C_3   0.580938 0.714121 0.926959 -0.509263
C30   C     C_3   0.577838 0.715945 0.083950 -0.465227
C31   C     C_R   0.737534 0.498617 0.501099 0.794953
C32   C     C_R   0.206436 0.782277 0.144578 -0.153888
C33   C     C_R   0.158409 0.726483 0.262310 -0.129901
C34   C     C_R   0.119191 0.602033 0.257379 0.053007
C35   C     C_R   0.129359 0.532663 0.132271 0.015609
C36   C     C_R   0.179393 0.590264 0.015211 -0.130610
Cu1   Cu    Cu3+1 0.499990 0.499980 0.640670 0.957874
Cu2   Cu    Cu3+1 0.500010 0.500020 0.359330 0.941568
H1    H     H_    0.412751 0.102272 0.291973 0.216887
H2    H     H_    0.414938 0.878654 0.295171 0.159867
H3    H     H_    0.882468 0.576870 0.298625 0.148298
N1    N     N_R   0.500790 0.500930 0.147930 -0.235603
N2    N     N_R   0.500790 0.500890 0.852020 -0.242832
O1    O     O_R   0.500000 0.319640 0.618810 -0.569426
O2    O     O_R   0.500010 0.319680 0.381230 -0.596443
O3    O     O_R   0.319640 0.499990 0.618790 -0.616367
O4    O     O_R   0.319650 0.500030 0.381210 -0.609161
O5    O     O_R   0.499990 0.680320 0.618770 -0.577008
O6    O     O_R   0.500000 0.680360 0.381190 -0.581039
O7    O     O_R   0.680350 0.499970 0.618790 -0.561368
O8    O     O_R   0.680360 0.500010 0.381210 -0.600992
H4    H     H_    0.255250 0.757478 0.930578 0.157686
C37   C     C_2   0.763593 0.262470 0.133865 0.304655
H5    H     H_    0.775284 0.317362 0.228619 0.099584
O9    O     O_2   0.703574 0.165725 0.137227 -0.554416
C38   C     C_2   0.871191 0.099220 0.910831 0.404651
H6    H     H_    0.858069 0.057262 0.010648 0.119490
O10   O     O_2   0.906475 0.034291 0.815336 -0.538790
H7    H     H_    0.913249 0.228695 0.679342 0.168723
H8    H     H_    0.626215 0.923613 0.812948 0.216636
H9    H     H_    0.716634 0.907933 0.649132 0.239385
H10   H     H_    0.622411 0.134814 0.797727 0.240395
H11   H     H_    0.710913 0.127359 0.631228 0.188763
C39   C     C_2   0.362473 0.313862 0.142816 0.439858
H12   H     H_    0.317636 0.332353 0.238874 0.100434
O11   O     O_2   0.349268 0.209735 0.094277 -0.531576
H13   H     H_    0.234517 0.878776 0.148421 0.161771
C40   C     C_2   0.355751 0.322655 0.843375 0.589156
H14   H     H_    0.270614 0.351030 0.799845 0.048859
O12   O     O_2   0.383401 0.215262 0.829744 -0.516029
H15   H     H_    0.670549 0.746441 0.886203 0.206524
H16   H     H_    0.497911 0.752418 0.878839 0.222640
H17   H     H_    0.663650 0.754678 0.133145 0.199594
H18   H     H_    0.491499 0.752783 0.124714 0.223103
H19   H     H_    0.149997 0.780788 0.357046 0.146753
C41   C     C_2   0.089617 0.400789 0.123483 0.268256
H20   H     H_    0.049826 0.355390 0.212309 0.084356
O13   O     O_2   0.101738 0.340392 0.016610 -0.562554
H21   H     H_    0.188520 0.539811 0.918277 0.149267
H22   H     H_    0.117181 0.438635 0.703773 0.150973
C42   C     C_2   0.884831 0.627641 0.866090 0.342101
H23   H     H_    0.879042 0.679597 0.963116 0.068688
O14   O     O_2   0.907232 0.683760 0.760490 -0.523366
H24   H     H_    0.805616 0.496591 0.077581 0.108496

loop_
_geom_bond_atom_site_label_1
_geom_bond_atom_site_label_2
_ccdc_geom_bond_type
C16   C21   A    
C35   C36   A    
C42   H23   S    
C7    C8    A    
Cu2   O6    S    
C37   H5    S    
C25   C28   A    
C14   H7    S    
C26   C27   A    
Cu1   Cu2   S    
C28   C29   S    
C41   O13   D    
Cu2   N1    S    
C22   H8    S    
C5    C6    A    
C30   H18   S    
C23   O6    A    
C38   H6    S    
C2    C32   A    
C34   C35   A    
C26   C39   S    
Cu2   O2    S    
C27   C40   S    
C33   H19   S    
C19   C20   A    
C40   H14   S    
C9    C10   A    
C11   C37   S    
C29   H16   S    
C16   C24   S    
C21   C22   S    
C12   O4    A    
C42   O14   D    
C33   C34   A    
C37   O9    D    
C7    C12   S    
C35   C41   S    
C41   H20   S    
C12   O3    A    
C3    C8    A    
C19   H2    S    
C30   H17   S    
C18   C19   A    
Cu2   O8    S    
C39   O11   D    
Cu1   N2    S    
C18   H1    S    
C29   C30   S    
C1    O1    A    
C6    H22   S    
C20   C23   S    
C17   C18   A    
C8    C34   S    
Cu1   O5    S    
Cu2   O4    S    
C2    H4    S    
C32   H13   S    
C24   H11   S    
C22   C24   S    
C31   O7    A    
C3    C4    A    
C26   N1    A    
C2    C36   A    
C25   C30   S    
C3    H3    S    
C24   H10   S    
C23   O5    A    
C31   O8    A    
C4    C5    A    
C36   H21   S    
C25   N1    A    
C6    C7    A    
C28   N2    A    
C1    C17   S    
C39   H12   S    
C13   C38   S    
Cu1   O1    S    
C9    C15   A    
C32   C33   A    
C22   H9    S    
Cu1   O7    S    
C11   C13   A    
C1    O2    A    
C16   C17   A    
C10   H24   S    
C38   O10   D    
C5    C15   S    
C4    C31   S    
C10   C11   A    
C27   N2    A    
C20   C21   A    
C40   O12   D    
C14   C15   A    
Cu1   O3    S    
C13   C14   A    
C9    C42   S    
C29   H15   S    
