data_mof_unit_61958.cif
_audit_creation_date              2012-12-10T18:08:46-0500
_audit_creation_method            fapswitch 2.2
_symmetry_space_group_name_H-M    P1
_symmetry_Int_Tables_number       1
_space_group_crystal_system       triclinic
_cell_length_a                    37.00999
_cell_length_b                    18.374748
_cell_length_c                    18.375292
_cell_angle_alpha                 89.995601
_cell_angle_beta                  119.889964
_cell_angle_gamma                 89.999168
_cell_volume                      10833.9222606

loop_
_atom_site_label
_atom_site_type_symbol
_atom_type_description
_atom_site_fract_x
_atom_site_fract_y
_atom_site_fract_z
_atom_type_partial_charge
C1    C     C_R   0.500046 0.000002 0.360185 0.842022
C2    C     C_R   0.499952 0.999998 0.639813 0.842599
C3    C     C_R   0.000047 0.500002 0.360185 0.842351
C4    C     C_R   0.999952 0.499998 0.639814 0.842638
C5    C     C_1   0.837736 0.999148 0.835287 0.091625
C6    C     C_1   0.162263 0.999425 0.164748 0.092084
C7    C     C_1   0.337737 0.499153 0.835300 0.091622
C8    C     C_1   0.662263 0.499274 0.164743 0.091836
C9    C     C_1   0.662256 0.000623 0.659135 0.090828
C10   C     C_1   0.337742 0.000834 0.340672 0.091179
C11   C     C_1   0.162256 0.500620 0.659146 0.090853
C12   C     C_1   0.837742 0.500734 0.340783 0.090985
C13   C     C_1   0.624654 0.000118 0.623266 -0.212197
C14   C     C_1   0.375345 0.000160 0.376655 -0.211970
C15   C     C_1   0.124654 0.500120 0.623276 -0.212215
C16   C     C_1   0.875345 0.500143 0.376704 -0.212085
C17   C     C_1   0.500094 0.000006 0.282769 -0.174272
C18   C     C_1   0.499904 0.999994 0.717229 -0.174118
C19   C     C_1   0.000094 0.500006 0.282769 -0.174114
C20   C     C_1   0.999905 0.499994 0.717230 -0.174062
C21   C     C_1   0.500100 0.000005 0.217527 -0.171469
C22   C     C_1   0.499898 0.999995 0.782472 -0.171524
C23   C     C_1   0.000101 0.500005 0.217527 -0.171378
C24   C     C_1   0.999899 0.499995 0.782473 -0.171438
C25   C     C_R   0.000002 0.139694 0.000000 0.845453
C26   C     C_R   0.999998 0.860306 0.000001 0.836776
C27   C     C_R   0.500002 0.639694 0.999999 0.845947
C28   C     C_R   0.499999 0.360306 0.000001 0.836558
C29   C     C_R   0.920035 0.999968 0.919903 0.814500
C30   C     C_R   0.079965 0.999946 0.080097 0.813727
C31   C     C_R   0.420035 0.499974 0.919903 0.814531
C32   C     C_R   0.579965 0.499953 0.080098 0.814096
C33   C     C_R   0.500001 0.859973 0.999999 0.844377
C34   C     C_R   0.499999 0.140028 0.000001 0.844589
C35   C     C_R   0.000001 0.359973 1.000000 0.844274
C36   C     C_R   0.999999 0.640028 0.000001 0.844646
C37   C     C_R   0.500035 0.000002 0.139994 0.844791
C38   C     C_R   0.499964 0.999998 0.860006 0.845039
C39   C     C_R   0.000036 0.500002 0.139994 0.844798
C40   C     C_R   0.999964 0.499998 0.860006 0.844975
C41   C     C_1   0.000004 0.217196 0.999998 -0.173341
C42   C     C_1   0.999997 0.782805 0.000003 -0.179535
C43   C     C_1   0.500003 0.717196 0.999997 -0.172764
C44   C     C_1   0.499997 0.282805 0.000004 -0.179963
C45   C     C_R   0.579966 0.000007 0.579877 0.815861
C46   C     C_R   0.420034 0.000011 0.420121 0.815013
C47   C     C_R   0.079966 0.500007 0.579881 0.815921
C48   C     C_R   0.920034 0.500011 0.420124 0.815443
C49   C     C_1   0.500003 0.782467 0.999998 -0.171451
C50   C     C_1   0.499997 0.217534 0.000002 -0.175235
C51   C     C_1   0.000004 0.282467 0.999999 -0.171936
C52   C     C_1   0.999997 0.717534 0.000002 -0.174787
C53   C     C_3   0.725478 0.076208 0.687069 0.760229
C54   C     C_3   0.275446 0.942434 0.338597 0.740765
C55   C     C_3   0.274524 0.080670 0.301686 0.759448
C56   C     C_3   0.724555 0.934284 0.670087 0.739890
C57   C     C_3   0.225476 0.575856 0.686323 0.760359
C58   C     C_3   0.775449 0.438328 0.334564 0.740450
C59   C     C_3   0.774518 0.578704 0.307206 0.759789
C60   C     C_3   0.224555 0.433777 0.670761 0.739621
C61   C     C_3   0.774538 0.927662 0.728561 0.760368
C62   C     C_3   0.224545 0.076279 0.261128 0.739304
C63   C     C_3   0.225461 0.934723 0.281139 0.760884
C64   C     C_3   0.775460 0.070485 0.728361 0.739739
C65   C     C_3   0.274539 0.427241 0.729297 0.760098
C66   C     C_3   0.724538 0.573651 0.266315 0.739459
C67   C     C_3   0.725465 0.431121 0.276594 0.760760
C68   C     C_3   0.275458 0.570049 0.727670 0.739820
C69   C     C_1   0.875342 0.999623 0.874612 -0.211273
C70   C     C_1   0.124657 0.999703 0.125392 -0.210965
C71   C     C_1   0.375343 0.499634 0.874616 -0.211308
C72   C     C_1   0.624657 0.499652 0.125394 -0.211079
C73   C     C_3   0.708690 0.001070 0.704002 -0.200372
C74   C     C_3   0.291308 0.001502 0.295724 -0.200745
C75   C     C_3   0.208690 0.501057 0.704008 -0.200279
C76   C     C_3   0.791308 0.501290 0.295878 -0.200631
C77   C     C_3   0.791304 0.998847 0.786880 -0.201190
C78   C     C_3   0.208695 0.999344 0.213167 -0.201085
C79   C     C_3   0.291304 0.498839 0.786903 -0.201149
C80   C     C_3   0.708695 0.499088 0.213164 -0.201166
C81   C     C_3   0.774696 0.000240 0.852348 -0.244195
C82   C     C_3   0.225297 0.989104 0.148318 -0.244380
C83   C     C_3   0.274699 0.501050 0.852357 -0.243993
C84   C     C_3   0.725300 0.494464 0.147810 -0.244347
C85   C     C_3   0.725261 0.991082 0.802208 -0.243749
C86   C     C_3   0.274732 0.980082 0.199747 -0.243954
C87   C     C_3   0.225264 0.491886 0.802311 -0.243602
C88   C     C_3   0.774736 0.485357 0.198621 -0.243875
Cu1   Cu    Cu3+1 0.500000 0.072550 0.500000 0.952102
Cu2   Cu    Cu3+1 0.500000 0.927450 0.500000 0.976305
Cu3   Cu    Cu3+1 1.000000 0.572550 0.500000 0.952556
Cu4   Cu    Cu3+1 0.000000 0.427450 0.500000 0.975369
Cu5   Cu    Cu3+1 0.000010 0.000000 0.927480 0.966247
Cu6   Cu    Cu3+1 0.999990 0.000000 0.072520 0.965279
Cu7   Cu    Cu3+1 0.500010 0.500000 0.927480 0.966230
Cu8   Cu    Cu3+1 0.499990 0.500000 0.072520 0.965128
Cu9   Cu    Cu3+1 0.541320 0.000000 0.041310 0.967747
Cu10  Cu    Cu3+1 0.458680 0.000000 0.958690 0.967403
Cu11  Cu    Cu3+1 0.041320 0.500000 0.041310 0.967762
Cu12  Cu    Cu3+1 0.958680 0.500000 0.958690 0.967693
O1    O     O_R   0.500010 0.061270 0.394200 -0.582992
O2    O     O_R   0.499990 0.938730 0.605800 -0.580577
O3    O     O_R   0.499990 0.061270 0.605800 -0.582122
O4    O     O_R   0.500010 0.938730 0.394200 -0.580968
O5    O     O_R   0.000010 0.561270 0.394200 -0.582704
O6    O     O_R   0.999990 0.438730 0.605800 -0.580898
O7    O     O_R   0.999990 0.561270 0.605800 -0.582080
O8    O     O_R   0.000010 0.438730 0.394200 -0.581001
O9    O     O_R   0.560280 0.061270 0.560280 -0.588850
O10   O     O_R   0.439720 0.938730 0.439720 -0.570909
O11   O     O_R   0.439720 0.061270 0.439720 -0.589660
O12   O     O_R   0.560280 0.938730 0.560280 -0.572693
O13   O     O_R   0.060280 0.561270 0.560280 -0.588814
O14   O     O_R   0.939720 0.438730 0.439720 -0.571736
O15   O     O_R   0.939720 0.561270 0.439720 -0.589316
O16   O     O_R   0.060280 0.438730 0.560280 -0.572818
O17   O     O_R   1.000000 0.105620 0.938740 -0.580761
O18   O     O_R   1.000000 0.894380 0.061260 -0.582116
O19   O     O_R   0.000000 0.105620 0.061260 -0.580792
O20   O     O_R   1.000000 0.894380 0.938740 -0.581126
O21   O     O_R   0.500000 0.605620 0.938740 -0.580648
O22   O     O_R   0.500000 0.394380 0.061260 -0.582083
O23   O     O_R   0.500000 0.605620 0.061260 -0.580798
O24   O     O_R   0.500000 0.394380 0.938740 -0.581252
O25   O     O_R   0.939730 0.000000 0.878470 -0.591848
O26   O     O_R   0.060270 0.000000 0.121530 -0.591822
O27   O     O_R   0.439730 0.500000 0.878470 -0.591755
O28   O     O_R   0.560270 0.500000 0.121530 -0.591857
O29   O     O_R   0.939720 0.000000 0.000940 -0.568210
O30   O     O_R   0.060280 0.000000 0.999060 -0.567243
O31   O     O_R   0.439720 0.500000 0.000940 -0.568371
O32   O     O_R   0.560280 0.500000 0.999060 -0.567659
O33   O     O_R   0.534900 0.894160 0.034870 -0.584276
O34   O     O_R   0.465100 0.105840 0.965130 -0.584775
O35   O     O_R   0.465100 0.894160 0.965130 -0.583575
O36   O     O_R   0.534900 0.105840 0.034870 -0.584119
O37   O     O_R   0.034900 0.394160 0.034870 -0.584852
O38   O     O_R   0.965100 0.605840 0.965130 -0.584829
O39   O     O_R   0.965100 0.394160 0.965130 -0.583444
O40   O     O_R   0.034900 0.605840 0.034870 -0.583615
O41   O     O_R   0.534890 0.000000 0.140680 -0.590671
O42   O     O_R   0.465110 0.000000 0.859320 -0.591110
O43   O     O_R   0.034890 0.500000 0.140680 -0.590603
O44   O     O_R   0.965110 0.500000 0.859320 -0.590874
O45   O     O_R   0.465110 0.000000 0.070890 -0.575717
O46   O     O_R   0.534890 0.000000 0.929110 -0.575726
O47   O     O_R   0.965110 0.500000 0.070890 -0.575780
O48   O     O_R   0.034890 0.500000 0.929110 -0.575837
O49   O     O_3   0.784817 0.064757 0.661471 -0.555737
C89   C     C_3   0.827145 0.075738 0.683765 -0.222182
H1    H     H_    0.842182 0.022999 0.686049 0.207668
H2    H     H_    0.846616 0.104723 0.743825 0.169902
H3    H     H_    0.827759 0.108560 0.633736 0.141380
O50   O     O_3   0.205576 0.943622 0.330746 -0.567651
C90   C     C_3   0.211000 0.887014 0.387610 -0.266233
H4    H     H_    0.236780 0.900097 0.451385 0.199156
H5    H     H_    0.215091 0.832309 0.367987 0.146635
H6    H     H_    0.182383 0.884165 0.392609 0.154166
O51   O     O_3   0.215196 0.081390 0.328070 -0.555785
C91   C     C_3   0.172874 0.095145 0.304045 -0.224281
H7    H     H_    0.157834 0.044758 0.309098 0.207773
H8    H     H_    0.153400 0.118125 0.240299 0.169056
H9    H     H_    0.172275 0.134795 0.348935 0.141273
O52   O     O_3   0.794423 0.926641 0.678392 -0.568177
C92   C     C_3   0.788999 0.863342 0.630047 -0.265167
H10   H     H_    0.763218 0.870946 0.564803 0.198318
H11   H     H_    0.784907 0.812542 0.657173 0.148796
H12   H     H_    0.817615 0.855748 0.625785 0.153779
O53   O     O_3   0.284813 0.563561 0.660840 -0.555716
C93   C     C_3   0.327140 0.574343 0.683021 -0.221757
H13   H     H_    0.342177 0.521481 0.685827 0.207654
H14   H     H_    0.346612 0.603729 0.742791 0.169902
H15   H     H_    0.327752 0.606662 0.632668 0.141649
O54   O     O_3   0.705580 0.435228 0.326648 -0.567718
C94   C     C_3   0.711008 0.375233 0.379518 -0.266410
H16   H     H_    0.736786 0.385692 0.444101 0.198749
H17   H     H_    0.715102 0.322284 0.356205 0.147456
H18   H     H_    0.682391 0.370072 0.384244 0.153883
O55   O     O_3   0.715184 0.573518 0.333423 -0.555775
C95   C     C_3   0.672859 0.585959 0.310282 -0.223300
H19   H     H_    0.657823 0.534303 0.311831 0.207772
H20   H     H_    0.653385 0.611908 0.248211 0.169433
H21   H     H_    0.672250 0.622394 0.357775 0.141218
O56   O     O_3   0.294422 0.425522 0.679140 -0.568562
C96   C     C_3   0.288996 0.361799 0.631425 -0.263525
H22   H     H_    0.263215 0.369009 0.566108 0.198336
H23   H     H_    0.284907 0.311312 0.659058 0.149268
H24   H     H_    0.317612 0.353880 0.627237 0.153947
O57   O     O_3   0.705624 0.084576 0.597480 -0.568195
C97   C     C_3   0.711075 0.152013 0.566903 -0.268692
H25   H     H_    0.736872 0.148560 0.552882 0.198446
H26   H     H_    0.715155 0.199264 0.607373 0.147881
H27   H     H_    0.682475 0.163024 0.506146 0.153268
O58   O     O_3   0.284779 0.966616 0.420545 -0.553663
C98   C     C_3   0.327110 0.960931 0.485306 -0.233538
H28   H     H_    0.342121 0.015222 0.499982 0.202158
H29   H     H_    0.346605 0.922991 0.472630 0.171264
H30   H     H_    0.327732 0.941420 0.543041 0.145842
O59   O     O_3   0.294386 0.098799 0.389394 -0.568822
C99   C     C_3   0.288935 0.170650 0.410082 -0.266214
H31   H     H_    0.263140 0.172874 0.424196 0.197659
H32   H     H_    0.284858 0.212290 0.363298 0.149581
H33   H     H_    0.317534 0.186070 0.468967 0.153343
O60   O     O_3   0.715223 0.947963 0.585447 -0.553826
C100  C     C_3   0.672894 0.939199 0.521714 -0.232834
H34   H     H_    0.657881 0.993003 0.499362 0.201936
H35   H     H_    0.653399 0.906196 0.539432 0.172444
H36   H     H_    0.672275 0.911815 0.467317 0.144975
O61   O     O_3   0.205620 0.583529 0.596653 -0.568102
C101  C     C_3   0.211068 0.650604 0.565402 -0.268725
H37   H     H_    0.236864 0.646756 0.551414 0.198703
H38   H     H_    0.215148 0.698216 0.605397 0.147337
H39   H     H_    0.182467 0.661293 0.504538 0.153366
O62   O     O_3   0.784779 0.457479 0.417998 -0.553686
C102  C     C_3   0.827110 0.450291 0.482319 -0.233248
H40   H     H_    0.842118 0.504484 0.500711 0.202037
H41   H     H_    0.846608 0.414654 0.467124 0.171814
H42   H     H_    0.827732 0.426913 0.538583 0.145381
O63   O     O_3   0.794374 0.592149 0.395996 -0.568529
C103  C     C_3   0.788918 0.662041 0.421536 -0.267374
H43   H     H_    0.763122 0.661516 0.435704 0.197900
H44   H     H_    0.784838 0.706506 0.377702 0.149000
H45   H     H_    0.817516 0.675365 0.481405 0.153219
O64   O     O_3   0.215222 0.446702 0.585987 -0.553895
C104  C     C_3   0.172893 0.437722 0.522343 -0.232579
H46   H     H_    0.157878 0.491450 0.499453 0.201915
H47   H     H_    0.153400 0.405088 0.540387 0.172476
H48   H     H_    0.172274 0.409805 0.468221 0.145095
O65   O     O_3   0.703927 0.869814 0.675481 -0.587559
C105  C     C_3   0.708561 0.805919 0.637904 -0.248552
H49   H     H_    0.711801 0.815386 0.582059 0.142028
H50   H     H_    0.679917 0.772847 0.615980 0.169394
H51   H     H_    0.734505 0.772206 0.685035 0.201832
O66   O     O_3   0.283905 0.132438 0.254857 -0.598605
C106  C     C_3   0.325682 0.158374 0.294457 -0.273524
H52   H     H_    0.345233 0.145276 0.362052 0.183030
H53   H     H_    0.324946 0.218486 0.288379 0.167048
H54   H     H_    0.341756 0.137123 0.261806 0.193659
O67   O     O_3   0.296071 0.874911 0.342596 -0.586805
C107  C     C_3   0.291434 0.817628 0.388792 -0.253835
H55   H     H_    0.288199 0.835354 0.442707 0.141960
H56   H     H_    0.320075 0.783907 0.415467 0.168415
H57   H     H_    0.265489 0.781276 0.346649 0.200956
O68   O     O_3   0.716090 0.135408 0.725997 -0.598546
C108  C     C_3   0.674310 0.161405 0.682681 -0.274593
H58   H     H_    0.654754 0.141594 0.617449 0.182378
H59   H     H_    0.675036 0.221665 0.680116 0.165048
H60   H     H_    0.658243 0.147324 0.717881 0.194816
O69   O     O_3   0.203929 0.369569 0.676801 -0.587778
C109  C     C_3   0.208564 0.305254 0.639867 -0.247193
H61   H     H_    0.211802 0.314129 0.583928 0.142400
H62   H     H_    0.179921 0.272249 0.618276 0.169547
H63   H     H_    0.234509 0.271754 0.687333 0.201929
O70   O     O_3   0.783898 0.634207 0.264060 -0.598590
C110  C     C_3   0.825675 0.660246 0.305454 -0.273797
H64   H     H_    0.845229 0.643861 0.372028 0.182725
H65   H     H_    0.824938 0.720583 0.303544 0.166200
H66   H     H_    0.841746 0.642420 0.271444 0.194205
O71   O     O_3   0.796080 0.372116 0.333978 -0.587065
C111  C     C_3   0.791447 0.311481 0.376131 -0.251768
H67   H     H_    0.788209 0.325246 0.431124 0.141780
H68   H     H_    0.820092 0.277991 0.400504 0.168791
H69   H     H_    0.765506 0.276313 0.331535 0.201332
O72   O     O_3   0.216087 0.635536 0.724655 -0.598508
C112  C     C_3   0.174306 0.661516 0.681081 -0.275059
H70   H     H_    0.154749 0.641243 0.616054 0.182377
H71   H     H_    0.175032 0.721740 0.677904 0.164623
H72   H     H_    0.158243 0.647955 0.716426 0.194940
O73   O     O_3   0.783916 0.863718 0.779869 -0.596566
C113  C     C_3   0.825706 0.838036 0.817789 -0.285571
H73   H     H_    0.845278 0.862517 0.794176 0.177735
H74   H     H_    0.825001 0.778449 0.807515 0.168815
H75   H     H_    0.841747 0.846684 0.886426 0.191909
O74   O     O_3   0.203925 0.132430 0.199358 -0.589994
C114  C     C_3   0.208544 0.204714 0.229324 -0.248008
H76   H     H_    0.211768 0.209980 0.292179 0.142623
H77   H     H_    0.179901 0.235114 0.185848 0.170279
H78   H     H_    0.234492 0.232255 0.226698 0.203357
O75   O     O_3   0.216082 0.865505 0.239291 -0.596494
C115  C     C_3   0.174292 0.840654 0.204968 -0.287706
H79   H     H_    0.154713 0.871036 0.224639 0.179232
H80   H     H_    0.174999 0.783031 0.223623 0.167169
H81   H     H_    0.158258 0.841741 0.135634 0.191435
O76   O     O_3   0.796079 0.131869 0.781777 -0.589417
C116  C     C_3   0.791465 0.199842 0.741835 -0.253330
H82   H     H_    0.788246 0.196623 0.678838 0.142051
H83   H     H_    0.820110 0.232006 0.780866 0.169251
H84   H     H_    0.765515 0.231166 0.740264 0.202605
O77   O     O_3   0.283917 0.363718 0.781242 -0.596584
C117  C     C_3   0.325708 0.337996 0.819418 -0.285403
H85   H     H_    0.345277 0.362034 0.795551 0.177658
H86   H     H_    0.325003 0.278314 0.809752 0.169051
H87   H     H_    0.341752 0.347178 0.887965 0.191881
O78   O     O_3   0.703915 0.632480 0.208484 -0.589805
C118  C     C_3   0.708526 0.702857 0.243341 -0.250055
H88   H     H_    0.711747 0.704024 0.306414 0.142378
H89   H     H_    0.679881 0.734187 0.201977 0.169812
H90   H     H_    0.734474 0.732306 0.242675 0.203070
O79   O     O_3   0.716091 0.364286 0.230086 -0.596510
C119  C     C_3   0.674303 0.338965 0.194039 -0.286733
H91   H     H_    0.654724 0.366564 0.215712 0.178481
H92   H     H_    0.675011 0.280243 0.208687 0.167876
H93   H     H_    0.658267 0.343714 0.124905 0.191703
O80   O     O_3   0.296076 0.631759 0.780470 -0.589215
C120  C     C_3   0.291460 0.699376 0.739848 -0.254555
H94   H     H_    0.288239 0.695562 0.676886 0.141938
H95   H     H_    0.320104 0.731644 0.778556 0.169070
H96   H     H_    0.265510 0.730943 0.737965 0.202364
C121  C     C_1   0.704774 0.042062 0.833433 0.310258
N1    N     N_1   0.689099 0.080855 0.859136 -0.269198
C122  C     C_1   0.287920 0.904761 0.193893 0.393147
N2    N     N_1   0.298188 0.846333 0.188801 -0.221681
C123  C     C_1   0.295221 0.023206 0.161824 0.310908
N3    N     N_1   0.310896 0.055737 0.131043 -0.271470
C124  C     C_1   0.712061 0.919230 0.818530 0.391663
N4    N     N_1   0.701782 0.863577 0.831733 -0.221364
C125  C     C_1   0.204778 0.543380 0.833026 0.309998
N5    N     N_1   0.189105 0.582587 0.858341 -0.268820
C126  C     C_1   0.787934 0.411529 0.187655 0.392463
N6    N     N_1   0.798210 0.354300 0.178598 -0.221272
C127  C     C_1   0.795221 0.532401 0.163792 0.310637
N7    N     N_1   0.810893 0.568053 0.135350 -0.270597
C128  C     C_1   0.212065 0.420332 0.819352 0.391384
N8    N     N_1   0.201789 0.364917 0.833114 -0.221976
C129  C     C_1   0.787879 0.068602 0.902516 0.393706
N9    N     N_1   0.798143 0.121490 0.942036 -0.221525
C130  C     C_1   0.204826 0.927021 0.089982 0.314259
N10   N     N_1   0.189169 0.879278 0.043546 -0.267330
C131  C     C_1   0.212121 0.051567 0.088856 0.394021
N11   N     N_1   0.201863 0.099798 0.042152 -0.221791
C132  C     C_1   0.795158 0.944111 0.919079 0.315045
N12   N     N_1   0.810812 0.901181 0.971958 -0.269223
C133  C     C_1   0.287882 0.569778 0.901841 0.393671
N13   N     N_1   0.298146 0.622955 0.940831 -0.221879
C134  C     C_1   0.704838 0.435110 0.085315 0.314589
N14   N     N_1   0.689187 0.389578 0.035684 -0.267694
C135  C     C_1   0.712118 0.559944 0.092728 0.393834
N15   N     N_1   0.701855 0.610553 0.049409 -0.221428
C136  C     C_1   0.295163 0.445385 0.919647 0.315123
N16   N     N_1   0.310816 0.402828 0.972952 -0.270466

loop_
_geom_bond_atom_site_label_1
_geom_bond_atom_site_label_2
_ccdc_geom_bond_type
Cu7   O24   S    
C110  H65   S    
C117  H87   S    
C38   O42   A    
C64   C77   S    
C53   O68   S    
C135  N15   T    
C27   O21   A    
C87   C128  S    
C94   H17   S    
C133  N13   T    
C3    O5    A    
Cu11  O43   S    
O76   C116  S    
C59   C66   S    
C53   C64   S    
C45   O9    A    
C54   C63   S    
C109  H62   S    
C22   C38   S    
C55   C62   S    
C104  H48   S    
O68   C108  S    
C47   O13   A    
O74   C114  S    
C9    C13   T    
C35   O39   A    
C54   C74   S    
C55   C74   S    
C11   C15   T    
C55   O59   S    
C12   C16   T    
C88   C126  S    
C3    C19   S    
Cu5   O20   S    
C98   H30   S    
C109  H63   S    
O59   C99   S    
C108  H58   S    
C90   H6    S    
C25   O19   A    
C95   H20   S    
C29   C69   S    
C47   O16   A    
C4    O7    A    
C57   O61   S    
C128  N8    T    
C91   H9    S    
Cu3   O7    S    
C14   C46   S    
Cu12  O44   S    
C25   C41   S    
C28   C44   S    
C17   C21   T    
C82   C131  S    
C19   C23   T    
C102  H40   S    
O65   C105  S    
C68   O53   S    
C78   C82   S    
C94   H16   S    
C34   O36   A    
C105  H50   S    
Cu4   O16   S    
Cu2   O4    S    
O50   C90   S    
C58   O62   S    
Cu4   O6    S    
C60   C65   S    
C46   O10   A    
C35   C51   S    
Cu7   O32   S    
C113  H74   S    
C5    C77   S    
Cu5   O30   S    
C1    O1    A    
C119  H91   S    
C48   O14   A    
C44   C50   T    
C100  H34   S    
C56   C73   S    
Cu1   O1    S    
C84   C88   S    
C66   O55   S    
C116  H83   S    
C35   O37   A    
C13   C45   S    
C56   O65   S    
C134  N14   T    
C4    C20   S    
C58   C67   S    
C99   H32   S    
C127  N7    T    
C108  H60   S    
C129  N9    T    
C88   C127  S    
C41   C51   T    
C42   C52   T    
C57   O72   S    
C97   H25   S    
C65   C79   S    
C29   O25   A    
Cu3   O5    S    
C31   O27   A    
Cu9   Cu10  S    
C123  N3    T    
C58   C76   S    
C118  H89   S    
O69   C109  S    
C7    C79   S    
C26   O20   A    
C28   O22   A    
C96   H23   S    
C93   H13   S    
C2    O2    A    
C67   O54   S    
O56   C96   S    
C62   O74   S    
O54   C94   S    
C38   O46   A    
C31   O31   A    
Cu4   O8    S    
C29   O29   A    
C61   C77   S    
O72   C112  S    
C120  H95   S    
C36   C52   S    
C119  H93   S    
C68   C79   S    
C31   C71   S    
C92   H11   S    
Cu10  O42   S    
O57   C97   S    
Cu5   O17   S    
C103  H43   S    
O77   C117  S    
C100  H35   S    
C81   C129  S    
C86   C122  S    
C114  H78   S    
C115  H79   S    
C10   C14   T    
C102  H42   S    
Cu3   Cu4   S    
C4    O6    A    
Cu10  O35   S    
O55   C95   S    
C91   H8    S    
Cu12  O39   S    
C27   C43   S    
C64   O76   S    
C106  H52   S    
O61   C101  S    
C56   C61   S    
C112  H71   S    
C73   C85   S    
Cu8   O31   S    
C75   C87   S    
C101  H38   S    
C60   O69   S    
C106  H54   S    
C55   O66   S    
C90   H4    S    
C26   C42   S    
C86   C123  S    
Cu8   O23   S    
C67   O79   S    
C18   C22   T    
C62   C78   S    
C83   C136  S    
C26   O18   A    
C111  H67   S    
C28   O24   A    
Cu10  O45   S    
C3    O8    A    
C101  H39   S    
C66   C80   S    
C1    C17   S    
C64   O49   S    
C57   C75   S    
C11   C75   S    
Cu6   O18   S    
C63   O75   S    
C107  H55   S    
C104  H47   S    
Cu9   O46   S    
O60   C100  S    
C89   H1    S    
Cu11  O37   S    
C57   C68   S    
C46   O11   A    
C53   O57   S    
C59   C76   S    
C103  H45   S    
C81   C85   S    
O71   C111  S    
C98   H29   S    
C65   O56   S    
C83   C87   S    
C90   H5    S    
C61   O52   S    
O67   C107  S    
C115  H81   S    
C80   C84   S    
O64   C104  S    
C32   C72   S    
C84   C134  S    
Cu5   Cu6   S    
C37   O41   A    
C54   O58   S    
O52   C92   S    
C54   O67   S    
O78   C118  S    
Cu12  O47   S    
C33   C49   S    
Cu8   O28   S    
C117  H85   S    
C131  N11   T    
C5    C69   T    
C97   H27   S    
C89   H3    S    
O75   C115  S    
C15   C47   S    
Cu7   O21   S    
O58   C98   S    
C68   O80   S    
C110  H66   S    
C124  N4    T    
C81   C132  S    
O73   C113  S    
C113  H75   S    
C111  H69   S    
C61   O73   S    
C30   C70   S    
C119  H92   S    
C94   H18   S    
C8    C72   T    
C40   O48   A    
C118  H88   S    
C85   C121  S    
C98   H28   S    
C109  H61   S    
C30   O30   A    
C107  H57   S    
O79   C119  S    
C116  H82   S    
O51   C91   S    
C77   C81   S    
C87   C125  S    
Cu9   O41   S    
Cu12  O38   S    
C108  H59   S    
O66   C106  S    
O63   C103  S    
C95   H19   S    
C65   O77   S    
C6    C70   T    
Cu10  O34   S    
C84   C135  S    
C97   H26   S    
C67   C80   S    
C63   O50   S    
C85   C124  S    
C60   C75   S    
Cu8   O22   S    
C58   O71   S    
C130  N10   T    
C82   C86   S    
O49   C89   S    
C79   C83   S    
C32   O28   A    
C96   H22   S    
C93   H14   S    
C2    O3    A    
Cu3   O15   S    
C105  H49   S    
Cu5   O25   S    
C6    C78   S    
C126  N6    T    
Cu7   O27   S    
C21   C37   S    
C120  H94   S    
C34   O34   A    
C113  H73   S    
Cu1   Cu2   S    
C36   O38   A    
C93   H15   S    
Cu11  O48   S    
C30   O26   A    
C92   H10   S    
C2    C18   S    
O53   C93   S    
Cu7   Cu8   S    
Cu2   O12   S    
C132  N12   T    
C16   C48   S    
C103  H44   S    
C45   O12   A    
C121  N1    T    
O70   C110  S    
C114  H77   S    
C115  H80   S    
C116  H84   S    
C102  H41   S    
C7    C71   T    
Cu1   O9    S    
C105  H51   S    
C33   O35   A    
Cu2   O2    S    
C136  N16   T    
C99   H31   S    
C112  H70   S    
C76   C88   S    
C95   H21   S    
C59   O70   S    
C106  H53   S    
C9    C73   S    
C60   O64   S    
C118  H90   S    
Cu6   O26   S    
Cu9   O33   S    
C34   C50   S    
Cu6   O29   S    
C20   C24   T    
C111  H68   S    
C27   O23   A    
O62   C102  S    
C43   C49   T    
C96   H24   S    
C122  N2    T    
Cu3   O13   S    
Cu6   O19   S    
Cu11  Cu12  S    
C120  H96   S    
C107  H56   S    
C104  H46   S    
C82   C130  S    
C83   C133  S    
C74   C86   S    
C36   O40   A    
C1    O4    A    
C48   O15   A    
O80   C120  S    
C114  H76   S    
C39   O43   A    
C92   H12   S    
C40   O44   A    
C89   H2    S    
Cu11  O40   S    
Cu2   O10   S    
C110  H64   S    
C32   O32   A    
C100  H36   S    
C53   C73   S    
C25   O17   A    
C56   O60   S    
Cu1   O11   S    
C91   H7    S    
C12   C76   S    
C59   O63   S    
C10   C74   S    
C99   H33   S    
C23   C39   S    
C24   C40   S    
C117  H86   S    
C125  N5    T    
C112  H72   S    
C66   O78   S    
C33   O33   A    
C101  H37   S    
C39   O47   A    
C8    C80   S    
C62   O51   S    
Cu9   O36   S    
C37   O45   A    
Cu4   O14   S    
C63   C78   S    
Cu1   O3    S    
