data_mof_unit_22249.cif
_audit_creation_date              2012-10-26T17:11:13-0400
_audit_creation_method            fapswitch 2.2
_symmetry_space_group_name_H-M    P1
_symmetry_Int_Tables_number       1
_space_group_crystal_system       triclinic
_cell_length_a                    27.928594
_cell_length_b                    18.756415
_cell_length_c                    16.881435
_cell_angle_alpha                 89.942558
_cell_angle_beta                  62.888615
_cell_angle_gamma                 89.666895
_cell_volume                      7871.361342

loop_
_atom_site_label
_atom_site_type_symbol
_atom_type_description
_atom_site_fract_x
_atom_site_fract_y
_atom_site_fract_z
_atom_type_partial_charge
C1    C     C_R   0.294171 0.726809 0.330224 0.828210
C2    C     C_R   0.704801 0.271302 0.670520 0.816558
C3    C     C_R   0.704780 0.728771 0.670540 0.834954
C4    C     C_R   0.295153 0.271465 0.329764 0.823375
C5    C     C_R   0.794171 0.226809 0.330224 0.828206
C6    C     C_R   0.204800 0.771301 0.670520 0.816566
C7    C     C_R   0.204780 0.228771 0.670540 0.834952
C8    C     C_R   0.795153 0.771465 0.329764 0.823389
C9    C     C_R   0.531629 0.878099 0.542020 0.435705
C10   C     C_R   0.464482 0.128956 0.440048 0.413859
C11   C     C_R   0.472307 0.873111 0.432660 0.437321
C12   C     C_R   0.569561 0.123300 0.452128 0.450987
C13   C     C_R   0.031629 0.378100 0.542020 0.435706
C14   C     C_R   0.964479 0.628959 0.440052 0.413840
C15   C     C_R   0.972308 0.373114 0.432660 0.437318
C16   C     C_R   0.069553 0.623309 0.452154 0.450966
C17   C     C_R   0.228780 0.780305 0.945648 0.130884
C18   C     C_R   0.786467 0.244167 0.040483 0.130253
C19   C     C_R   0.785822 0.757580 0.041532 0.129556
C20   C     C_R   0.227385 0.221467 0.947640 0.130736
C21   C     C_R   0.728782 0.280309 0.945646 0.130885
C22   C     C_R   0.286465 0.744164 0.040484 0.130252
C23   C     C_R   0.285821 0.257583 0.041533 0.129557
C24   C     C_R   0.727386 0.721466 0.947640 0.130736
C25   C     C_R   0.250274 0.711542 0.939100 -0.190728
C26   C     C_R   0.765289 0.313202 0.046839 -0.184001
C27   C     C_R   0.764524 0.688827 0.048468 -0.188148
C28   C     C_R   0.248851 0.290054 0.940643 -0.187481
C29   C     C_R   0.750276 0.211545 0.939097 -0.190730
C30   C     C_R   0.265288 0.813200 0.046839 -0.184004
C31   C     C_R   0.264523 0.188829 0.048468 -0.188149
C32   C     C_R   0.748852 0.790053 0.940642 -0.187481
C33   C     C_R   0.278695 0.693670 0.985999 -0.188683
C34   C     C_R   0.736779 0.331187 0.999630 -0.183701
C35   C     C_R   0.735665 0.670911 0.001907 -0.182780
C36   C     C_R   0.277619 0.307907 0.987037 -0.185673
C37   C     C_R   0.778697 0.193674 0.985996 -0.188683
C38   C     C_R   0.236778 0.831184 0.999630 -0.183702
C39   C     C_R   0.235665 0.170912 0.001907 -0.182779
C40   C     C_R   0.777621 0.807905 0.987035 -0.185673
C41   C     C_R   0.149636 0.837994 0.939185 -0.284341
C42   C     C_R   0.859813 0.177788 0.054236 -0.293763
C43   C     C_R   0.860209 0.822330 0.054134 -0.293079
C44   C     C_R   0.149006 0.162735 0.939849 -0.280054
C45   C     C_R   0.649637 0.337998 0.939184 -0.284348
C46   C     C_R   0.359812 0.677787 0.054236 -0.293761
C47   C     C_R   0.360207 0.322332 0.054134 -0.293078
C48   C     C_R   0.649006 0.662735 0.939849 -0.280052
C49   C     C_R   0.118349 0.852037 0.895214 -0.162820
C50   C     C_R   0.880585 0.145294 0.106850 -0.155140
C51   C     C_R   0.884141 0.849658 0.104901 -0.156708
C52   C     C_R   0.118104 0.148152 0.895294 -0.158605
C53   C     C_R   0.618350 0.352039 0.895213 -0.162815
C54   C     C_R   0.380584 0.645293 0.106850 -0.155139
C55   C     C_R   0.384141 0.349658 0.104901 -0.156710
C56   C     C_R   0.618104 0.648152 0.895295 -0.158605
C57   C     C_R   0.132685 0.821480 0.811382 0.454998
C58   C     C_R   0.855630 0.156738 0.198957 0.436731
C59   C     C_R   0.864456 0.830274 0.194791 0.417900
C60   C     C_R   0.132536 0.178647 0.811358 0.455089
C61   C     C_R   0.632686 0.321482 0.811381 0.455018
C62   C     C_R   0.355630 0.656738 0.198957 0.436728
C63   C     C_R   0.364457 0.330272 0.194790 0.417911
C64   C     C_R   0.632536 0.678647 0.811358 0.455086
C65   C     C_R   0.182801 0.787665 0.765880 -0.155476
C66   C     C_R   0.815876 0.209468 0.235569 -0.150678
C67   C     C_R   0.819449 0.785556 0.233797 -0.153404
C68   C     C_R   0.182444 0.212680 0.766257 -0.153758
C69   C     C_R   0.682802 0.287667 0.765879 -0.155480
C70   C     C_R   0.315875 0.709467 0.235569 -0.150676
C71   C     C_R   0.319448 0.285557 0.233797 -0.153418
C72   C     C_R   0.682444 0.712680 0.766257 -0.153757
C73   C     C_R   0.213955 0.774114 0.810367 -0.289269
C74   C     C_R   0.794509 0.241193 0.182775 -0.281346
C75   C     C_R   0.795516 0.758914 0.182375 -0.288034
C76   C     C_R   0.212992 0.226798 0.811555 -0.287835
C77   C     C_R   0.713957 0.274118 0.810366 -0.289270
C78   C     C_R   0.294509 0.741192 0.182776 -0.281352
C79   C     C_R   0.295514 0.258916 0.182375 -0.288035
C80   C     C_R   0.712993 0.726798 0.811555 -0.287836
C81   C     C_R   0.196912 0.797561 0.897926 0.078237
C82   C     C_R   0.814747 0.222635 0.092708 0.077966
C83   C     C_R   0.815092 0.778149 0.092729 0.081851
C84   C     C_R   0.195816 0.203730 0.899334 0.078005
C85   C     C_R   0.696914 0.297565 0.897924 0.078236
C86   C     C_R   0.314746 0.722634 0.092709 0.077967
C87   C     C_R   0.315091 0.278151 0.092730 0.081851
C88   C     C_R   0.695816 0.703730 0.899334 0.078005
C89   C     C_R   0.196769 0.631387 0.526031 0.784544
C90   C     C_R   0.804226 0.367593 0.468979 0.873952
C91   C     C_R   0.804090 0.631660 0.469219 0.840416
C92   C     C_R   0.195809 0.368086 0.529087 0.865419
C93   C     C_R   0.696770 0.131386 0.526029 0.784531
C94   C     C_R   0.304226 0.867593 0.468979 0.873952
C95   C     C_R   0.304090 0.131660 0.469219 0.840408
C96   C     C_R   0.695809 0.868086 0.529087 0.865420
C97   C     C_R   0.926888 0.902861 0.066431 0.804037
C98   C     C_R   0.073343 0.097174 0.933651 0.819577
C99   C     C_R   0.073423 0.902923 0.933663 0.812073
C100  C     C_R   0.925757 0.095563 0.067196 0.815767
C101  C     C_R   0.426888 0.402861 0.066430 0.804036
C102  C     C_R   0.573343 0.597175 0.933651 0.819572
C103  C     C_R   0.573423 0.402923 0.933663 0.812078
C104  C     C_R   0.425757 0.595563 0.067196 0.815758
C105  C     C_R   0.051580 0.499842 0.492274 -0.122779
C106  C     C_R   0.963059 0.500127 0.453411 -0.113615
C107  C     C_R   0.551582 0.999839 0.492267 -0.122789
C108  C     C_R   0.463060 0.000124 0.453406 -0.113623
C109  C     C_R   0.036692 0.563692 0.463210 -0.085817
C110  C     C_R   0.985195 0.435882 0.464317 -0.030041
C111  C     C_R   0.988648 0.565566 0.452251 -0.082516
C112  C     C_R   0.024115 0.436695 0.496418 -0.034308
C113  C     C_R   0.536696 0.063686 0.463197 -0.085810
C114  C     C_R   0.485195 0.935879 0.464315 -0.030027
C115  C     C_R   0.488651 0.065562 0.452243 -0.082518
C116  C     C_R   0.524115 0.936693 0.496415 -0.034309
C117  C     C_R   0.112126 0.434612 0.538307 -0.107720
C118  C     C_R   0.890471 0.562973 0.438828 -0.135173
C119  C     C_R   0.891521 0.432614 0.440223 -0.109022
C120  C     C_R   0.118643 0.564543 0.520216 -0.148672
C121  C     C_R   0.612127 0.934612 0.538305 -0.107716
C122  C     C_R   0.390473 0.062973 0.438825 -0.135173
C123  C     C_R   0.391522 0.932614 0.440220 -0.109017
C124  C     C_R   0.618645 0.064543 0.520207 -0.148683
C125  C     C_R   0.162008 0.434290 0.544404 -0.103197
C126  C     C_R   0.837634 0.564136 0.446459 -0.182568
C127  C     C_R   0.838124 0.433117 0.447369 -0.112499
C128  C     C_R   0.164136 0.565058 0.538401 -0.198299
C129  C     C_R   0.662008 0.934291 0.544403 -0.103195
C130  C     C_R   0.337635 0.064136 0.446456 -0.182552
C131  C     C_R   0.338125 0.933116 0.447367 -0.112499
C132  C     C_R   0.664136 0.065059 0.538396 -0.198309
C133  C     C_R   0.183212 0.499503 0.555067 0.305982
C134  C     C_R   0.814271 0.498581 0.442423 0.306754
C135  C     C_R   0.683211 0.999503 0.555066 0.305984
C136  C     C_R   0.314271 0.998581 0.442420 0.306756
C137  C     C_R   0.094837 0.499292 0.515689 -0.087561
C138  C     C_R   0.914530 0.498479 0.445287 -0.083890
C139  C     C_R   0.594839 0.999291 0.515683 -0.087557
C140  C     C_R   0.414531 0.998478 0.445283 -0.083895
C141  C     C_R   0.576715 0.874831 0.559981 0.381424
C142  C     C_R   0.422553 0.124190 0.417126 0.441064
C143  C     C_R   0.425174 0.870433 0.420143 0.379814
C144  C     C_R   0.595372 0.127328 0.504976 0.461415
C145  C     C_R   0.076715 0.374831 0.559981 0.381428
C146  C     C_R   0.922552 0.624189 0.417126 0.441070
C147  C     C_R   0.925174 0.370434 0.420144 0.379814
C148  C     C_R   0.095365 0.627330 0.505000 0.461426
Cu1   Cu    Cu3+1 0.209920 0.785290 0.495070 1.076392
Cu2   Cu    Cu3+1 0.790080 0.214710 0.504930 0.950696
Cu3   Cu    Cu3+1 0.790080 0.785290 0.504930 1.004923
Cu4   Cu    Cu3+1 0.209920 0.214710 0.495070 0.958946
Cu5   Cu    Cu3+1 0.709920 0.285290 0.495070 1.076391
Cu6   Cu    Cu3+1 0.290080 0.714710 0.504930 0.950696
Cu7   Cu    Cu3+1 0.290080 0.285290 0.504930 1.004928
Cu8   Cu    Cu3+1 0.709920 0.714710 0.495070 0.958948
Cu9   Cu    Cu3+1 0.495240 0.500000 0.924150 0.984314
Cu10  Cu    Cu3+1 0.504760 0.500000 0.075850 0.958104
Cu11  Cu    Cu3+1 0.995240 0.000000 0.924150 0.984308
Cu12  Cu    Cu3+1 0.004760 1.000000 0.075850 0.958102
H1    H     H_    0.221239 0.884937 0.004982 0.130650
H2    H     H_    0.793438 0.139530 0.981403 0.133600
H3    H     H_    0.792405 0.861824 0.981820 0.132236
H4    H     H_    0.220286 0.117287 0.007704 0.129647
H5    H     H_    0.721240 0.384940 0.004982 0.130649
H6    H     H_    0.293436 0.639526 0.981406 0.133600
H7    H     H_    0.292403 0.361827 0.981822 0.132236
H8    H     H_    0.720286 0.617286 0.007705 0.129647
H9    H     H_    0.243917 0.670903 0.899385 0.132514
H10   H     H_    0.771008 0.353247 0.087861 0.132358
H11   H     H_    0.770561 0.648765 0.089338 0.129440
H12   H     H_    0.242378 0.330539 0.900681 0.133772
H13   H     H_    0.743920 0.170907 0.899381 0.132514
H14   H     H_    0.271008 0.853245 0.087861 0.132359
H15   H     H_    0.270561 0.148767 0.089338 0.129441
H16   H     H_    0.742380 0.830537 0.900680 0.133771
H17   H     H_    0.137309 0.858668 0.005583 0.170039
H18   H     H_    0.877500 0.166327 0.983605 0.169284
H19   H     H_    0.875650 0.837300 0.984860 0.167341
H20   H     H_    0.136653 0.142171 0.006251 0.169873
H21   H     H_    0.637311 0.358672 0.005582 0.170040
H22   H     H_    0.377498 0.666326 0.983606 0.169284
H23   H     H_    0.375648 0.337303 0.984861 0.167344
H24   H     H_    0.636654 0.642171 0.006251 0.169873
H25   H     H_    0.252357 0.746908 0.776211 0.171435
H26   H     H_    0.760548 0.277427 0.212633 0.173343
H27   H     H_    0.759825 0.726267 0.213294 0.168360
H28   H     H_    0.251080 0.254191 0.777806 0.169390
H29   H     H_    0.752359 0.246912 0.776209 0.171436
H30   H     H_    0.260547 0.777426 0.212633 0.173340
H31   H     H_    0.259823 0.226270 0.213295 0.168362
H32   H     H_    0.751081 0.754190 0.777805 0.169389
O1    O     O_R   0.255040 0.869590 0.478480 -0.522520
O2    O     O_R   0.744960 0.130410 0.521520 -0.573921
O3    O     O_R   0.744960 0.869590 0.521520 -0.526080
O4    O     O_R   0.255040 0.130410 0.478480 -0.566943
O5    O     O_R   0.755040 0.369590 0.478480 -0.522519
O6    O     O_R   0.244960 0.630410 0.521520 -0.573924
O7    O     O_R   0.244960 0.369590 0.521520 -0.526080
O8    O     O_R   0.755040 0.630410 0.478480 -0.566943
O9    O     O_R   0.182050 0.796550 0.624440 -0.512834
O10   O     O_R   0.817950 0.203450 0.375560 -0.550329
O11   O     O_R   0.817950 0.796550 0.375560 -0.532400
O12   O     O_R   0.182050 0.203450 0.624440 -0.541290
O13   O     O_R   0.682050 0.296550 0.624440 -0.512842
O14   O     O_R   0.317950 0.703450 0.375560 -0.550328
O15   O     O_R   0.317950 0.296550 0.375560 -0.532393
O16   O     O_R   0.682050 0.703450 0.624440 -0.541289
O17   O     O_R   0.250530 0.763330 0.367210 -0.601856
O18   O     O_R   0.749470 0.236670 0.632790 -0.619247
O19   O     O_R   0.749470 0.763330 0.632790 -0.610505
O20   O     O_R   0.250530 0.236670 0.367210 -0.618145
O21   O     O_R   0.750530 0.263330 0.367210 -0.601850
O22   O     O_R   0.249470 0.736670 0.632790 -0.619249
O23   O     O_R   0.249470 0.263330 0.632790 -0.610503
O24   O     O_R   0.750530 0.736670 0.367210 -0.618146
O25   O     O_R   0.177260 0.690030 0.513710 -0.525904
O26   O     O_R   0.822740 0.309970 0.486290 -0.587760
O27   O     O_R   0.822740 0.690030 0.486290 -0.554916
O28   O     O_R   0.177260 0.309970 0.513710 -0.584759
O29   O     O_R   0.677260 0.190030 0.513710 -0.525895
O30   O     O_R   0.322740 0.809970 0.486290 -0.587760
O31   O     O_R   0.322740 0.190030 0.486290 -0.554904
O32   O     O_R   0.677260 0.809970 0.513710 -0.584758
O33   O     O_R   0.051640 0.926880 0.885090 -0.526039
O34   O     O_R   0.948360 0.073120 0.114910 -0.528540
O35   O     O_R   0.948360 0.926880 0.114910 -0.550596
O36   O     O_R   0.051640 0.073120 0.885090 -0.527014
O37   O     O_R   0.551640 0.426880 0.885090 -0.526034
O38   O     O_R   0.448360 0.573120 0.114910 -0.528543
O39   O     O_R   0.448360 0.426880 0.114910 -0.550596
O40   O     O_R   0.551640 0.573120 0.885090 -0.527015
O41   O     O_R   0.940620 0.926560 0.986760 -0.606140
O42   O     O_R   0.059380 0.073440 0.013240 -0.605006
O43   O     O_R   0.059380 0.926560 0.013240 -0.612943
O44   O     O_R   0.940620 0.073440 0.986760 -0.607864
O45   O     O_R   0.440620 0.426560 0.986760 -0.606137
O46   O     O_R   0.559380 0.573440 0.013240 -0.605005
O47   O     O_R   0.559380 0.426560 0.013240 -0.612946
O48   O     O_R   0.440620 0.573440 0.986760 -0.607864
O49   O     O_3   0.222892 0.497629 0.582252 -0.701783
H33   H     H_    0.214627 0.535634 0.627492 0.323247
O50   O     O_3   0.768161 0.497304 0.431873 -0.687961
H34   H     H_    0.773851 0.530311 0.382433 0.323437
O51   O     O_3   0.722890 0.997630 0.582253 -0.701782
H35   H     H_    0.714624 0.035635 0.627493 0.323245
O52   O     O_3   0.268161 0.997304 0.431872 -0.687962
H36   H     H_    0.273851 0.030312 0.382432 0.323438
O53   O     O_3   0.579740 0.821836 0.615601 -0.600605
C149  C     C_3   0.573042 0.752520 0.588577 -0.135804
H37   H     H_    0.584942 0.748270 0.516077 0.147076
H38   H     H_    0.531131 0.734204 0.628962 0.173067
H39   H     H_    0.598762 0.714671 0.602482 0.203247
O54   O     O_3   0.416942 0.177234 0.365168 -0.552717
C150  C     C_3   0.438397 0.152232 0.276340 -0.398223
H40   H     H_    0.430761 0.094733 0.270122 0.160057
H41   H     H_    0.482367 0.162356 0.241275 0.178370
H42   H     H_    0.418932 0.181565 0.241687 0.171442
O55   O     O_3   0.417865 0.815784 0.370510 -0.589337
C151  C     C_3   0.427765 0.747001 0.394979 -0.105408
H43   H     H_    0.419331 0.743346 0.466070 0.146261
H44   H     H_    0.469295 0.729228 0.349573 0.174750
H45   H     H_    0.401321 0.708180 0.385439 0.194295
O56   O     O_3   0.582416 0.186331 0.560265 -0.518661
C152  C     C_3   0.542958 0.166962 0.646097 -0.310618
H46   H     H_    0.562046 0.140131 0.683334 0.155255
H47   H     H_    0.522428 0.215999 0.682162 0.176739
H48   H     H_    0.511087 0.132176 0.644765 0.130282
O57   O     O_3   0.079740 0.321836 0.615601 -0.600603
C153  C     C_3   0.073042 0.252520 0.588577 -0.135794
H49   H     H_    0.084943 0.248269 0.516076 0.147075
H50   H     H_    0.031130 0.234204 0.628962 0.173068
H51   H     H_    0.098762 0.214671 0.602483 0.203246
O58   O     O_3   0.916944 0.677227 0.365156 -0.552726
C154  C     C_3   0.938404 0.652212 0.276334 -0.398202
H52   H     H_    0.930713 0.594730 0.270132 0.160075
H53   H     H_    0.982385 0.662260 0.241300 0.178349
H54   H     H_    0.918986 0.681588 0.241640 0.171434
O59   O     O_3   0.917866 0.315785 0.370512 -0.589335
C155  C     C_3   0.927765 0.247003 0.394983 -0.105410
H55   H     H_    0.919332 0.243349 0.466074 0.146259
H56   H     H_    0.969295 0.229228 0.349576 0.174751
H57   H     H_    0.901321 0.208181 0.385445 0.194294
O60   O     O_3   0.082407 0.686323 0.560307 -0.518662
C156  C     C_3   0.042941 0.666941 0.646129 -0.310667
H58   H     H_    0.062019 0.640092 0.683368 0.155256
H59   H     H_    0.022410 0.715974 0.682207 0.176736
H60   H     H_    0.011070 0.632165 0.644775 0.130292
O61   O     O_3   0.492149 0.826456 0.575854 -0.561435
C157  C     C_3   0.451560 0.849995 0.658854 -0.354185
H61   H     H_    0.431200 0.898963 0.651649 0.161253
H62   H     H_    0.467856 0.859367 0.707079 0.175685
H63   H     H_    0.420692 0.807745 0.686833 0.189567
O62   O     O_3   0.479683 0.196357 0.451678 -0.503328
C158  C     C_3   0.446342 0.218083 0.540026 -0.238089
H64   H     H_    0.448198 0.179750 0.588967 0.123888
H65   H     H_    0.404006 0.225369 0.551931 0.152569
H66   H     H_    0.460738 0.270267 0.551266 0.194800
O63   O     O_3   0.508600 0.816782 0.406299 -0.566333
C159  C     C_3   0.550850 0.831703 0.321163 -0.357916
H67   H     H_    0.575247 0.877663 0.323217 0.163067
H68   H     H_    0.535449 0.841659 0.271784 0.176407
H69   H     H_    0.577929 0.784553 0.298047 0.190337
O64   O     O_3   0.575601 0.179726 0.395708 -0.504016
C160  C     C_3   0.601714 0.155110 0.306990 -0.272918
H70   H     H_    0.575856 0.117892 0.292463 0.149252
H71   H     H_    0.641049 0.129367 0.291589 0.126919
H72   H     H_    0.610017 0.201541 0.261956 0.193066
O65   O     O_3   0.992151 0.326455 0.575852 -0.561436
C161  C     C_3   0.951558 0.349995 0.658846 -0.354186
H73   H     H_    0.931185 0.398945 0.651630 0.161263
H74   H     H_    0.967851 0.359395 0.707068 0.175669
H75   H     H_    0.920700 0.307734 0.686838 0.189565
O66   O     O_3   0.979677 0.696361 0.451685 -0.503331
C162  C     C_3   0.946332 0.718086 0.540033 -0.238081
H76   H     H_    0.948192 0.679755 0.588974 0.123894
H77   H     H_    0.903996 0.725364 0.551937 0.152561
H78   H     H_    0.960723 0.770274 0.551273 0.194796
O67   O     O_3   0.008602 0.316786 0.406296 -0.566331
C163  C     C_3   0.050851 0.331708 0.321160 -0.357912
H79   H     H_    0.075246 0.377670 0.323214 0.163066
H80   H     H_    0.035448 0.341662 0.271782 0.176408
H81   H     H_    0.077931 0.284560 0.298043 0.190337
O68   O     O_3   0.075593 0.679739 0.395740 -0.504019
C164  C     C_3   0.101712 0.655130 0.307018 -0.272891
H82   H     H_    0.075858 0.617911 0.292482 0.149244
H83   H     H_    0.141048 0.629391 0.291619 0.126913
H84   H     H_    0.110014 0.701565 0.261990 0.193064
O69   O     O_3   0.099136 0.828148 0.771696 -0.534006
C165  C     C_3   0.058484 0.776284 0.808547 -0.267182
H85   H     H_    0.075376 0.722176 0.784883 0.135424
H86   H     H_    0.037597 0.777489 0.882668 0.121031
H87   H     H_    0.027454 0.787971 0.786639 0.181234
O70   O     O_3   0.869694 0.115686 0.253577 -0.564005
C166  C     C_3   0.836379 0.054938 0.280512 -0.186805
H88   H     H_    0.841975 0.021419 0.222496 0.140089
H89   H     H_    0.847688 0.021946 0.324022 0.213230
H90   H     H_    0.793236 0.069995 0.319769 0.121847
O71   O     O_3   0.882892 0.865117 0.248222 -0.571441
C167  C     C_3   0.928677 0.829855 0.245243 -0.184543
H91   H     H_    0.951313 0.796778 0.184401 0.101610
H92   H     H_    0.916949 0.797612 0.305849 0.233242
H93   H     H_    0.956862 0.870585 0.246889 0.179834
O72   O     O_3   0.098923 0.172574 0.771773 -0.554723
C168  C     C_3   0.060747 0.228483 0.803937 -0.269005
H94   H     H_    0.037665 0.228120 0.877890 0.131261
H95   H     H_    0.080432 0.281060 0.780484 0.175515
H96   H     H_    0.031235 0.221148 0.777719 0.187109
O73   O     O_3   0.599135 0.328143 0.771701 -0.534014
C169  C     C_3   0.558493 0.276268 0.808546 -0.267258
H97   H     H_    0.575396 0.222167 0.784889 0.135415
H98   H     H_    0.537601 0.277477 0.882663 0.121062
H99   H     H_    0.527465 0.287936 0.786630 0.181227
O74   O     O_3   0.369694 0.615686 0.253578 -0.564006
C170  C     C_3   0.336380 0.554937 0.280512 -0.186794
H100  H     H_    0.341989 0.521409 0.222496 0.140116
H101  H     H_    0.347679 0.521956 0.324043 0.213220
H102  H     H_    0.293234 0.569995 0.319748 0.121819
O75   O     O_3   0.382896 0.365110 0.248219 -0.571432
C171  C     C_3   0.428681 0.329842 0.245235 -0.184561
H103  H     H_    0.451304 0.296745 0.184407 0.101590
H104  H     H_    0.416953 0.297617 0.305855 0.233257
H105  H     H_    0.456876 0.370568 0.246852 0.179839
O76   O     O_3   0.598924 0.672574 0.771773 -0.554722
C172  C     C_3   0.560745 0.728481 0.803939 -0.268994
H106  H     H_    0.537661 0.728112 0.877892 0.131263
H107  H     H_    0.580430 0.781060 0.780492 0.175506
H108  H     H_    0.531236 0.721147 0.777716 0.187105

loop_
_geom_bond_atom_site_label_1
_geom_bond_atom_site_label_2
_ccdc_geom_bond_type
C51   C97   S    
C150  H41   S    
Cu9   Cu10  S    
C157  H63   S    
C141  O53   S    
Cu11  O44   S    
C33   H6    S    
Cu5   O21   S    
C89   O6    A    
O60   C156  S    
C13   C112  A    
Cu7   O15   S    
C149  H38   S    
C62   C70   A    
O58   C154  S    
C107  C113  A    
C57   O69   S    
C7    C68   S    
O68   C164  S    
Cu8   O24   S    
C125  C133  A    
C92   O7    A    
C76   H28   S    
C149  H39   S    
C79   H31   S    
O51   H35   S    
C102  O40   A    
C80   H32   S    
C44   H20   S    
C73   C81   A    
C16   C109  A    
C161  H74   S    
C102  O46   A    
C165  H85   S    
C58   O70   S    
C163  H81   S    
C167  H91   S    
C47   H23   S    
C57   C65   A    
C166  H89   S    
C20   C28   A    
C27   C35   A    
O66   C162  S    
C1    O17   A    
C136  O52   S    
C23   C31   A    
Cu6   O30   S    
C24   C32   A    
C170  H100  S    
C12   O64   S    
C5    O21   A    
Cu1   O25   S    
C168  H96   S    
C79   C87   A    
Cu10  O46   S    
C105  C112  A    
C63   C71   A    
C120  C148  A    
C153  H50   S    
C100  O44   A    
C32   C40   A    
C159  H67   S    
C104  O48   A    
C26   C34   A    
C9    C116  A    
Cu1   O17   S    
C8    O24   A    
Cu10  O39   S    
C11   O63   S    
C16   O68   S    
C50   C100  S    
C1    C70   S    
Cu12  O35   S    
C60   C68   A    
C17   C25   A    
C3    C72   S    
C25   H9    S    
C80   C88   A    
C172  H106  S    
C42   H18   S    
C52   C98   S    
C18   C82   S    
C13   O65   S    
C169  H97   S    
C14   O66   S    
C166  H88   S    
C126  C134  A    
C156  H59   S    
C23   C36   A    
O75   C171  S    
C39   H4    S    
C118  C138  A    
C11   C143  A    
C30   H14   S    
C4    C71   S    
C47   C87   A    
C37   H2    S    
C113  C115  A    
C95   O4    A    
C43   C83   A    
C124  C139  A    
Cu7   O31   S    
C93   O2    A    
C167  H93   S    
C13   C145  A    
C43   C51   A    
C92   C125  S    
C71   C79   A    
Cu8   O16   S    
Cu9   O37   S    
C158  H65   S    
C30   C38   A    
O53   C149  S    
Cu2   O18   S    
C108  C115  A    
C41   H17   S    
C93   C132  S    
C109  C111  A    
Cu6   O6    S    
Cu3   O3    S    
C66   C74   A    
C49   C57   A    
O76   C172  S    
C124  C132  A    
O49   H33   S    
C164  H83   S    
C52   C60   A    
Cu1   O1    S    
C129  C135  A    
C53   C61   A    
C28   H12   S    
C96   O3    A    
Cu2   O2    S    
O56   C152  S    
C160  H71   S    
C55   C63   A    
C95   C130  S    
C56   C64   A    
C2    C69   S    
C159  H69   S    
C44   C52   A    
C77   C85   A    
C19   C83   S    
C171  H103  S    
O61   C157  S    
C106  C111  A    
C6    C65   S    
C3    O19   A    
Cu4   O4    S    
C101  O45   A    
C154  H54   S    
C143  O55   S    
C155  H55   S    
C6    O9    A    
C131  C136  A    
C172  H108  S    
O70   C166  S    
Cu2   Cu5   S    
C95   O31   A    
C163  H80   S    
C49   C99   S    
Cu9   O48   S    
C98   O42   A    
O59   C155  S    
C35   H8    S    
Cu11  O36   S    
C100  O34   A    
C1    O14   A    
C152  H47   S    
C26   H10   S    
C42   C50   A    
Cu5   O13   S    
C91   O8    A    
C63   O75   S    
C170  H101  S    
C20   C84   S    
C67   C75   A    
Cu7   O7    S    
C105  C109  A    
C162  H78   S    
C22   C30   A    
C62   O74   S    
C119  C138  A    
C5    C66   S    
C114  C116  A    
C68   C76   A    
C142  O54   S    
Cu8   O32   S    
C77   H29   S    
C46   H22   S    
C56   C102  S    
C72   C80   A    
C146  O58   S    
Cu12  O34   S    
C17   C38   A    
C107  C139  A    
C110  C112  A    
C107  C116  A    
C90   O26   A    
C153  H51   S    
C19   C40   A    
C105  C137  A    
C121  C139  A    
O72   C168  S    
C8    C67   S    
O74   C170  S    
C94   O30   A    
C96   C129  S    
Cu12  O42   S    
C117  C125  A    
C89   C128  S    
C171  H105  S    
C150  H40   S    
C25   C33   A    
C119  C127  A    
C103  O37   A    
C27   H11   S    
C135  O51   S    
C154  H52   S    
C18   C26   A    
C155  H57   S    
Cu6   O22   S    
C76   C84   A    
C45   H21   S    
C90   O5    A    
C43   H19   S    
O73   C169  S    
C165  H86   S    
C54   C104  S    
C167  H92   S    
O62   C158  S    
C119  C147  A    
O50   H34   S    
C117  C145  A    
C157  H61   S    
C10   C142  A    
C108  C114  A    
C69   C77   A    
C38   H1    S    
C165  H87   S    
C42   C82   A    
C90   C127  S    
C48   C88   A    
C168  H95   S    
Cu10  O47   S    
C10   O62   S    
Cu4   O20   S    
C150  H42   S    
C162  H76   S    
O57   C153  S    
Cu11  O41   S    
C15   C110  A    
C74   C82   A    
C151  H45   S    
C159  H68   S    
C2    O18   A    
C21   C85   S    
C50   C58   A    
C121  C141  A    
Cu3   O11   S    
C158  H64   S    
C20   C39   A    
C15   O67   S    
C151  H43   S    
C21   C34   A    
C54   C62   A    
C169  H99   S    
C149  H37   S    
C45   C53   A    
C36   H7    S    
O63   C159  S    
Cu5   O29   S    
C156  H58   S    
C73   H25   S    
Cu11  Cu12  S    
C6    O22   A    
Cu4   Cu7   S    
C41   C81   A    
C46   C54   A    
C60   O72   S    
Cu3   Cu8   S    
C169  H98   S    
C24   C88   S    
C99   O33   A    
Cu9   O45   S    
C97   O35   A    
Cu2   O10   S    
C144  O56   S    
C4    O15   A    
C48   H24   S    
C55   C101  S    
C161  H73   S    
C123  C131  A    
C8    O11   A    
C75   H27   S    
C121  C129  A    
C44   C84   A    
C166  H90   S    
C120  C128  A    
C94   C131  S    
O54   C150  S    
C15   C147  A    
C75   C83   A    
C21   C29   A    
C53   C103  S    
C17   C81   S    
C22   C86   S    
C164  H82   S    
C122  C140  A    
O67   C163  S    
C28   C36   A    
C103  O47   A    
C160  H70   S    
C29   C37   A    
C153  H49   S    
Cu4   O12   S    
C120  C137  A    
C7    O23   A    
C74   H26   S    
C161  H75   S    
C91   C126  S    
C70   C78   A    
C94   O1    A    
O69   C165  S    
C78   H30   S    
Cu1   Cu6   S    
Cu10  O38   S    
C171  H104  S    
C31   H15   S    
O65   C161  S    
C32   H16   S    
C7    O12   A    
Cu3   O19   S    
C3    O16   A    
C127  C134  A    
C154  H53   S    
C18   C37   A    
C155  H56   S    
C156  H60   S    
C172  H107  S    
C106  C138  A    
Cu5   O5    S    
Cu4   O28   S    
C65   C73   A    
C145  O57   S    
C92   O28   A    
C11   C114  A    
C133  O49   S    
C104  O38   A    
C41   C49   A    
O71   C167  S    
C96   O32   A    
Cu12  O43   S    
C19   C27   A    
C152  H46   S    
C157  H62   S    
C59   C67   A    
C78   C86   A    
Cu11  O33   S    
C23   C87   S    
Cu8   O8    S    
C58   C66   A    
C158  H66   S    
C98   O36   A    
C14   C111  A    
C162  H77   S    
C24   C35   A    
C118  C146  A    
C40   H3    S    
C151  H44   S    
C5    O10   A    
C108  C140  A    
C9    C141  A    
C117  C137  A    
C123  C140  A    
C12   C144  A    
C164  H84   S    
C45   C85   A    
C99   O43   A    
C160  H72   S    
C97   O41   A    
Cu2   O26   S    
C101  O39   A    
C2    O13   A    
Cu6   O14   S    
O64   C160  S    
C59   O71   S    
C61   O73   S    
C51   C59   A    
C122  C142  A    
O55   C151  S    
C34   H5    S    
Cu1   O9    S    
C47   C55   A    
C12   C113  A    
C106  C110  A    
C61   C69   A    
C48   C56   A    
C22   C33   A    
C148  O60   S    
C130  C136  A    
C29   H13   S    
C147  O59   S    
O52   H36   S    
C14   C146  A    
C4    O20   A    
C16   C148  A    
C163  H79   S    
C128  C133  A    
C9    O61   S    
C132  C135  A    
Cu7   O23   S    
C31   C39   A    
C64   O76   S    
Cu3   O27   S    
C64   C72   A    
C91   O27   A    
C152  H48   S    
C134  O50   S    
C89   O25   A    
C170  H102  S    
C123  C143  A    
C124  C144  A    
C93   O29   A    
C118  C126  A    
C168  H94   S    
C122  C130  A    
C10   C115  A    
Cu9   O40   S    
C46   C86   A    
