data_mof_unit_6879.cif
_audit_creation_date              2012-12-10T19:15:23-0500
_audit_creation_method            fapswitch 2.2
_symmetry_space_group_name_H-M    P1
_symmetry_Int_Tables_number       1
_space_group_crystal_system       triclinic
_cell_length_a                    10.670988
_cell_length_b                    9.708253
_cell_length_c                    23.449735
_cell_angle_alpha                 90.067766
_cell_angle_beta                  90.083227
_cell_angle_gamma                 89.775805
_cell_volume                      2429.29117552

loop_
_atom_site_label
_atom_site_type_symbol
_atom_type_description
_atom_site_fract_x
_atom_site_fract_y
_atom_site_fract_z
_atom_type_partial_charge
C1    C     C_R   0.258167 0.500168 0.504261 0.925830
C2    C     C_R   0.292478 0.531164 0.965771 -0.223323
C3    C     C_R   0.286194 0.530931 0.025004 0.124767
C4    C     C_R   0.396967 0.515608 0.057566 -0.007357
C5    C     C_R   0.513635 0.497607 0.029480 -0.102534
C6    C     C_R   0.624740 0.478380 0.061374 -0.036685
C7    C     C_R   0.740952 0.464543 0.032928 0.067499
C8    C     C_R   0.746124 0.467195 0.972834 0.069788
C9    C     C_R   0.395503 0.518156 0.117433 0.517891
C10   C     C_R   0.615772 0.474859 0.121234 0.530612
C11   C     C_R   0.564690 0.602238 0.237743 -0.135402
C12   C     C_R   0.499679 0.500018 0.389340 0.916417
C13   C     C_R   0.566744 0.602703 0.297232 0.040551
C14   C     C_R   0.499440 0.500469 0.327095 -0.072362
C15   C     C_R   0.431267 0.399482 0.296950 0.033686
C16   C     C_R   0.432879 0.399513 0.237579 -0.148341
C17   C     C_R   0.499434 0.500244 0.208176 0.259088
C18   C     C_R   0.526254 0.375819 0.761573 -0.108394
C19   C     C_R   0.518151 0.375276 0.702506 -0.222491
C20   C     C_R   0.509139 0.500295 0.672700 -0.037002
C21   C     C_R   0.509976 0.625673 0.702599 -0.222646
C22   C     C_R   0.517842 0.625774 0.761653 -0.105257
C23   C     C_R   0.741725 0.499682 0.504615 0.839285
C24   C     C_R   0.525414 0.500941 0.790987 0.327121
C25   C     C_3   0.071279 0.637348 0.535664 -0.047033
C26   C     C_3   0.073508 0.367845 0.540008 -0.048557
C27   C     C_3   0.926506 0.631988 0.540385 -0.094724
C28   C     C_3   0.927660 0.363170 0.538412 -0.100856
C29   C     C_3   0.070940 0.493945 0.446347 -0.539251
C30   C     C_3   0.121653 0.500114 0.508308 0.092118
C31   C     C_3   0.877759 0.498692 0.509263 0.104806
C32   C     C_3   0.927375 0.500634 0.446907 -0.496303
C33   C     C_3   0.407224 0.081235 0.457545 -0.248259
C34   C     C_3   0.407335 0.919123 0.457472 -0.253294
C35   C     C_3   0.623780 0.080797 0.481734 -0.306383
C36   C     C_3   0.623824 0.918124 0.481816 -0.302352
C37   C     C_3   0.472207 0.082513 0.556593 0.053410
C38   C     C_3   0.471935 0.918324 0.556573 0.048841
C39   C     C_R   0.501664 0.500073 0.610668 0.878142
C40   C     C_R   0.634127 0.484354 0.880590 0.524809
C41   C     C_R   0.412248 0.516649 0.878534 0.507323
C42   C     C_R   0.407151 0.515993 0.937844 -0.013114
C43   C     C_R   0.518729 0.498840 0.969396 -0.062475
C44   C     C_R   0.634603 0.483064 0.940779 -0.038322
H1    H     H_    0.206160 0.542748 0.941777 0.188616
H2    H     H_    0.518559 0.277364 0.680337 0.150224
H3    H     H_    0.516481 0.722406 0.784768 0.131916
H4    H     H_    0.891004 0.723357 0.516460 0.140464
H5    H     H_    0.901177 0.274888 0.510343 0.130213
H6    H     H_    0.895825 0.596221 0.424806 0.181007
H7    H     H_    0.889476 0.411941 0.422199 0.187594
H8    H     H_    0.429727 0.118075 0.413932 0.168528
H9    H     H_    0.429767 0.881687 0.413790 0.168363
H10   H     H_    0.311668 0.121071 0.466338 0.145122
H11   H     H_    0.311821 0.879998 0.466261 0.143920
H12   H     H_    0.649641 0.119196 0.438656 0.168848
H13   H     H_    0.650028 0.878984 0.438823 0.176255
H14   H     H_    0.549940 0.114789 0.585455 0.102274
H15   H     H_    0.549180 0.885026 0.585604 0.105971
H16   H     H_    0.697891 0.118253 0.511253 0.144028
H17   H     H_    0.697735 0.880615 0.511508 0.146350
H18   H     H_    0.615737 0.679558 0.214052 0.145375
H19   H     H_    0.382242 0.321099 0.214173 0.152261
H20   H     H_    0.531233 0.279357 0.784626 0.132031
N1    N     N_R   0.524238 0.500957 0.851571 -0.367048
N2    N     N_R   0.503447 0.497330 0.147369 -0.360138
N3    N     N_3   0.499750 0.138610 0.498760 -0.036119
N4    N     N_3   0.499750 0.861390 0.498760 -0.035048
O1    O     O_R   0.314910 0.616040 0.499990 -0.612259
O2    O     O_R   0.314910 0.383960 0.499990 -0.616238
O3    O     O_R   0.500080 0.616070 0.416130 -0.609372
O4    O     O_R   0.500080 0.383930 0.416130 -0.605851
O5    O     O_R   0.685320 0.616040 0.499970 -0.644476
O6    O     O_R   0.685320 0.383960 0.499970 -0.645904
O7    O     O_R   0.500150 0.616010 0.583820 -0.611767
O8    O     O_R   0.500150 0.383990 0.583820 -0.613141
O9    O     O_2   0.741491 0.469382 0.850875 -0.523180
O10   O     O_2   0.306098 0.532204 0.847708 -0.553393
O11   O     O_2   0.288029 0.542909 0.145993 -0.527087
O12   O     O_2   0.717608 0.448083 0.153639 -0.527630
Zn1   Zn    Zn3+2 0.500150 0.654960 0.499970 0.931368
Zn2   Zn    Zn3+2 0.500150 0.345040 0.499970 0.928281
H21   H     H_    0.503952 0.723368 0.680525 0.151832
H22   H     H_    0.092707 0.721027 0.504563 0.129105
H23   H     H_    0.105941 0.277061 0.514648 0.124358
N5    N     N_3   0.135766 0.677519 0.588555 -0.434908
H24   H     H_    0.116526 0.612409 0.622387 0.209877
H25   H     H_    0.103565 0.775252 0.600536 0.185958
N6    N     N_3   0.128831 0.352333 0.597226 -0.440742
H26   H     H_    0.075994 0.402484 0.628247 0.214252
H27   H     H_    0.126005 0.248168 0.608355 0.174132
N7    N     N_3   0.880777 0.648299 0.599209 -0.474770
H28   H     H_    0.782888 0.648772 0.599700 0.193811
H29   H     H_    0.911259 0.568474 0.625385 0.228782
N8    N     N_3   0.872268 0.336409 0.594765 -0.488762
H30   H     H_    0.898917 0.237287 0.607480 0.176667
H31   H     H_    0.774755 0.333369 0.592169 0.199299
H32   H     H_    0.108059 0.580955 0.420532 0.187606
H33   H     H_    0.101992 0.397132 0.424973 0.190954
N9    N     N_3   0.165829 0.542111 0.051394 -0.377696
H34   H     H_    0.123238 0.633063 0.037226 0.179013
H35   H     H_    0.112321 0.458952 0.037177 0.164763
N10   N     N_3   0.358519 0.146062 0.580162 -0.392569
H36   H     H_    0.350099 0.119760 0.623194 0.149389
H37   H     H_    0.278307 0.113646 0.558740 0.158242
N11   N     N_3   0.357641 0.856909 0.579814 -0.387494
H38   H     H_    0.349507 0.882571 0.622957 0.150498
H39   H     H_    0.278175 0.892594 0.558570 0.167410
N12   N     N_3   0.854693 0.452732 0.065200 -0.371580
H40   H     H_    0.909739 0.538969 0.056867 0.181737
H41   H     H_    0.902151 0.362889 0.053306 0.182512
N13   N     N_3   0.864968 0.454517 0.944528 -0.373769
H42   H     H_    0.923560 0.534395 0.957828 0.172727
H43   H     H_    0.905901 0.360126 0.955341 0.182751
N14   N     N_3   0.639143 0.704226 0.327360 -0.448790
H44   H     H_    0.714809 0.653238 0.346434 0.176862
H45   H     H_    0.677154 0.775837 0.299024 0.180952
N15   N     N_3   0.357907 0.298909 0.326442 -0.461031
H46   H     H_    0.388498 0.201183 0.313684 0.179237
H47   H     H_    0.264611 0.310152 0.313515 0.189758

loop_
_geom_bond_atom_site_label_1
_geom_bond_atom_site_label_2
_ccdc_geom_bond_type
C27   H4    S    
C41   C42   A    
N8    H30   S    
C11   H18   S    
N13   H43   S    
C19   H2    S    
C7    C8    A    
C33   H8    S    
C17   N2    S    
C29   C30   S    
C29   H32   S    
C28   N8    S    
C18   C24   A    
N4    Zn1   S    
N7    H28   S    
C23   O5    A    
C29   C32   S    
C8    N13   S    
C5    C6    A    
N5    H25   S    
N11   H38   S    
N14   H44   S    
C33   H10   S    
C18   C19   A    
C9    O11   S    
C9    N2    A    
C25   N5    S    
N15   H46   S    
C3    N9    S    
C21   H21   S    
C16   C17   A    
N14   H45   S    
C25   H22   S    
C16   H19   S    
C39   O7    A    
N6    H27   S    
C37   H14   S    
C22   H3    S    
C12   O4    A    
C34   H11   S    
C21   C22   A    
O6    Zn2   S    
O5    Zn1   S    
N13   H42   S    
C10   N2    A    
C2    H1    S    
C15   C16   A    
C29   H33   S    
C27   C31   S    
C36   H13   S    
C34   N4    S    
C41   O10   S    
C37   N10   S    
C20   C39   S    
C10   O12   S    
N5    H24   S    
O7    Zn1   S    
C41   N1    A    
C1    O1    A    
C7    N12   S    
C35   H16   S    
C26   N6    S    
C35   C36   S    
C23   C31   S    
C38   N11   S    
C43   C44   A    
C32   H7    S    
C37   C38   S    
C28   H5    S    
C31   C32   S    
C35   N3    S    
N7    H29   S    
C33   C34   S    
C27   N7    S    
N10   H37   S    
C39   O8    A    
C32   H6    S    
C13   N14   S    
C24   N1    S    
C34   H9    S    
C12   O3    A    
C38   N4    S    
C26   C30   S    
C40   N1    A    
C22   C24   A    
C42   C43   A    
C23   O6    A    
O8    Zn2   S    
C3    C4    A    
C33   N3    S    
N9    H35   S    
C25   C30   S    
N8    H31   S    
C11   C17   A    
C35   H12   S    
C14   C15   A    
C28   C31   S    
C8    C44   A    
C12   C14   S    
C4    C5    A    
C6    C10   A    
C36   N4    S    
C6    C7    A    
C25   C27   S    
C26   C28   S    
C1    O2    A    
C15   N15   S    
C19   C20   A    
N12   H41   S    
C2    C3    A    
N6    H26   S    
N12   H40   S    
C11   C13   A    
C18   H20   S    
N11   H39   S    
C2    C42   A    
C26   H23   S    
C37   N3    S    
C1    C30   S    
C5    C43   A    
O2    Zn2   S    
N15   H47   S    
O1    Zn1   S    
C38   H15   S    
C40   C44   A    
C20   C21   A    
N3    Zn2   S    
N10   H36   S    
C40   O9    S    
N9    H34   S    
C4    C9    A    
C13   C14   A    
O4    Zn2   S    
C36   H17   S    
O3    Zn1   S    
