data_mof_unit_52365.cif
_audit_creation_date              2012-12-10T17:35:37-0500
_audit_creation_method            fapswitch 2.2
_symmetry_space_group_name_H-M    P1
_symmetry_Int_Tables_number       1
_space_group_crystal_system       triclinic
_cell_length_a                    10.720543
_cell_length_b                    12.35986
_cell_length_c                    13.22136
_cell_angle_alpha                 116.753398
_cell_angle_beta                  77.177798
_cell_angle_gamma                 101.583805
_cell_volume                      1515.06615464

loop_
_atom_site_label
_atom_site_type_symbol
_atom_type_description
_atom_site_fract_x
_atom_site_fract_y
_atom_site_fract_z
_atom_type_partial_charge
C1    C     C_R   0.511759 0.854846 0.286643 0.796482
C2    C     C_3   0.122299 0.999760 0.498740 0.104602
C3    C     C_3   0.043858 0.018799 0.617942 -0.395299
C4    C     C_3   0.069582 0.876503 0.406974 -0.400595
C5    C     C_R   0.324732 0.276628 0.020801 -0.170009
C6    C     C_R   0.453878 0.228031 0.834510 -0.047884
C7    C     C_R   0.600125 0.814404 0.085682 -0.151691
C8    C     C_R   0.627371 0.735242 0.971145 -0.142313
C9    C     C_R   0.581122 0.612236 0.933418 -0.174407
C10   C     C_R   0.501537 0.566148 0.009717 0.086686
C11   C     C_R   0.462054 0.650024 0.123784 0.076717
C12   C     C_R   0.739957 0.999646 0.499369 0.804153
C13   C     C_R   0.458555 0.439841 0.976223 0.079627
C14   C     C_R   0.368092 0.400939 0.052969 0.157628
C15   C     C_R   0.319332 0.486634 0.159777 -0.213836
C16   C     C_R   0.364012 0.609392 0.194095 -0.198296
C17   C     C_R   0.503253 0.350603 0.868721 -0.232153
C18   C     C_R   0.366777 0.190510 0.911656 -0.185780
C19   C     C_R   0.520588 0.772749 0.163671 -0.113386
C20   C     C_R   0.689858 0.339505 0.313691 -0.103495
C21   C     C_R   0.325805 0.760696 0.646025 -0.025464
C22   C     C_R   0.279498 0.660974 0.671521 -0.244389
C23   C     C_R   0.480853 0.145066 0.713349 0.795548
C24   C     C_R   0.335752 0.552402 0.610303 0.398089
C25   C     C_R   0.450267 0.547791 0.529955 -0.088731
C26   C     C_R   0.489968 0.651688 0.503976 0.240304
C27   C     C_R   0.524964 0.445083 0.471902 -0.033668
C28   C     C_R   0.623634 0.442800 0.379416 0.014975
C29   C     C_R   0.654271 0.543309 0.353048 -0.241990
C30   C     C_R   0.593143 0.646319 0.416906 -0.161698
C31   C     C_R   0.509235 0.345991 0.502917 -0.076362
C32   C     C_R   0.661046 0.240757 0.342376 0.519081
C33   C     C_R   0.260198 0.999946 0.499645 0.763752
C34   C     C_3   0.961123 0.102986 0.468910 -0.338587
C35   C     C_3   0.103598 0.103967 0.470383 -0.371848
C36   C     C_3   0.900243 0.020397 0.618164 -0.474703
C37   C     C_3   0.924145 0.874413 0.408362 0.243664
C38   C     C_3   0.878376 0.999163 0.498169 0.132232
Cu1   Cu    Cu3+1 0.529690 0.098270 0.475420 0.946314
Cu2   Cu    Cu3+1 0.470310 0.901730 0.524580 0.924756
H1    H     H_    0.929873 0.193115 0.532326 0.169851
H2    H     H_    0.083320 0.799558 0.423927 0.147194
H3    H     H_    0.841485 0.948338 0.642679 0.182466
H4    H     H_    0.053896 0.944233 0.639869 0.176475
H5    H     H_    0.327170 0.095773 0.886070 0.148720
H6    H     H_    0.246028 0.458705 0.217191 0.163570
H7    H     H_    0.255400 0.246506 0.078932 0.145160
H8    H     H_    0.575710 0.373780 0.808582 0.144238
H9    H     H_    0.644255 0.908001 0.113650 0.206223
H10   H     H_    0.607180 0.556533 0.843442 0.131714
H11   H     H_    0.688147 0.768741 0.911638 0.149933
H12   H     H_    0.948473 0.090635 0.382880 0.211161
H13   H     H_    0.317742 0.671904 0.275321 0.171899
H14   H     H_    0.728255 0.545233 0.283233 0.174622
H15   H     H_    0.446539 0.347140 0.579148 0.199028
H16   H     H_    0.277658 0.842292 0.691079 0.145005
H17   H     H_    0.194107 0.665567 0.734399 0.170455
H18   H     H_    0.629242 0.719539 0.393099 0.210486
H19   H     H_    0.159608 0.093401 0.385387 0.181800
H20   H     H_    0.139426 0.193709 0.535751 0.190047
H21   H     H_    0.869036 0.109649 0.683785 0.181331
H22   H     H_    0.081464 0.106314 0.685053 0.175143
H23   H     H_    0.869285 0.801286 0.433728 0.098517
H24   H     H_    0.124794 0.862526 0.320904 0.178861
N1    N     N_R   0.574690 0.246280 0.438200 -0.238341
N2    N     N_R   0.426100 0.754320 0.561190 -0.202916
O1    O     O_R   0.537340 0.972510 0.318130 -0.564651
O2    O     O_R   0.487200 0.806530 0.359650 -0.602058
O3    O     O_R   0.707380 0.082980 0.479220 -0.612752
O4    O     O_R   0.657240 0.917000 0.520740 -0.607479
O5    O     O_R   0.512800 0.193470 0.640350 -0.586194
O6    O     O_R   0.462660 0.027490 0.681870 -0.582986
O7    O     O_R   0.342760 0.083000 0.479260 -0.583044
O8    O     O_R   0.292620 0.917020 0.520780 -0.595495
O9    O     O_3   0.722253 0.139066 0.269990 -0.731471
H25   H     H_    0.732716 0.096537 0.313827 0.367105
C39   C     C_2   0.791425 0.331533 0.214377 0.881136
O10   O     O_2   0.888793 0.404587 0.228206 -0.632646
O11   O     O_R   0.777062 0.237626 0.105948 -0.721956
H26   H     H_    0.852866 0.240771 0.045482 0.326022
O12   O     O_3   0.267856 0.451427 0.623238 -0.751512
H27   H     H_    0.267448 0.384167 0.545257 0.309079
O13   O     O_3   0.900870 0.849762 0.299030 -0.749615
H28   H     H_    0.906472 0.761328 0.251074 0.327848

loop_
_geom_bond_atom_site_label_1
_geom_bond_atom_site_label_2
_ccdc_geom_bond_type
C2    C35   S    
C12   O3    A    
C21   N2    A    
C17   H8    S    
C24   O12   S    
C32   O9    S    
O12   H27   S    
C7    C8    A    
C39   O10   D    
C5    H7    S    
C11   C19   A    
C29   C30   A    
Cu2   O4    S    
C20   C39   S    
C28   C29   A    
C29   H14   S    
C15   C16   A    
C1    O2    A    
C35   H19   S    
C34   C35   S    
C16   H13   S    
C8    C9    A    
C9    C10   A    
Cu2   N2    S    
C13   C14   A    
Cu1   N1    S    
C34   H1    S    
C22   H17   S    
C37   H23   S    
C39   O11   S    
C6    C18   A    
C3    H4    S    
C1    C19   S    
C27   C31   A    
C26   N2    A    
C23   O5    A    
C24   C25   A    
C7    H9    S    
Cu1   Cu2   S    
C5    C18   A    
C20   C28   A    
C25   C26   A    
C35   H20   S    
C2    C4    S    
O9    H25   S    
C37   C38   S    
C11   C16   A    
O13   H28   S    
Cu1   O3    S    
C8    H11   S    
C5    C14   A    
C2    C33   S    
C33   O7    A    
C26   C30   A    
C7    C19   A    
C22   C24   A    
C36   H21   S    
C18   H5    S    
C20   C32   A    
C3    H22   S    
C31   N1    A    
C6    C17   A    
C12   O4    A    
Cu2   O6    S    
C34   C38   S    
Cu1   O1    S    
C23   O6    A    
C9    H10   S    
C10   C13   A    
C21   H16   S    
C25   C27   A    
C4    H24   S    
C34   H12   S    
C13   C17   A    
C36   C38   S    
C2    C3    S    
C4    H2    S    
C3    C36   S    
C6    C23   S    
C30   H18   S    
C1    O1    A    
Cu2   O8    S    
Cu1   O7    S    
C12   C38   S    
C10   C11   A    
O11   H26   S    
C33   O8    A    
C4    C37   S    
Cu2   O2    S    
C27   C28   A    
Cu1   O5    S    
C14   C15   A    
C37   O13   S    
C36   H3    S    
C15   H6    S    
C31   H15   S    
C21   C22   A    
C32   N1    A    
