data_mof_unit_27462.cif
_audit_creation_date              2012-12-11T15:34:25-0500
_audit_creation_method            fapswitch 2.2
_symmetry_space_group_name_H-M    P1
_symmetry_Int_Tables_number       1
_space_group_crystal_system       triclinic
_cell_length_a                    15.066205
_cell_length_b                    15.078415
_cell_length_c                    34.901944
_cell_angle_alpha                 90.591676
_cell_angle_beta                  90.075442
_cell_angle_gamma                 60.072038
_cell_volume                      6871.11474835

loop_
_atom_site_label
_atom_site_type_symbol
_atom_type_description
_atom_site_fract_x
_atom_site_fract_y
_atom_site_fract_z
_atom_type_partial_charge
C1    C     C_R   0.302373 0.608325 0.555699 0.542879
C2    C     C_R   0.668527 0.667581 0.666567 0.049129
C3    C     C_R   0.262917 0.655195 0.266357 -0.118117
C4    C     C_R   0.198915 0.633568 0.288801 0.027633
C5    C     C_R   0.130962 0.608309 0.271028 -0.118169
C6    C     C_R   0.123597 0.609451 0.231261 -0.114887
C7    C     C_R   0.184652 0.635180 0.208794 0.028219
C8    C     C_R   0.213898 0.555245 0.352562 -0.122281
C9    C     C_R   0.235891 0.550912 0.391487 -0.126543
C10   C     C_R   0.228561 0.715010 0.387712 -0.125251
C11   C     C_R   0.207084 0.718994 0.348809 -0.122245
C12   C     C_R   0.204118 0.637080 0.330721 0.031311
C13   C     C_R   0.570429 0.722033 0.650452 -0.149638
C14   C     C_R   0.248325 0.628458 0.408932 0.022906
C15   C     C_R   0.736036 0.025240 0.943265 0.542792
C16   C     C_R   0.746221 0.723152 0.944846 0.544778
C17   C     C_R   0.038003 0.734110 0.948263 0.542341
C18   C     C_R   0.723056 0.038789 0.052827 0.543854
C19   C     C_R   0.733415 0.734428 0.054679 0.543709
C20   C     C_R   0.027899 0.744584 0.057749 0.545155
C21   C     C_R   0.552957 0.701439 0.613118 -0.139317
C22   C     C_R   0.680473 0.679314 0.786202 0.342309
C23   C     C_R   0.677272 0.673445 0.708492 0.386915
C24   C     C_R   0.763488 0.600898 0.848491 -0.120717
C25   C     C_R   0.778189 0.610631 0.887450 -0.131518
C26   C     C_R   0.633317 0.783186 0.887491 -0.131426
C27   C     C_R   0.619010 0.773651 0.848532 -0.124253
C28   C     C_R   0.686302 0.683822 0.828338 0.035360
C29   C     C_R   0.610788 0.588508 0.555204 0.549357
C30   C     C_R   0.715688 0.703321 0.906967 0.022321
C31   C     C_R   0.723646 0.071225 0.905168 0.021833
C32   C     C_R   0.634294 0.098751 0.884047 -0.124658
C33   C     C_R   0.631366 0.117760 0.845002 -0.119803
C34   C     C_R   0.717246 0.110547 0.826445 0.031404
C35   C     C_R   0.803605 0.091276 0.847979 -0.119938
C36   C     C_R   0.806921 0.071510 0.887106 -0.126077
C37   C     C_R   0.749342 0.180418 0.766786 -0.114358
C38   C     C_R   0.742994 0.191718 0.727086 -0.111690
C39   C     C_R   0.706216 0.139315 0.704425 0.025576
C40   C     C_R   0.590513 0.300166 0.553461 0.544116
C41   C     C_R   0.679891 0.072303 0.722051 -0.110469
C42   C     C_R   0.685467 0.061704 0.761712 -0.110057
C43   C     C_R   0.718097 0.117370 0.784413 0.023304
C44   C     C_R   0.593719 0.177694 0.647250 -0.116693
C45   C     C_R   0.565770 0.216023 0.610354 -0.124350
C46   C     C_R   0.724520 0.218672 0.603824 -0.125141
C47   C     C_R   0.752619 0.179975 0.640714 -0.118663
C48   C     C_R   0.685813 0.162591 0.663254 0.033121
C49   C     C_R   0.629140 0.240518 0.588850 0.021150
C50   C     C_R   0.090202 0.698011 0.910908 0.021315
C51   C     C_R   0.300243 0.610179 0.446069 0.543828
C52   C     C_R   0.119104 0.759500 0.890479 -0.124603
C53   C     C_R   0.140960 0.742581 0.851464 -0.121905
C54   C     C_R   0.135414 0.663319 0.832288 0.030965
C55   C     C_R   0.116173 0.595816 0.853276 -0.115398
C56   C     C_R   0.093526 0.613115 0.892355 -0.125853
C57   C     C_R   0.203886 0.563245 0.771359 -0.105942
C58   C     C_R   0.212147 0.559209 0.731474 -0.099096
C59   C     C_R   0.157162 0.648560 0.709781 0.043243
C60   C     C_R   0.091191 0.741210 0.728649 -0.097799
C61   C     C_R   0.083684 0.745339 0.768468 -0.103859
C62   C     C_R   0.607855 0.589647 0.445251 0.542722
C63   C     C_R   0.141398 0.656809 0.790144 0.031298
C64   C     C_R   0.188118 0.724775 0.651727 -0.119636
C65   C     C_R   0.222246 0.715743 0.614049 -0.125462
C66   C     C_R   0.226796 0.553380 0.607619 -0.128171
C67   C     C_R   0.192234 0.562654 0.645314 -0.108521
C68   C     C_R   0.176170 0.646652 0.668144 0.038070
C69   C     C_R   0.245711 0.628089 0.592117 0.020860
C70   C     C_R   0.691332 0.718181 0.090343 0.020978
C71   C     C_R   0.604939 0.799731 0.108007 -0.128536
C72   C     C_R   0.577681 0.790271 0.145321 -0.123241
C73   C     C_R   0.587698 0.303123 0.443687 0.543158
C74   C     C_R   0.636185 0.699110 0.165518 0.031889
C75   C     C_R   0.717832 0.615270 0.146768 -0.119251
C76   C     C_R   0.745031 0.624657 0.109538 -0.125714
C77   C     C_R   0.632573 0.603814 0.223216 -0.120506
C78   C     C_R   0.632629 0.594038 0.262870 -0.118705
C79   C     C_R   0.619546 0.674690 0.287071 0.026523
C80   C     C_R   0.602013 0.766887 0.271045 -0.117388
C81   C     C_R   0.602770 0.776446 0.231339 -0.114454
C82   C     C_R   0.620149 0.694206 0.207061 0.028131
C83   C     C_R   0.549263 0.734986 0.352958 -0.122002
C84   C     C_R   0.633165 0.625170 0.591231 0.012762
C85   C     C_R   0.548032 0.715474 0.391906 -0.126103
C86   C     C_R   0.704320 0.552515 0.383774 -0.125098
C87   C     C_R   0.704935 0.571682 0.344849 -0.121913
C88   C     C_R   0.625524 0.661345 0.328933 0.030497
C89   C     C_R   0.623492 0.622271 0.407378 0.022486
C90   C     C_R   0.699281 0.102044 0.087810 0.021952
C91   C     C_R   0.773133 0.122231 0.103787 -0.127781
C92   C     C_R   0.760406 0.162032 0.140854 -0.124061
C93   C     C_R   0.673744 0.182170 0.162469 0.031918
C94   C     C_R   0.595776 0.170630 0.145240 -0.119732
C95   C     C_R   0.733007 0.576798 0.605953 -0.156223
C96   C     C_R   0.608337 0.131072 0.108157 -0.127016
C97   C     C_R   0.578252 0.270544 0.222291 -0.120852
C98   C     C_R   0.572363 0.276869 0.262131 -0.118441
C99   C     C_R   0.658728 0.214218 0.284345 0.027418
C100  C     C_R   0.752091 0.148230 0.266203 -0.117954
C101  C     C_R   0.757918 0.141558 0.226366 -0.114693
C102  C     C_R   0.670572 0.201292 0.204085 0.028183
C103  C     C_R   0.723514 0.226806 0.348749 -0.122608
C104  C     C_R   0.707876 0.245185 0.388053 -0.127066
C105  C     C_R   0.551240 0.237456 0.383518 -0.125346
C106  C     C_R   0.752274 0.598891 0.643142 0.014175
C107  C     C_R   0.566712 0.219580 0.344237 -0.122275
C108  C     C_R   0.650728 0.218224 0.326389 0.031507
C109  C     C_R   0.619184 0.255186 0.405477 0.022735
C110  C     C_R   0.086970 0.706529 0.093226 0.022436
C111  C     C_R   0.105109 0.613272 0.108662 -0.127661
C112  C     C_R   0.143892 0.586120 0.145552 -0.124103
C113  C     C_R   0.165064 0.651777 0.167470 0.031907
C114  C     C_R   0.154738 0.740865 0.150900 -0.119717
C115  C     C_R   0.116130 0.767979 0.114008 -0.126698
C116  C     C_R   0.255936 0.655874 0.226607 -0.120924
Cr1   Cr    Cr6+3 0.421670 0.426920 0.499620 1.010058
Cr2   Cr    Cr6+3 0.427030 0.651190 0.500980 1.011429
Cr3   Cr    Cr6+3 0.651280 0.421870 0.499380 1.010069
Cr4   Cr    Cr6+3 0.910810 0.908010 0.001130 1.009645
Cr5   Cr    Cr6+3 0.682800 0.909890 0.998370 1.010182
Cr6   Cr    Cr6+3 0.908370 0.682300 0.002180 1.010049
H1    H     H_    0.795994 0.520475 0.588596 0.112535
H2    H     H_    0.876931 0.050352 0.902597 0.125431
H3    H     H_    0.824903 0.167173 0.652134 0.103984
H4    H     H_    0.762403 0.245060 0.714350 0.114233
H5    H     H_    0.774713 0.223968 0.783837 0.112173
H6    H     H_    0.563155 0.134717 0.828973 0.106767
H7    H     H_    0.653015 0.029687 0.705226 0.120841
H8    H     H_    0.663251 0.010750 0.774757 0.125230
H9    H     H_    0.540174 0.165925 0.664053 0.105389
H10   H     H_    0.491833 0.231959 0.599607 0.128181
H11   H     H_    0.870543 0.085731 0.834153 0.103109
H12   H     H_    0.475216 0.740369 0.602408 0.133762
H13   H     H_    0.775425 0.235928 0.587775 0.125310
H14   H     H_    0.118006 0.825063 0.903959 0.127113
H15   H     H_    0.071646 0.564316 0.907311 0.126164
H16   H     H_    0.181655 0.502338 0.657051 0.117238
H17   H     H_    0.264788 0.486985 0.717764 0.103612
H18   H     H_    0.248853 0.494119 0.787598 0.104934
H19   H     H_    0.157841 0.794205 0.835865 0.106178
H20   H     H_    0.046594 0.810820 0.712637 0.109858
H21   H     H_    0.032972 0.817920 0.782411 0.111194
H22   H     H_    0.177232 0.790026 0.668683 0.102832
H23   H     H_    0.842137 0.547613 0.901684 0.127546
H24   H     H_    0.235998 0.774644 0.602939 0.126752
H25   H     H_    0.111947 0.533921 0.838993 0.112024
H26   H     H_    0.243425 0.485290 0.591300 0.123696
H27   H     H_    0.561703 0.872654 0.093856 0.124969
H28   H     H_    0.811685 0.560276 0.096637 0.126626
H29   H     H_    0.765615 0.514776 0.326866 0.103550
H30   H     H_    0.643827 0.523033 0.274699 0.111796
H31   H     H_    0.644391 0.539902 0.205187 0.106195
H32   H     H_    0.513306 0.855497 0.158914 0.100023
H33   H     H_    0.591715 0.829984 0.289244 0.105085
H34   H     H_    0.594509 0.846489 0.219736 0.105624
H35   H     H_    0.487473 0.804843 0.341228 0.101223
H36   H     H_    0.484739 0.770692 0.409373 0.122343
H37   H     H_    0.764949 0.544285 0.161671 0.102356
H38   H     H_    0.763600 0.480032 0.394763 0.126069
H39   H     H_    0.843456 0.101862 0.088552 0.123234
H40   H     H_    0.549827 0.116922 0.096502 0.125620
H41   H     H_    0.510914 0.210741 0.327526 0.102607
H42   H     H_    0.500123 0.330207 0.275638 0.110802
H43   H     H_    0.510244 0.318206 0.205718 0.106239
H44   H     H_    0.505424 0.775671 0.667627 0.130428
H45   H     H_    0.820634 0.172218 0.153328 0.099922
H46   H     H_    0.819503 0.099242 0.282844 0.104146
H47   H     H_    0.829612 0.086167 0.213072 0.105628
H48   H     H_    0.789093 0.225610 0.335512 0.100154
H49   H     H_    0.761692 0.258353 0.404239 0.122904
H50   H     H_    0.528407 0.185007 0.161348 0.101966
H51   H     H_    0.482466 0.244178 0.396124 0.126335
H52   H     H_    0.084579 0.563708 0.093047 0.124306
H53   H     H_    0.103574 0.839971 0.102724 0.127083
H54   H     H_    0.197350 0.783914 0.332452 0.103725
H55   H     H_    0.815979 0.530202 0.833824 0.132949
H56   H     H_    0.317781 0.672314 0.279630 0.111560
H57   H     H_    0.304592 0.674678 0.209813 0.106951
H58   H     H_    0.152972 0.516164 0.157602 0.100464
H59   H     H_    0.081156 0.591298 0.287934 0.104811
H60   H     H_    0.066796 0.594886 0.218199 0.106481
H61   H     H_    0.211338 0.491548 0.339067 0.100871
H62   H     H_    0.250220 0.483482 0.407195 0.123696
H63   H     H_    0.169844 0.793181 0.167345 0.103084
H64   H     H_    0.236800 0.776323 0.400430 0.127302
H65   H     H_    0.583512 0.855552 0.901720 0.128477
H66   H     H_    0.557792 0.838356 0.833952 0.128801
H67   H     H_    0.568651 0.099762 0.897135 0.127145
N1    N     N_R   0.740244 0.590673 0.766722 -0.229586
N2    N     N_R   0.737982 0.587630 0.728650 -0.181270
N3    N     N_R   0.616671 0.761918 0.727934 -0.243877
N4    N     N_R   0.618757 0.764906 0.766032 -0.243939
O1    O     O_R   0.502070 0.323090 0.541280 -0.519918
O2    O     O_R   0.520720 0.641670 0.461580 -0.501541
O3    O     O_R   0.674120 0.502090 0.457500 -0.521555
O4    O     O_R   0.640110 0.338380 0.459630 -0.503592
O5    O     O_3   0.499990 0.499990 0.499990 -0.235626
O6    O     O_R   0.017640 0.822070 0.960410 -0.521224
O7    O     O_R   0.822000 0.989470 0.960340 -0.502949
O8    O     O_R   0.666920 0.007430 0.955290 -0.521110
O9    O     O_R   0.694410 0.812480 0.959650 -0.502892
O10   O     O_R   0.831550 0.656950 0.958960 -0.520302
O11   O     O_R   0.998590 0.685540 0.963930 -0.502715
O12   O     O_R   0.338340 0.520690 0.539540 -0.502277
O13   O     O_R   0.008220 0.831200 0.045060 -0.520435
O14   O     O_R   0.813270 0.997930 0.038810 -0.502192
O15   O     O_R   0.657500 0.016560 0.039940 -0.521170
O16   O     O_R   0.685680 0.820940 0.038120 -0.502190
O17   O     O_R   0.822130 0.666070 0.043610 -0.519783
O18   O     O_R   0.989860 0.694000 0.042400 -0.502654
O19   O     O_3   0.833990 0.833400 0.000560 -0.234736
O20   O     O_R   0.324760 0.674070 0.543580 -0.521468
O21   O     O_R   0.522400 0.640310 0.540110 -0.502470
O22   O     O_R   0.675940 0.500630 0.542210 -0.517235
O23   O     O_R   0.641790 0.337020 0.538150 -0.501864
O24   O     O_R   0.500260 0.324550 0.456580 -0.520470
O25   O     O_R   0.336660 0.522040 0.461020 -0.503280
O26   O     O_R   0.322940 0.675540 0.458880 -0.520184
C117  C     C_2   0.860512 0.549461 0.655789 0.231769
H68   H     H_    0.918311 0.481247 0.641014 0.088001
O27   O     O_2   0.887398 0.586595 0.681384 -0.480198

loop_
_geom_bond_atom_site_label_1
_geom_bond_atom_site_label_2
_ccdc_geom_bond_type
C58   H17   S    
Cr6   O10   S    
C106  C117  S    
C55   C56   A    
Cr3   O22   S    
N1    N2    A    
C56   H15   S    
C111  H52   S    
C41   C42   A    
Cr3   O23   S    
C35   C36   A    
C20   O13   A    
C87   C88   A    
C35   H11   S    
C117  O27   D    
C97   C98   A    
C90   C91   A    
C78   H30   S    
C104  C109  A    
C39   C41   A    
C40   O1    A    
C77   C78   A    
C44   C45   A    
C44   H9    S    
C99   C108  S    
C105  C107  A    
C46   C49   A    
C11   H54   S    
C93   C94   A    
C114  H63   S    
C6    H60   S    
C64   C68   A    
C92   C93   A    
C36   H2    S    
C3    H56   S    
Cr5   O9    S    
C34   C35   A    
Cr1   O12   S    
C3    C116  A    
C31   C36   A    
C5    C6    A    
C65   C69   A    
Cr5   O19   S    
C66   C69   A    
C54   C63   S    
C16   C30   S    
C40   C49   S    
Cr3   O5    S    
C62   C89   S    
Cr4   O6    S    
C18   O15   A    
Cr3   O3    S    
C20   O18   A    
Cr6   O11   S    
C61   C63   A    
C2    C13   A    
C110  C111  A    
C117  H68   S    
C115  H53   S    
Cr1   O1    S    
C105  H51   S    
C77   H31   S    
C46   H13   S    
C46   C47   A    
C61   H21   S    
C47   C48   A    
C8    C9    A    
C67   H16   S    
C73   O4    A    
C103  H48   S    
C50   C52   A    
C107  C108  A    
Cr6   O17   S    
C22   N4    A    
Cr1   O24   S    
C103  C108  A    
Cr5   O16   S    
C22   N1    A    
C16   O10   A    
C1    O12   A    
C66   H26   S    
C97   C102  A    
C112  H58   S    
C60   H20   S    
C1    C69   S    
C83   C88   A    
C59   C60   A    
C87   H29   S    
C62   O2    A    
C74   C82   S    
C16   O9    A    
C5    H59   S    
C79   C88   S    
C38   H4    S    
C103  C104  A    
C114  C115  A    
C2    C23   S    
C51   O25   A    
C38   C39   A    
C47   H3    S    
C72   H32   S    
C74   C75   A    
C13   C21   A    
C67   C68   A    
C18   C90   S    
C101  C102  A    
C23   N2    A    
C24   C25   A    
C29   C84   S    
C72   C74   A    
C10   C14   A    
C91   C92   A    
C9    C14   A    
C85   C89   A    
C78   C79   A    
C4    C5    A    
C64   H22   S    
C51   O26   A    
C58   C59   A    
C53   C54   A    
C15   C31   S    
C2    C106  A    
C33   H6    S    
C81   C82   A    
C57   H18   S    
C60   C61   A    
C84   C95   A    
C7    C116  A    
C37   C43   A    
C17   O11   A    
C75   C76   A    
C37   C38   A    
C10   H64   S    
C95   C106  A    
C59   C68   S    
C41   H7    S    
C26   H65   S    
C55   H25   S    
C14   C51   S    
C83   H35   S    
C21   C84   A    
C45   C49   A    
C8    C12   A    
C40   O23   A    
C33   C34   A    
C26   C27   A    
C73   O24   A    
Cr1   O25   S    
Cr2   O21   S    
C94   C96   A    
Cr2   O2    S    
C81   H34   S    
C70   C71   A    
C104  H49   S    
C20   C110  S    
C62   O3    A    
C8    H61   S    
C83   C85   A    
C53   H19   S    
C107  H41   S    
C26   C30   A    
C1    O20   A    
C52   H14   S    
Cr6   O19   S    
C4    C12   S    
C42   C43   A    
C29   O21   A    
C3    C4    A    
Cr2   O5    S    
C21   H12   S    
Cr2   O26   S    
C52   C53   A    
C86   C87   A    
C80   H33   S    
C113  C114  A    
C75   H37   S    
C25   C30   A    
C105  C109  A    
C54   C55   A    
C25   H23   S    
C15   O8    A    
C111  C112  A    
C19   O16   A    
Cr3   O4    S    
Cr4   O14   S    
C31   C32   A    
C91   H39   S    
C34   C43   S    
C24   C28   A    
C57   C63   A    
C80   C81   A    
C86   C89   A    
C93   C102  S    
C98   H42   S    
C11   C12   A    
C90   C96   A    
C6    C7    A    
C17   C50   S    
C86   H38   S    
C94   H50   S    
C42   H8    S    
C99   C100  A    
C100  H46   S    
Cr4   O13   S    
N3    N4    A    
C7    C113  S    
Cr5   O8    S    
C71   C72   A    
C9    H62   S    
C64   C65   A    
C70   C76   A    
C15   O7    A    
C92   H45   S    
C57   C58   A    
C71   H27   S    
C13   H44   S    
C77   C82   A    
C97   H43   S    
C100  C101  A    
Cr4   O7    S    
C96   H40   S    
C32   H67   S    
C66   C67   A    
Cr2   O20   S    
C112  C113  A    
C73   C109  S    
C101  H47   S    
C32   C33   A    
C23   N3    A    
C50   C56   A    
C29   O22   A    
C10   C11   A    
C79   C80   A    
Cr4   O19   S    
C76   H28   S    
C45   H10   S    
C98   C99   A    
C85   H36   S    
C116  H57   S    
C24   H55   S    
Cr6   O18   S    
C18   O14   A    
C19   C70   S    
C22   C28   S    
Cr5   O15   S    
C37   H5    S    
C65   H24   S    
C17   O6    A    
C27   H66   S    
C110  C115  A    
Cr1   O5    S    
C44   C48   A    
C19   O17   A    
C95   H1    S    
C39   C48   S    
C27   C28   A    
