data_mof_unit_20969.cif
_audit_creation_date              2012-12-11T15:15:15-0500
_audit_creation_method            fapswitch 2.2
_symmetry_space_group_name_H-M    P1
_symmetry_Int_Tables_number       1
_space_group_crystal_system       triclinic
_cell_length_a                    18.835579
_cell_length_b                    18.817758
_cell_length_c                    20.365487
_cell_angle_alpha                 107.280975
_cell_angle_beta                  106.355329
_cell_angle_gamma                 110.961756
_cell_volume                      5795.5806913

loop_
_atom_site_label
_atom_site_type_symbol
_atom_type_description
_atom_site_fract_x
_atom_site_fract_y
_atom_site_fract_z
_atom_type_partial_charge
C1    C     C_R   0.087564 0.088025 0.354998 -0.150936
C2    C     C_R   0.761556 0.993384 0.556668 0.104335
C3    C     C_R   0.757080 0.787533 0.272717 0.098499
C4    C     C_R   0.962560 0.218429 0.464358 0.072917
C5    C     C_R   0.229507 0.229224 0.645188 -0.145298
C6    C     C_R   0.921162 0.756509 0.495078 -0.138322
C7    C     C_R   0.175260 0.927977 0.477382 -0.131906
C8    C     C_R   0.031779 0.052295 0.718158 -0.140756
C9    C     C_R   0.961366 0.910762 0.653535 -0.122159
C10   C     C_R   0.245982 0.069463 0.542881 -0.127867
C11   C     C_R   0.151810 0.222766 0.709301 -0.131338
C12   C     C_R   0.764543 0.925358 0.509490 -0.149259
C13   C     C_R   0.998461 0.763050 0.430535 -0.138904
C14   C     C_R   0.227420 0.274314 0.711504 0.046302
C15   C     C_R   0.946836 0.709114 0.450759 0.083999
C16   C     C_R   0.253795 0.996190 0.530819 0.075439
C17   C     C_R   0.016798 0.977822 0.725565 0.061034
C18   C     C_R   0.859667 0.568931 0.443738 -0.227784
C19   C     C_R   0.915473 0.616983 0.421182 0.113900
C20   C     C_R   0.946760 0.577871 0.375321 -0.254872
C21   C     C_R   0.932894 0.496008 0.361684 0.157869
C22   C     C_R   0.885476 0.452017 0.392857 0.028657
C23   C     C_R   0.839562 0.814530 0.281356 -0.073764
C24   C     C_R   0.845100 0.486808 0.430435 0.083545
C25   C     C_R   0.972410 0.460895 0.323691 -0.207703
C26   C     C_R   0.972724 0.387128 0.323900 -0.207917
C27   C     C_R   0.933701 0.348291 0.362272 0.165992
C28   C     C_R   0.885724 0.377808 0.393247 -0.020557
C29   C     C_R   0.845440 0.338367 0.431386 0.079766
C30   C     C_R   0.796163 0.367813 0.460800 0.292617
C31   C     C_R   0.796820 0.442260 0.460049 -0.240222
C32   C     C_R   0.950038 0.287131 0.377706 -0.254139
C33   C     C_R   0.921789 0.257872 0.426030 0.108048
C34   C     C_R   0.947631 0.194497 0.519516 -0.134036
C35   C     C_R   0.862612 0.276499 0.445602 -0.243327
C36   C     C_R   0.406568 0.063488 0.619804 -0.260423
C37   C     C_R   0.330108 0.990352 0.565283 0.115501
C38   C     C_R   0.328393 0.911642 0.537691 -0.257662
C39   C     C_R   0.403083 0.907740 0.553208 0.139351
C40   C     C_R   0.480659 0.982932 0.600780 0.050803
C41   C     C_R   0.482238 0.060099 0.637845 0.144018
C42   C     C_R   0.401349 0.831094 0.515941 -0.209208
C43   C     C_R   0.475853 0.830752 0.519135 -0.187908
C44   C     C_R   0.552549 0.906715 0.560979 0.146524
C45   C     C_R   0.760552 0.807440 0.345588 -0.148667
C46   C     C_R   0.556129 0.982141 0.605847 -0.023729
C47   C     C_R   0.634238 0.057686 0.651352 0.088922
C48   C     C_R   0.635222 0.132307 0.694925 -0.190507
C49   C     C_R   0.559745 0.133682 0.687219 -0.212545
C50   C     C_R   0.623471 0.910143 0.551606 -0.320165
C51   C     C_R   0.699221 0.987106 0.588683 0.063820
C52   C     C_R   0.708155 0.057476 0.648103 0.243196
C53   C     C_R   0.282477 0.366074 0.761792 0.141418
C54   C     C_R   0.254263 0.413860 0.804296 -0.185355
C55   C     C_R   0.308073 0.499722 0.854150 -0.155877
C56   C     C_R   0.025928 0.201199 0.454898 -0.127100
C57   C     C_R   0.391135 0.538989 0.862579 0.227673
C58   C     C_R   0.417328 0.492891 0.816372 -0.182205
C59   C     C_R   0.363719 0.407052 0.766751 -0.173435
C60   C     C_R   0.603532 0.670150 0.063538 -0.347809
C61   C     C_R   0.676650 0.703289 0.130353 0.536460
C62   C     C_R   0.615952 0.770457 0.202536 -0.244971
C63   C     C_R   0.544304 0.738295 0.135318 -0.174439
C64   C     C_R   0.537947 0.688563 0.065387 0.184705
C65   C     C_2   0.456266 0.622142 0.926710 -0.238919
C66   C     C_2   0.457489 0.643818 0.996243 -0.178545
C67   C     C_R   0.831530 0.065482 0.571418 -0.154661
C68   C     C_R   0.682081 0.752741 0.200858 -0.010052
C69   C     C_R   0.111248 0.028501 0.239108 0.085246
C70   C     C_R   0.122841 0.961384 0.200412 -0.181089
C71   C     C_R   0.162392 0.968183 0.152528 -0.219761
C72   C     C_R   0.189227 0.041457 0.140895 0.061032
C73   C     C_R   0.181743 0.110882 0.182634 0.561818
C74   C     C_R   0.144025 0.104212 0.232419 -0.344189
C75   C     C_R   0.108828 0.035438 0.933879 -0.155983
C76   C     C_R   0.068728 0.033332 0.864424 -0.250478
C77   C     C_R   0.090200 0.916714 0.799418 0.298764
C78   C     C_R   0.018637 0.947792 0.290687 -0.158179
C79   C     C_R   0.129125 0.918487 0.870210 -0.211301
C80   C     C_R   0.139096 0.977944 0.937380 0.173639
C81   C     C_2   0.210711 0.041801 0.076518 -0.170036
C82   C     C_2   0.168751 0.971828 0.009435 -0.240548
C83   C     C_R   0.057804 0.973913 0.796550 0.092603
C84   C     C_R   0.067937 0.021515 0.288684 0.092959
H1    H     H_    0.136974 0.152783 0.378732 0.097431
H2    H     H_    0.870933 0.732531 0.511260 0.086246
H3    H     H_    0.156705 0.861371 0.454648 0.094764
H4    H     H_    0.073559 0.116362 0.762744 0.105716
H5    H     H_    0.935059 0.843815 0.637986 0.107026
H6    H     H_    0.294345 0.134206 0.581181 0.095871
H7    H     H_    0.123117 0.241959 0.745356 0.086080
H8    H     H_    0.019034 0.745225 0.386811 0.088026
H9    H     H_    0.832369 0.596858 0.476680 0.114873
H10   H     H_    0.987540 0.612624 0.355043 0.115759
H11   H     H_    0.007703 0.493388 0.298279 0.129142
H12   H     H_    0.727965 0.859312 0.495461 0.091319
H13   H     H_    0.008475 0.364005 0.298824 0.129611
H14   H     H_    0.991692 0.269357 0.358209 0.115569
H15   H     H_    0.836136 0.248758 0.478040 0.138446
H16   H     H_    0.763706 0.468311 0.486735 0.139069
H17   H     H_    0.408317 0.123935 0.644437 0.120954
H18   H     H_    0.270038 0.853727 0.498382 0.118188
H19   H     H_    0.342016 0.772704 0.480033 0.129691
H20   H     H_    0.472905 0.772136 0.485500 0.127655
H21   H     H_    0.616320 0.853743 0.509681 0.134402
H22   H     H_    0.861185 0.813536 0.237665 0.123802
H23   H     H_    0.693537 0.191508 0.730802 0.149372
H24   H     H_    0.561981 0.193198 0.717201 0.131509
H25   H     H_    0.191076 0.385246 0.799965 0.112398
H26   H     H_    0.619537 0.809186 0.255976 0.144587
H27   H     H_    0.400588 0.614422 0.002998 0.128788
H28   H     H_    0.481298 0.521915 0.822196 0.109581
H29   H     H_    0.595522 0.625283 0.010738 0.137394
H30   H     H_    0.387177 0.372198 0.734499 0.111735
H31   H     H_    0.902334 0.197995 0.541109 0.095019
H32   H     H_    0.514477 0.653806 0.922381 0.133904
H33   H     H_    0.285444 0.534430 0.887623 0.111430
H34   H     H_    0.493156 0.750938 0.137993 0.126689
H35   H     H_    0.101491 0.903430 0.206878 0.124119
H36   H     H_    0.044563 0.077544 0.863644 0.133315
H37   H     H_    0.138504 0.909065 0.006270 0.141266
H38   H     H_    0.112586 0.079727 0.984555 0.115153
H39   H     H_    0.138055 0.157504 0.263965 0.140347
H40   H     H_    0.708363 0.797040 0.360704 0.104062
H41   H     H_    0.241179 0.102833 0.076276 0.175609
H42   H     H_    0.169566 0.914905 0.122919 0.139117
H43   H     H_    0.151547 0.873378 0.873189 0.129665
H44   H     H_    0.053188 0.210991 0.416317 0.094810
H45   H     H_    0.854219 0.130045 0.610838 0.117761
H46   H     H_    0.003089 0.884097 0.254550 0.088551
H47   H     H_    0.271365 0.255431 0.621652 0.092342
N1    N     N_R   0.052580 0.056040 0.395500 -0.038589
N2    N     N_R   0.954640 0.834860 0.500130 -0.038580
N3    N     N_R   0.122510 0.958490 0.460420 -0.040656
N4    N     N_R   0.990180 0.030970 0.644220 -0.039448
N5    N     N_R   0.947420 0.943960 0.604500 -0.040651
N6    N     N_R   0.165270 0.045500 0.500140 -0.039844
N7    N     N_R   0.109790 0.150600 0.644220 -0.037540
N8    N     N_R   0.002890 0.838860 0.460420 -0.039240
N9    N     N_R   0.834730 0.954500 0.499860 -0.038758
N10   N     N_R   0.890210 0.849400 0.355780 -0.051312
N11   N     N_R   0.997110 0.161140 0.539580 -0.040902
N12   N     N_R   0.841950 0.845400 0.395490 -0.041943
N13   N     N_R   0.045360 0.165140 0.499870 -0.040629
N14   N     N_R   0.877490 0.041510 0.539580 -0.040910
N15   N     N_R   0.009820 0.969030 0.355780 -0.041492
N16   N     N_R   0.158050 0.154600 0.604510 -0.036970
Ni1   Ni    Ni4+2 0.104370 0.104380 0.500010 0.213719
Ni2   Ni    Ni4+2 0.895630 0.895620 0.499990 0.210552
Ni3   Ni    Ni4+2 0.006300 0.904810 0.408930 0.211527
Ni4   Ni    Ni4+2 0.993700 0.095190 0.591070 0.208461
C85   C     C_3   0.746976 0.324467 0.497165 -1.020874
H48   H     H_    0.790927 0.329405 0.549907 0.245738
H49   H     H_    0.708807 0.353723 0.513118 0.252995
H50   H     H_    0.703033 0.256556 0.456441 0.255561
C86   C     C_3   0.793842 0.128055 0.710002 -1.076136
H51   H     H_    0.793031 0.142837 0.766711 0.258890
H52   H     H_    0.843410 0.108767 0.712920 0.259474
H53   H     H_    0.810556 0.186157 0.701043 0.248938
O1    O     O_3   0.736947 0.677582 0.128903 -0.631484
C87   C     C_3   0.771910 0.700850 0.080699 0.246933
H54   H     H_    0.792233 0.768927 0.094196 0.075693
H55   H     H_    0.726068 0.660309 0.019629 0.098029
C88   C     C_3   0.848952 0.687875 0.092111 -0.899270
H56   H     H_    0.830338 0.620067 0.077249 0.263599
H57   H     H_    0.877116 0.706304 0.054747 0.208492
H58   H     H_    0.897091 0.727424 0.152422 0.240934
C89   C     C_3   0.086932 0.855783 0.729596 -1.024019
H59   H     H_    0.022216 0.801314 0.694273 0.244508
H60   H     H_    0.106908 0.888576 0.695675 0.263446
H61   H     H_    0.130082 0.829779 0.745368 0.252851
O2    O     O_3   0.213730 0.185848 0.175879 -0.645839
C90   C     C_3   0.148893 0.204922 0.146355 0.253136
H62   H     H_    0.083894 0.156508 0.131316 0.067542
H63   H     H_    0.148080 0.208963 0.092884 0.110782
C91   C     C_3   0.168363 0.291127 0.202922 -0.908150
H64   H     H_    0.230854 0.340770 0.214918 0.266109
H65   H     H_    0.119274 0.307538 0.178578 0.209399
H66   H     H_    0.169230 0.289756 0.257229 0.243207

loop_
_geom_bond_atom_site_label_1
_geom_bond_atom_site_label_2
_ccdc_geom_bond_type
C40   C41   A    
C5    N16   A    
C36   C41   A    
C75   H38   S    
C73   C74   A    
N6    Ni1   S    
C3    C23   A    
N16   Ni1   S    
N13   Ni1   S    
C1    N1    A    
C2    C12   A    
C42   H19   S    
N3    N6    A    
N5    Ni2   S    
C53   C59   A    
N4    N5    A    
C90   H62   S    
C77   C89   S    
C40   C46   A    
C26   C27   A    
C76   H36   S    
C58   H28   S    
C13   N8    A    
C28   C29   A    
C11   N7    A    
C6    N2    A    
N10   N12   A    
C38   C39   A    
C11   C14   A    
N4    Ni4   S    
C89   H60   S    
C48   H23   S    
C77   C83   A    
N3    Ni3   S    
C18   C19   A    
C46   C47   A    
C43   H20   S    
C56   H44   S    
C20   H10   S    
C6    C15   A    
N15   Ni3   S    
C89   H61   S    
C34   N11   A    
C8    H4    S    
C19   C20   A    
C67   N14   A    
C50   H21   S    
C12   N9    A    
C71   H42   S    
C70   C71   A    
C10   N6    A    
C66   H27   S    
C39   C42   A    
C75   C80   A    
C70   H35   S    
C82   H37   S    
C72   C81   S    
C16   C37   S    
C91   H65   S    
C74   H39   S    
C22   C28   A    
C21   C22   A    
C4    C56   A    
C8    N4    A    
C88   H56   S    
C60   H29   S    
C67   H45   S    
C35   H15   S    
C76   C83   A    
C41   C49   A    
C87   H55   S    
C44   C46   A    
N10   Ni3   S    
C87   H54   S    
C49   H24   S    
C12   H12   S    
C77   C79   A    
C45   H40   S    
C1    H1    S    
C4    C34   A    
C51   C52   A    
N1    Ni1   S    
N2    Ni2   S    
C7    N3    A    
C80   C82   S    
C2    C67   A    
C61   O1    S    
C9    H5    S    
C39   C40   A    
C63   H34   S    
C34   H31   S    
C53   C54   A    
C23   H22   S    
C3    C45   A    
C81   C82   D    
C63   C64   A    
C54   H25   S    
C60   C61   A    
C1    C84   A    
C86   H51   S    
N11   Ni4   S    
C37   C38   A    
C15   C19   S    
C75   C76   A    
C29   C30   A    
C78   C84   A    
C30   C85   S    
C47   C48   A    
C62   H26   S    
C85   H50   S    
N12   Ni2   S    
N7    N16   A    
C62   C63   A    
C50   C51   A    
C69   C74   A    
C31   H16   S    
C20   C21   A    
C73   O2    S    
C13   C15   A    
C5    C14   A    
N14   Ni4   S    
C90   H63   S    
C3    C68   S    
C9    C17   A    
C91   H64   S    
C85   H49   S    
N2    N8    A    
C55   C57   A    
C43   C44   A    
C65   H32   S    
C18   C24   A    
C58   C59   A    
C42   C43   A    
C87   C88   S    
O2    C90   S    
C55   H33   S    
C90   C91   S    
C44   C50   A    
C4    C33   S    
C21   C25   A    
C54   C55   A    
C89   H59   S    
C81   H41   S    
C27   C32   A    
C86   H53   S    
C7    C16   A    
C57   C65   S    
C72   C73   A    
N9    N14   A    
C25   H11   S    
C47   C52   A    
N7    Ni4   S    
C52   C86   S    
C29   C35   A    
N8    Ni3   S    
C8    C17   A    
C6    H2    S    
C62   C68   A    
C60   C64   A    
N1    N15   A    
C32   C33   A    
C91   H66   S    
C88   H57   S    
C25   C26   A    
C24   C31   A    
C79   H43   S    
C71   C72   A    
C13   H8    S    
C69   C84   S    
C10   C16   A    
O1    C87   S    
C61   C68   A    
C57   C58   A    
C30   C31   A    
C36   C37   A    
C59   H30   S    
C48   C49   A    
C86   H52   S    
C33   C35   A    
C32   H14   S    
C22   C24   A    
C88   H58   S    
C78   H46   S    
C69   C70   A    
C2    C51   S    
C78   N15   A    
C26   H13   S    
C79   C80   A    
C56   N13   A    
C9    N5    A    
C11   H7    S    
C5    H47   S    
C14   C53   S    
C7    H3    S    
C85   H48   S    
C10   H6    S    
C38   H18   S    
C65   C66   D    
C23   N10   A    
C27   C28   A    
C45   N12   A    
C18   H9    S    
C36   H17   S    
C17   C83   S    
N9    Ni2   S    
N11   N13   A    
C64   C66   S    
