data_mof_unit_10681.cif
_audit_creation_date              2013-03-05T15:55:21-0500
_audit_creation_method            fapswitch 2.2
_symmetry_space_group_name_H-M    P1
_symmetry_Int_Tables_number       1
_space_group_crystal_system       triclinic
_cell_length_a                    26.717281
_cell_length_b                    10.686566
_cell_length_c                    9.920007
_cell_angle_alpha                 91.276257
_cell_angle_beta                  89.403377
_cell_angle_gamma                 91.782325
_cell_volume                      2830.11412925

loop_
_atom_site_label
_atom_site_type_symbol
_atom_site_description
_atom_site_fract_x
_atom_site_fract_y
_atom_site_fract_z
_atom_type_partial_charge
O1    O     O_R   0.500000 0.316780 0.614690 -0.589657
O2    O     O_R   0.500000 0.316750 0.385360 -0.596734
C1    C     C_R   0.506698 0.262238 0.498904 0.920262
O3    O     O_R   0.428760 0.500030 0.614650 -0.609494
O4    O     O_R   0.428750 0.500010 0.385320 -0.594126
C2    C     C_R   0.405504 0.503019 0.500707 0.930659
Zn1   Zn    Zn3+2 0.500000 0.500020 0.653130 0.951690
Zn2   Zn    Zn3+2 0.500000 0.499980 0.346870 0.964306
O5    O     O_R   0.500000 0.683250 0.614640 -0.634177
O6    O     O_R   0.500000 0.683220 0.385310 -0.617946
O7    O     O_R   0.571250 0.499990 0.614680 -0.630171
O8    O     O_R   0.571240 0.499970 0.385350 -0.621252
C3    C     C_R   0.498818 0.740776 0.502862 0.859675
C4    C     C_R   0.594717 0.503102 0.499245 0.848184
C5    C     C_R   0.186702 0.709453 0.372956 0.554738
O9    O     O_2   0.214164 0.705302 0.258058 -0.546300
N1    N     N_R   0.207820 0.679611 0.492577 -0.348612
C6    C     C_R   0.182033 0.689333 0.611927 0.533169
C7    C     C_R   0.296530 0.709488 0.544047 -0.113190
C8    C     C_R   0.344654 0.664443 0.549235 -0.242905
C9    C     C_R   0.315352 0.465658 0.451364 -0.268430
C10   C     C_R   0.266782 0.509844 0.447502 0.204977
C11   C     C_R   0.257436 0.632964 0.493051 0.257949
C12   C     C_R   0.108212 0.745510 0.490154 -0.052587
C13   C     C_R   0.136231 0.741263 0.369120 -0.021323
C14   C     C_R   0.112808 0.763922 0.246986 -0.112572
C15   C     C_R   0.131703 0.722190 0.613071 -0.015974
C16   C     C_R   0.354108 0.542668 0.502895 -0.078955
H1    H     H_    0.322699 0.371508 0.415717 0.189219
H2    H     H_    0.133825 0.765136 0.152995 0.192654
C17   C     C_R   0.647893 0.539446 0.496092 -0.039351
C18   C     C_R   0.978779 0.761474 0.359201 0.058211
C19   C     C_R   0.976232 0.791387 0.606574 -0.004329
C20   C     C_R   0.951365 0.768773 0.482391 0.051693
C21   C     C_R   0.952396 0.734458 0.238716 -0.182320
C22   C     C_R   0.901029 0.709559 0.240639 -0.115840
C23   C     C_R   0.874117 0.712952 0.362251 -0.019207
C24   C     C_R   0.898849 0.747861 0.482435 -0.052902
C25   C     C_R   0.871303 0.757285 0.603626 -0.060482
C26   C     C_R   0.820182 0.723439 0.604063 0.526695
N2    N     N_R   0.797677 0.680336 0.487980 -0.349743
C27   C     C_R   0.823210 0.677587 0.367564 0.515204
C28   C     C_R   0.733906 0.528256 0.568935 -0.133238
C29   C     C_R   0.684452 0.479749 0.571830 0.131559
C30   C     C_R   0.661419 0.644380 0.419518 -0.259466
C31   C     C_R   0.710309 0.691696 0.418686 -0.096896
C32   C     C_R   0.746775 0.633948 0.492994 0.267791
O10   O     O_2   0.799765 0.637390 0.254012 -0.551600
C33   C     C_R   0.031747 0.772250 0.361848 0.049437
C34   C     C_R   0.056197 0.766815 0.487581 0.079746
C35   C     C_R   0.028503 0.773737 0.610241 0.061814
C36   C     C_R   0.061301 0.778528 0.243062 -0.198074
H3    H     H_    0.762850 0.483148 0.624129 0.148945
H4    H     H_    0.882716 0.684375 0.146498 0.196795
H5    H     H_    0.970890 0.724018 0.142203 0.157716
H6    H     H_    0.045436 0.793698 0.145422 0.160946
O11   O     O_2   0.204769 0.664475 0.728711 -0.574088
C37   C     C_R   0.103715 0.723721 0.732927 -0.126302
H7    H     H_    0.374762 0.725140 0.587627 0.154451
H8    H     H_    0.289476 0.803887 0.579728 0.168093
H9    H     H_    0.120502 0.701726 0.828159 0.189493
C38   C     C_R   0.946950 0.823440 0.722101 0.118324
C39   C     C_R   0.895221 0.801950 0.720670 -0.149847
O12   O     O_2   0.793280 0.732112 0.719624 -0.552791
C40   C     C_R   0.052870 0.746941 0.731102 -0.171089
H10   H     H_    0.633627 0.692002 0.362462 0.156829
H11   H     H_    0.873708 0.822075 0.811314 0.209351
H12   H     H_    0.719922 0.773568 0.360254 0.159454
H13   H     H_    0.032351 0.733350 0.824023 0.168193
H14   H     H_    0.499163 0.106807 0.285928 0.188046
C41   C     C_R   0.551346 0.134263 0.728338 -0.199004
H15   H     H_    0.568567 0.226392 0.717783 0.169853
C42   C     C_R   0.553305 0.080011 0.854078 -0.137414
H16   H     H_    0.570523 0.132094 0.937232 0.145319
C43   C     C_R   0.530618 0.962568 0.874049 0.228893
C44   C     C_R   0.509641 0.896502 0.763740 -0.191151
H17   H     H_    0.488903 0.811750 0.787019 0.171950
C45   C     C_R   0.512533 0.944926 0.631253 0.080067
C46   C     C_R   0.527486 0.070811 0.618778 0.109993
C47   C     C_R   0.516193 0.130788 0.497999 -0.126543
C48   C     C_R   0.504738 0.062223 0.381162 -0.180272
H18   H     H_    0.488136 0.884849 0.294531 0.179494
C49   C     C_R   0.497508 0.935586 0.386985 -0.202678
C50   C     C_R   0.500608 0.875630 0.510147 -0.114514
H19   H     H_    0.574453 0.568095 0.124435 0.151292
C51   C     C_R   0.412306 0.422879 0.136795 0.192281
C52   C     C_R   0.367310 0.446299 0.073979 -0.224661
H20   H     H_    0.333005 0.435811 0.131881 0.198136
C53   C     C_R   0.366467 0.451447 0.932987 0.075194
C54   C     C_R   0.411591 0.427967 0.863921 0.171163
C55   C     C_R   0.457189 0.461708 0.928305 0.060533
C56   C     C_R   0.457500 0.459641 0.072009 0.081942
N3    N     N_R   0.499540 0.498800 0.142780 -0.103901
C57   C     C_R   0.541072 0.536773 0.071219 -0.108046
H21   H     H_    0.574573 0.567156 0.874679 0.151754
C58   C     C_R   0.541123 0.536291 0.928218 -0.125735
N4    N     N_R   0.499520 0.498720 0.857170 -0.105872
I1    I     I_    0.973680 0.933625 0.890204 -0.394634
I2    I     I_    0.208902 0.386230 0.376246 -0.314817
C59   C     C_3   0.527628 0.909363 0.013484 -0.429835
C60   C     C_3   0.579075 0.873517 0.062714 -0.854242
H22   H     H_    0.595794 0.804186 0.991802 0.262103
H23   H     H_    0.604489 0.957457 0.071441 0.261072
H24   H     H_    0.575233 0.830993 0.163587 0.251192
H25   H     H_    0.511622 0.980241 0.083517 0.210648
H26   H     H_    0.502336 0.824775 0.015688 0.208532
I3    I     I_    0.405415 0.247969 0.232915 -0.349485
C61   C     C_3   0.318347 0.461671 0.853831 -0.371729
C62   C     C_3   0.270406 0.469976 0.938825 -0.717950
H27   H     H_    0.264190 0.383648 0.997821 0.259539
H28   H     H_    0.272311 0.553449 0.007587 0.282287
H29   H     H_    0.237887 0.478436 0.871367 0.287961
H30   H     H_    0.321822 0.547099 0.792576 0.231531
H31   H     H_    0.313532 0.380457 0.783024 0.236877
I4    I     I_    0.407249 0.247210 0.768699 -0.317345
C63   C     C_3   0.672476 0.363471 0.651824 -0.432242
C64   C     C_3   0.662776 0.249561 0.558918 -0.856762
H32   H     H_    0.628790 0.261299 0.497648 0.237054
H33   H     H_    0.695406 0.235463 0.490542 0.275070
H34   H     H_    0.657047 0.164616 0.620332 0.257578
H35   H     H_    0.704239 0.342535 0.718391 0.220889
H36   H     H_    0.639752 0.378481 0.719292 0.214333

loop_
_geom_bond_atom_site_label_1
_geom_bond_atom_site_label_2
_geom_bond_distance
_ccdc_geom_bond_type
C52   H20   1.080772 S    
C60   H22   1.110911 S    
N2    C27   1.369623 A    
H21   C58   1.081271 S    
C12   C15   1.407837 A    
C4    C17   1.461354 S    
C28   C29   1.404487 A    
C41   C46   1.414947 A    
C30   C31   1.385946 A    
C61   C62   1.529892 S    
Zn1   O7    1.937553 S    
C3    C50   1.440655 S    
C59   H25   1.108944 S    
N1    C11   1.430770 S    
C63   H36   1.108982 S    
C22   C23   1.398315 A    
C23   C24   1.406579 A    
C44   C45   1.423638 A    
C64   H33   1.110904 S    
C35   C40   1.409406 A    
O4    C2    1.296832 A    
O7    C4    1.300370 A    
C5    C13   1.401963 A    
C5    O9    1.349731 S    
C63   C64   1.527665 S    
C5    N1    1.367542 A    
C42   H16   1.083219 S    
C61   H31   1.109483 S    
C23   C27   1.401020 A    
H14   C48   1.081241 S    
O5    C3    1.280917 A    
C56   N3    1.379737 A    
C37   C40   1.388876 A    
C38   I1    2.135981 S    
C28   H3    1.083473 S    
C2    C16   1.449382 S    
C51   I3    2.119256 S    
C19   C38   1.422415 A    
C12   C13   1.408888 A    
C37   H9    1.083579 S    
C60   H23   1.110432 S    
O1    Zn1   1.986635 S    
C9    C10   1.395825 A    
C42   C43   1.393941 A    
O3    Zn1   1.945140 S    
C1    C47   1.435024 S    
C48   C49   1.363487 A    
C34   C35   1.419215 A    
C12   C34   1.415785 A    
C39   H11   1.083259 S    
C17   C29   1.414540 A    
C6    C15   1.400154 A    
C21   H5    1.077974 S    
C18   C21   1.413593 A    
C44   H17   1.075203 S    
O3    C2    1.296987 A    
C63   H35   1.111901 S    
C62   H29   1.109286 S    
C55   C56   1.426320 A    
C41   C42   1.389316 A    
C51   C52   1.391912 A    
C8    C16   1.400010 A    
C13   C14   1.398726 A    
C9    H1    1.082072 S    
O6    C3    1.306769 A    
O1    C1    1.289733 A    
C21   C22   1.389823 A    
C18   C20   1.420079 A    
C61   H30   1.108854 S    
C7    C11   1.398226 A    
C43   C44   1.401338 A    
C31   H12   1.083034 S    
C38   C39   1.394112 A    
C14   C36   1.390812 A    
H19   C57   1.081422 S    
C6    O11   1.349104 S    
C49   C50   1.396560 A    
Zn2   O8    1.945136 S    
C33   C36   1.413270 A    
C58   N4    1.367259 A    
N1    C6    1.367179 A    
N2    C32   1.433682 S    
N3    C57   1.366864 A    
C27   O10   1.349878 S    
C54   I4    2.131696 S    
C55   N4    1.378935 A    
C8    H7    1.084327 S    
C57   C58   1.418452 A    
C26   N2    1.368688 A    
C9    C16   1.396434 A    
O8    C4    1.297253 A    
C14   H2    1.083519 S    
C60   H24   1.110671 S    
C52   C53   1.401394 A    
C64   H34   1.110273 S    
C25   C26   1.401975 A    
Zn1   O5    2.003310 S    
C31   C32   1.395003 A    
C10   I2    2.118998 S    
Zn1   N4    2.024339 S    
C20   C24   1.413886 A    
O2    Zn2   2.003307 S    
Zn2   N3    2.024496 S    
C47   C48   1.389061 A    
C15   C37   1.398019 A    
O4    Zn2   1.937556 S    
C7    H8    1.083058 S    
C19   C35   1.415980 A    
C25   C39   1.398598 A    
C59   H26   1.112115 S    
C26   O12   1.349655 S    
C7    C8    1.388715 A    
C62   H28   1.111040 S    
O2    C1    1.296143 A    
C41   H15   1.080465 S    
C51   C56   1.410986 A    
C64   H32   1.109778 S    
C45   C46   1.399168 A    
C54   C55   1.414472 A    
C24   C25   1.406358 A    
C40   H13   1.077865 S    
C53   C61   1.521501 S    
C43   C59   1.507580 S    
C19   C20   1.418154 A    
C18   C33   1.416717 A    
C22   H4    1.083544 S    
C46   C47   1.411077 A    
C45   C50   1.430688 A    
C29   C63   1.513296 S    
Zn2   O6    1.986635 S    
C33   C34   1.417166 A    
C17   C30   1.404321 A    
C30   H10   1.084327 S    
C10   C11   1.410413 A    
C59   C60   1.526325 S    
H18   C49   1.082599 S    
C53   C54   1.407042 A    
C62   H27   1.110714 S    
C28   C32   1.403502 A    
C36   H6    1.078858 S    
