data_mof_unit_31537.cif
_audit_creation_date              2012-12-10T20:27:56-0500
_audit_creation_method            fapswitch 2.2
_symmetry_space_group_name_H-M    P1
_symmetry_Int_Tables_number       1
_space_group_crystal_system       triclinic
_cell_length_a                    12.917261
_cell_length_b                    10.673224
_cell_length_c                    9.866497
_cell_angle_alpha                 90.572935
_cell_angle_beta                  96.753629
_cell_angle_gamma                 89.929711
_cell_volume                      1350.77577734

loop_
_atom_site_label
_atom_site_type_symbol
_atom_type_description
_atom_site_fract_x
_atom_site_fract_y
_atom_site_fract_z
_atom_type_partial_charge
C1    C     C_R   0.496376 0.259588 0.498499 0.897636
C2    C     C_R   0.448149 0.930703 0.374341 -0.364514
C3    C     C_R   0.474352 0.870144 0.498586 -0.164245
C4    C     C_R   0.298778 0.496888 0.473928 0.919777
C5    C     C_R   0.478802 0.937450 0.620150 0.152066
C6    C     C_3   0.554694 0.931369 0.746424 -0.486457
C7    C     C_3   0.556571 0.073348 0.743822 -0.459410
C8    C     C_R   0.445272 0.411350 0.061625 0.216223
C9    C     C_R   0.563048 0.578866 0.081849 0.009044
C10   C     C_R   0.562604 0.578876 0.937816 -0.177926
C11   C     C_R   0.445179 0.411539 0.919227 0.202066
C12   C     C_R   0.028292 0.523292 0.554848 0.067058
C13   C     C_3   0.330623 0.389977 0.894886 -0.558581
C14   C     C_3   0.330654 0.389171 0.048617 -0.434503
C15   C     C_R   0.494830 0.739689 0.499919 0.912451
C16   C     C_R   0.701677 0.498105 0.525810 0.906616
C17   C     C_R   0.813879 0.497061 0.539265 -0.159879
C18   C     C_R   0.188053 0.483502 0.459561 -0.166884
C19   C     C_R   0.030295 0.393564 0.349430 -0.314206
C20   C     C_R   0.138236 0.400761 0.362075 0.488349
C21   C     C_R   0.134240 0.542446 0.556424 -0.317453
C22   C     C_1   0.810973 0.379594 0.317992 0.177742
C23   C     C_R   0.974576 0.452672 0.446179 0.007141
C24   C     C_1   0.630758 0.664766 0.162815 0.232032
C25   C     C_3   0.020015 0.592364 0.893827 0.069008
C26   C     C_3   0.972253 0.689610 0.983170 -0.344797
C27   C     C_3   0.965368 0.640217 0.126432 -0.923567
C28   C     C_3   0.172213 0.197806 0.288813 0.080931
C29   C     C_3   0.189658 0.145528 0.434785 -0.373901
C30   C     C_3   0.176555 0.003418 0.434620 -0.922092
C31   C     C_3   0.501607 0.076972 0.148441 0.073445
C32   C     C_3   0.618519 0.070834 0.201969 -0.365668
C33   C     C_3   0.685974 0.053062 0.086349 -0.911318
C34   C     C_R   0.866645 0.442039 0.436553 -0.043079
C35   C     C_R   0.868033 0.559876 0.650595 -0.335929
C36   C     C_R   0.975778 0.573110 0.659992 0.491341
C37   C     C_R   0.480357 0.064956 0.617821 0.070351
C38   C     C_R   0.478604 0.127477 0.494402 -0.231256
C39   C     C_R   0.454479 0.061030 0.369703 0.497899
H1    H     H_    0.630192 0.887758 0.728414 0.199634
H2    H     H_    0.991117 0.339079 0.265927 0.154761
H3    H     H_    0.176175 0.600987 0.634992 0.208741
H4    H     H_    0.430591 0.876843 0.281088 0.176038
H5    H     H_    0.518661 0.893500 0.834417 0.197500
H6    H     H_    0.099805 0.569260 0.942017 0.162198
H7    H     H_    0.974011 0.503569 0.891015 0.129433
H8    H     H_    0.020849 0.775855 0.990701 0.231020
H9    H     H_    0.892727 0.714644 0.935744 0.214922
H10   H     H_    0.915891 0.554871 0.121570 0.270333
H11   H     H_    0.930020 0.712628 0.188251 0.272166
H12   H     H_    0.521363 0.117835 0.829647 0.197709
H13   H     H_    0.044444 0.617755 0.177289 0.267816
H14   H     H_    0.224574 0.146489 0.226018 0.192602
H15   H     H_    0.091959 0.177417 0.240372 0.123420
H16   H     H_    0.268974 0.170652 0.482484 0.224716
H17   H     H_    0.132659 0.187187 0.498254 0.212434
H18   H     H_    0.095217 0.977638 0.395068 0.263662
H19   H     H_    0.193850 0.968084 0.540351 0.268587
H20   H     H_    0.230642 0.957824 0.369883 0.267176
H21   H     H_    0.491805 0.142241 0.061128 0.160908
H22   H     H_    0.472735 0.984804 0.106731 0.120927
H23   H     H_    0.633177 0.112473 0.724435 0.203513
H24   H     H_    0.641289 0.158293 0.259026 0.249572
H25   H     H_    0.633579 0.991406 0.273424 0.219440
H26   H     H_    0.769156 0.046406 0.129378 0.266728
H27   H     H_    0.663910 0.965365 0.028703 0.263635
H28   H     H_    0.676904 0.134048 0.016176 0.267405
H29   H     H_    0.611402 0.643863 0.890489 0.143505
H30   H     H_    0.287409 0.470801 0.845544 0.229134
H31   H     H_    0.311286 0.297410 0.845766 0.204448
H32   H     H_    0.286958 0.468902 0.087878 0.225966
H33   H     H_    0.312021 0.295534 0.087015 0.248216
H34   H     H_    0.826053 0.604083 0.727002 0.169463
N1    N     N_R   0.499290 0.499140 0.142710 -0.132024
N2    N     N_R   0.499290 0.499180 0.857070 -0.104676
N3    N     N_1   0.767762 0.331804 0.221879 -0.231118
N4    N     N_1   0.685730 0.733871 0.227373 -0.227058
O1    O     O_R   0.500010 0.316790 0.614690 -0.624077
O2    O     O_3   0.197129 0.327219 0.282811 -0.655374
O3    O     O_3   0.439198 0.124640 0.246570 -0.639603
O4    O     O_R   0.500000 0.316760 0.385350 -0.562384
O5    O     O_R   0.346360 0.499990 0.595720 -0.637470
O6    O     O_R   0.346350 0.499960 0.366370 -0.589293
O7    O     O_R   0.500000 0.683240 0.614650 -0.622814
O8    O     O_R   0.499990 0.683210 0.385310 -0.627997
O9    O     O_R   0.653650 0.500040 0.633630 -0.626892
O10   O     O_R   0.653640 0.500010 0.404280 -0.608617
O11   O     O_3   0.029097 0.644450 0.764072 -0.658893
Zn1   Zn    Zn3+2 0.500010 0.500020 0.653130 0.938075
Zn2   Zn    Zn3+2 0.499990 0.499980 0.346870 0.986974

loop_
_geom_bond_atom_site_label_1
_geom_bond_atom_site_label_2
_ccdc_geom_bond_type
C5    C37   A    
C18   C21   A    
C14   H32   S    
C31   H22   S    
C19   C20   A    
C22   N3    T    
C33   H26   S    
C31   O3    S    
C36   O11   S    
C12   C23   A    
C26   C27   S    
C29   C30   S    
O5    Zn1   S    
C28   C29   S    
C5    C6    S    
C13   H31   S    
C1    O4    A    
C30   H18   S    
C28   O2    S    
C2    C39   A    
C35   C36   A    
C16   C17   S    
C16   O10   A    
C12   C36   A    
C9    C10   A    
C27   H11   S    
C26   H9    S    
C15   O8    A    
C4    C18   S    
C6    H5    S    
C13   C14   S    
C16   O9    A    
C1    O1    A    
C33   H27   S    
O1    Zn1   S    
C22   C34   S    
C32   H25   S    
C28   H15   S    
C29   H16   S    
C25   C26   S    
C12   C21   A    
C25   O11   S    
C31   H21   S    
C19   C23   A    
C7    H23   S    
C37   C38   A    
C10   N2    A    
C31   C32   S    
C2    H4    S    
O8    Zn2   S    
C23   C34   A    
C30   H20   S    
C8    N1    A    
C7    C37   S    
C6    C7    S    
C1    C38   S    
O4    Zn2   S    
C26   H8    S    
C6    H1    S    
O7    Zn1   S    
C25   H6    S    
C3    C15   S    
C27   H13   S    
C33   H28   S    
O6    Zn2   S    
C35   H34   S    
C8    C14   S    
C20   O2    S    
C14   H33   S    
C32   H24   S    
C3    C5    A    
O9    Zn1   S    
C28   H14   S    
C9    C24   S    
C15   O7    A    
C29   H17   S    
C10   H29   S    
C39   O3    S    
N1    Zn2   S    
C2    C3    A    
C7    H12   S    
C11   N2    A    
C32   C33   S    
C11   C13   S    
C17   C34   A    
C38   C39   A    
C4    O6    A    
C13   H30   S    
C8    C11   A    
C30   H19   S    
C18   C20   A    
N2    Zn1   S    
C21   H3    S    
C27   H10   S    
C24   N4    T    
C4    O5    A    
C9    N1    A    
O10   Zn2   S    
C17   C35   A    
C25   H7    S    
C19   H2    S    
