data_mof_unit_12361.cif
_audit_creation_date              2012-12-10T17:31:20-0500
_audit_creation_method            fapswitch 2.2
_symmetry_space_group_name_H-M    P1
_symmetry_Int_Tables_number       1
_space_group_crystal_system       triclinic
_cell_length_a                    18.705202
_cell_length_b                    18.629339
_cell_length_c                    12.463795
_cell_angle_alpha                 90.021098
_cell_angle_beta                  130.524529
_cell_angle_gamma                 90.007033
_cell_volume                      3301.38913004

loop_
_atom_site_label
_atom_site_type_symbol
_atom_type_description
_atom_site_fract_x
_atom_site_fract_y
_atom_site_fract_z
_atom_type_partial_charge
C1    C     C_R   0.612923 0.898016 0.652821 0.884072
C2    C     C_R   0.614491 0.100860 0.654864 0.885979
C3    C     C_R   0.112814 0.397911 0.652752 0.882166
C4    C     C_R   0.113472 0.601613 0.653609 0.876566
C5    C     C_R   0.242111 0.776677 0.035694 0.097083
C6    C     C_R   0.242863 0.224184 0.037271 0.099353
C7    C     C_R   0.743835 0.276340 0.035984 0.097102
C8    C     C_R   0.743877 0.725121 0.038647 0.099514
C9    C     C_R   0.653345 0.284074 0.994601 0.163725
C10   C     C_R   0.657136 0.724971 0.010535 0.163262
C11   C     C_R   0.152569 0.782667 0.998006 0.160139
C12   C     C_R   0.157407 0.226147 0.012735 0.167174
C13   C     C_R   0.575037 0.254343 0.867906 -0.237751
C14   C     C_R   0.578146 0.756778 0.887963 -0.232264
C15   C     C_R   0.074231 0.751033 0.874136 -0.241768
C16   C     C_R   0.078519 0.258980 0.891696 -0.239881
C17   C     C_R   0.585430 0.214933 0.784412 -0.174576
C18   C     C_R   0.584685 0.790993 0.795892 -0.162586
C19   C     C_R   0.083549 0.712387 0.788806 -0.169955
C20   C     C_R   0.084161 0.292177 0.797840 -0.163422
C21   C     C_R   0.319060 0.809434 0.161142 -0.250210
C22   C     C_R   0.319905 0.189138 0.158577 -0.253695
C23   C     C_R   0.820366 0.308692 0.162594 -0.250090
C24   C     C_R   0.820707 0.690216 0.160587 -0.240462
C25   C     C_R   0.218506 0.858688 0.201135 -0.197720
C26   C     C_R   0.227030 0.154425 0.222072 -0.201995
C27   C     C_R   0.718408 0.358541 0.199457 -0.207526
C28   C     C_R   0.725695 0.652635 0.218785 -0.199032
C29   C     C_R   0.687061 0.155117 0.750245 -0.202181
C30   C     C_R   0.681468 0.840464 0.742753 -0.200395
C31   C     C_R   0.183183 0.658252 0.745428 -0.202996
C32   C     C_R   0.180247 0.339458 0.741352 -0.204559
C33   C     C_R   0.688259 0.021329 0.297780 -0.300277
C34   C     C_R   0.184745 0.532254 0.294464 -0.300860
C35   C     C_R   0.340500 0.995597 0.623502 -0.053674
C36   C     C_R   0.841346 0.488435 0.623992 -0.040626
C37   C     C_R   0.303591 0.998223 0.691487 0.413439
C38   C     C_R   0.805535 0.480788 0.692798 0.388057
C39   C     C_R   0.384233 0.099344 0.343312 0.769121
C40   C     C_R   0.383107 0.901636 0.341726 0.764846
C41   C     C_R   0.884130 0.599266 0.343183 0.767133
C42   C     C_R   0.883261 0.401463 0.341903 0.765622
C43   C     C_R   0.364630 0.000116 0.838669 -0.239991
C44   C     C_R   0.865207 0.488556 0.839151 -0.242939
C45   C     C_R   0.462849 0.004290 0.920740 -0.128930
C46   C     C_R   0.962125 0.501475 0.920333 -0.122897
C47   C     C_R   0.498668 0.005318 0.846990 0.172926
C48   C     C_R   0.997678 0.506433 0.846505 0.173926
C49   C     C_R   0.526424 0.007171 0.073816 -0.008259
C50   C     C_R   0.025174 0.507896 0.072855 -0.006768
C51   C     C_R   0.622839 0.019694 0.149914 0.103060
C52   C     C_R   0.119441 0.528019 0.146863 0.105591
C53   C     C_R   0.656180 0.027438 0.080344 -0.264651
C54   C     C_R   0.151297 0.539536 0.075628 -0.268978
C55   C     C_R   0.600566 0.013646 0.937085 0.394244
C56   C     C_R   0.098003 0.520264 0.935142 0.395774
C57   C     C_R   0.499964 0.998411 0.157358 0.030985
C58   C     C_R   0.000169 0.495488 0.157569 0.031311
C59   C     C_R   0.658386 0.010002 0.372211 0.066212
C60   C     C_R   0.156913 0.516376 0.370496 0.059717
C61   C     C_R   0.641795 0.323594 0.078424 -0.198275
C62   C     C_R   0.649560 0.690539 0.102982 -0.197267
C63   C     C_R   0.141843 0.822594 0.082282 -0.194000
C64   C     C_R   0.151056 0.192997 0.107457 -0.202991
C65   C     C_R   0.306909 0.852873 0.239110 -0.043191
C66   C     C_R   0.310670 0.150813 0.244860 -0.044839
C67   C     C_R   0.807353 0.352406 0.239332 -0.035187
C68   C     C_R   0.810440 0.650639 0.244577 -0.047707
C69   C     C_R   0.773865 0.153268 0.779383 0.496305
C70   C     C_R   0.763173 0.833727 0.758397 0.464262
C71   C     C_R   0.266496 0.662850 0.765152 0.492855
C72   C     C_R   0.260538 0.330579 0.753776 0.469300
C73   C     C_R   0.342592 0.702074 0.878739 -0.222661
C74   C     C_R   0.333363 0.285994 0.858636 -0.226096
C75   C     C_R   0.850150 0.191830 0.894703 -0.239212
C76   C     C_R   0.837575 0.791479 0.866757 -0.220370
C77   C     C_R   0.336046 0.738850 0.968690 -0.254020
C78   C     C_R   0.328357 0.250443 0.951082 -0.270358
C79   C     C_R   0.841222 0.232625 0.978396 -0.269276
C80   C     C_R   0.832440 0.755679 0.958916 -0.255534
C81   C     C_R   0.754453 0.237494 0.948764 0.098694
C82   C     C_R   0.750517 0.759172 0.943283 0.098919
C83   C     C_R   0.251348 0.739444 0.945690 0.098398
C84   C     C_R   0.248365 0.256906 0.939819 0.100276
C85   C     C_R   0.675113 0.202251 0.827019 0.021934
C86   C     C_R   0.671660 0.797359 0.826616 0.040424
C87   C     C_R   0.172233 0.702708 0.826344 0.030136
C88   C     C_R   0.170342 0.296739 0.825634 0.039815
Cu1   Cu    Cu3+1 0.526340 0.000000 0.421010 0.960503
Cu2   Cu    Cu3+1 0.026340 0.500000 0.421010 0.958753
Cu3   Cu    Cu3+1 0.473640 0.000000 0.578990 0.957024
Cu4   Cu    Cu3+1 0.973640 0.500000 0.578990 0.956422
H1    H     H_    0.207990 0.893298 0.259703 0.149952
H2    H     H_    0.219135 0.125192 0.288952 0.142806
H3    H     H_    0.707407 0.392893 0.257749 0.144640
H4    H     H_    0.716983 0.622261 0.283710 0.154198
H5    H     H_    0.731144 0.037726 0.144013 0.191516
H6    H     H_    0.224771 0.554436 0.136973 0.190286
H7    H     H_    0.762556 0.030228 0.355728 0.131988
H8    H     H_    0.257566 0.546626 0.351088 0.135987
H9    H     H_    0.427706 0.990455 0.110065 0.123321
H10   H     H_    0.928985 0.483002 0.111130 0.123444
H11   H     H_    0.293708 0.990417 0.509870 0.128391
H12   H     H_    0.794352 0.484251 0.510199 0.135359
H13   H     H_    0.332854 0.000048 0.886255 0.155606
H14   H     H_    0.833462 0.484832 0.886582 0.156756
H15   H     H_    0.505190 0.261891 0.832474 0.132825
H16   H     H_    0.510608 0.754615 0.862128 0.128039
H17   H     H_    0.005085 0.756718 0.841962 0.133802
H18   H     H_    0.011887 0.258687 0.868863 0.127512
H19   H     H_    0.572894 0.329856 0.047223 0.141631
H20   H     H_    0.583677 0.690377 0.082384 0.134568
H21   H     H_    0.073515 0.828176 0.053216 0.138873
H22   H     H_    0.086349 0.194618 0.090024 0.128333
H23   H     H_    0.389591 0.804198 0.199476 0.138904
H24   H     H_    0.388029 0.188960 0.187354 0.149446
H25   H     H_    0.891274 0.303357 0.202600 0.139179
H26   H     H_    0.889384 0.690699 0.191299 0.143058
H27   H     H_    0.398085 0.768094 0.052457 0.147342
H28   H     H_    0.387900 0.217126 0.028172 0.151231
H29   H     H_    0.904059 0.260084 0.064827 0.147635
H30   H     H_    0.893557 0.724571 0.039225 0.150145
H31   H     H_    0.408480 0.702669 0.899675 0.131746
H32   H     H_    0.396094 0.280644 0.871352 0.138764
H33   H     H_    0.918703 0.187670 0.924773 0.131710
H34   H     H_    0.901368 0.788079 0.882043 0.137986
H35   H     H_    0.521829 0.195651 0.684477 0.154079
H36   H     H_    0.519848 0.810811 0.698504 0.156004
H37   H     H_    0.019548 0.692304 0.690410 0.157053
H38   H     H_    0.019205 0.312593 0.701511 0.155208
H39   H     H_    0.707955 0.010956 0.486195 0.183038
H40   H     H_    0.206652 0.519902 0.484320 0.187080
N1    N     N_R   0.566260 0.000000 0.302220 -0.190025
N2    N     N_R   0.066260 0.500000 0.302220 -0.190866
N3    N     N_R   0.434410 0.000000 0.697680 -0.215287
N4    N     N_R   0.934410 0.500000 0.697680 -0.217635
O1    O     O_R   0.608610 0.924520 0.551740 -0.545909
O2    O     O_R   0.608610 0.075480 0.551740 -0.553331
O3    O     O_R   0.108610 0.424520 0.551740 -0.543456
O4    O     O_R   0.108610 0.575480 0.551740 -0.554577
O5    O     O_R   0.564110 0.924510 0.685150 -0.529932
O6    O     O_R   0.564110 0.075490 0.685150 -0.539951
O7    O     O_R   0.064110 0.424510 0.685150 -0.528605
O8    O     O_R   0.064110 0.575490 0.685150 -0.542671
O9    O     O_R   0.435880 0.075470 0.314850 -0.586293
O10   O     O_R   0.435880 0.924530 0.314850 -0.588256
O11   O     O_R   0.935880 0.575470 0.314850 -0.587059
O12   O     O_R   0.935880 0.424530 0.314850 -0.588775
O13   O     O_R   0.391380 0.075460 0.448260 -0.600996
O14   O     O_R   0.391380 0.924540 0.448260 -0.599760
O15   O     O_R   0.891380 0.575460 0.448260 -0.596482
O16   O     O_R   0.891380 0.424540 0.448260 -0.604229
O17   O     O_3   0.207880 0.991689 0.616487 -0.613481
C89   C     C_3   0.158861 0.052129 0.528243 0.047642
H41   H     H_    0.086102 0.034417 0.438347 0.180309
H42   H     H_    0.188426 0.073808 0.480863 0.107685
C90   C     C_3   0.153863 0.111685 0.608098 -0.336148
H43   H     H_    0.124512 0.089539 0.655215 0.232114
H44   H     H_    0.225716 0.132445 0.694786 0.211940
C91   C     C_3   0.091795 0.173542 0.509621 -0.940834
H45   H     H_    0.121803 0.198326 0.465434 0.242774
H46   H     H_    0.087353 0.214971 0.568928 0.250557
H47   H     H_    0.019506 0.154114 0.421712 0.262343
O18   O     O_3   0.710211 0.471203 0.616213 -0.609649
C92   C     C_3   0.687508 0.398219 0.577068 0.028329
H48   H     H_    0.727567 0.363262 0.672633 0.146409
H49   H     H_    0.703490 0.382045 0.508466 0.135902
C93   C     C_3   0.582205 0.387613 0.494503 -0.282975
H50   H     H_    0.565378 0.402720 0.562235 0.224697
H51   H     H_    0.541607 0.423191 0.400327 0.231750
C94   C     C_3   0.551969 0.309978 0.446000 -0.955762
H52   H     H_    0.567459 0.293690 0.377218 0.259845
H53   H     H_    0.475120 0.304750 0.384542 0.262797
H54   H     H_    0.588939 0.273577 0.538517 0.247496
Cl1   Cl    Cl    0.682528 0.997881 0.913580 -0.618724
Cl2   Cl    Cl    0.180780 0.497489 0.916507 -0.615850
O19   O     O_3   0.786399 0.106237 0.706209 -0.592927
C95   C     C_3   0.816442 0.142755 0.641645 0.051245
H55   H     H_    0.834105 0.101332 0.598060 0.162368
H56   H     H_    0.882153 0.173765 0.718235 0.123562
C96   C     C_3   0.738933 0.191232 0.520296 -0.402814
H57   H     H_    0.672240 0.160551 0.448037 0.248441
H58   H     H_    0.727322 0.237093 0.564178 0.203064
C97   C     C_3   0.765707 0.220795 0.436572 -0.895875
H59   H     H_    0.830564 0.253869 0.505635 0.251249
H60   H     H_    0.707516 0.254935 0.349853 0.263311
H61   H     H_    0.777198 0.176357 0.389817 0.261949
O20   O     O_3   0.775359 0.874023 0.678023 -0.587388
C98   C     C_3   0.767055 0.829212 0.578476 0.037856
H62   H     H_    0.693363 0.831862 0.476969 0.165339
H63   H     H_    0.784375 0.771635 0.610990 0.121741
C99   C     C_3   0.833437 0.856365 0.555635 -0.332105
H64   H     H_    0.817088 0.913198 0.520800 0.221726
H65   H     H_    0.907092 0.853789 0.656987 0.220679
C100  C     C_3   0.824926 0.811606 0.445155 -0.891265
H66   H     H_    0.843397 0.754733 0.479685 0.250854
H67   H     H_    0.873908 0.832704 0.431120 0.261280
H68   H     H_    0.752087 0.814370 0.342118 0.268129
O21   O     O_3   0.276408 0.623560 0.681069 -0.602172
C101  C     C_3   0.283180 0.670285 0.598203 0.035635
H69   H     H_    0.308282 0.637978 0.553488 0.162074
H70   H     H_    0.336396 0.713433 0.661826 0.127688
C102  C     C_3   0.187248 0.702977 0.475693 -0.366967
H71   H     H_    0.134580 0.659780 0.412266 0.245491
H72   H     H_    0.162478 0.738167 0.517747 0.208667
C103  C     C_3   0.193442 0.747378 0.379507 -0.889234
H73   H     H_    0.245153 0.791576 0.440204 0.260644
H74   H     H_    0.123480 0.770981 0.293426 0.254667
H75   H     H_    0.214970 0.713064 0.331820 0.263905
O22   O     O_3   0.273532 0.371396 0.674858 -0.587210
C104  C     C_3   0.264040 0.327465 0.573442 0.038809
H76   H     H_    0.189032 0.327483 0.474931 0.162337
H77   H     H_    0.286201 0.270604 0.608083 0.119585
C105  C     C_3   0.324599 0.358370 0.542293 -0.327974
H78   H     H_    0.303904 0.414791 0.506423 0.226396
H79   H     H_    0.399619 0.358014 0.640490 0.218873
C106  C     C_3   0.314169 0.315099 0.428863 -0.896891
H80   H     H_    0.338742 0.259134 0.465398 0.251997
H81   H     H_    0.357322 0.339998 0.406776 0.261104
H82   H     H_    0.239568 0.314531 0.329644 0.268424

loop_
_geom_bond_atom_site_label_1
_geom_bond_atom_site_label_2
_ccdc_geom_bond_type
C26   H2    S    
C74   H32   S    
C102  H71   S    
Cu3   O5    S    
C25   H1    S    
C92   H48   S    
C8    C24   A    
C76   H34   S    
C14   C18   A    
C53   C55   A    
C27   H3    S    
C25   C63   A    
C95   C96   S    
C21   H23   S    
C42   O12   A    
C60   H40   S    
Cu3   N3    S    
C95   H55   S    
C16   H18   S    
C32   C72   A    
C80   H30   S    
C96   H57   S    
C58   N2    A    
C106  H82   S    
Cu1   O9    S    
C99   H65   S    
C79   H29   S    
C59   H39   S    
C18   C86   A    
C56   Cl2   S    
C2    C29   S    
C9    C61   A    
C1    C30   S    
O18   C92   S    
C28   C68   A    
C5    C11   A    
C35   H11   S    
C6    C12   A    
Cu2   N2    S    
Cu1   Cu3   S    
C103  H74   S    
C93   H51   S    
C77   C83   A    
Cu3   O13   S    
C6    C22   A    
C49   C57   A    
C97   H59   S    
C48   C56   A    
C43   H13   S    
C23   C67   A    
C98   H63   S    
Cu4   O7    S    
C9    C13   A    
C22   C66   A    
C26   C64   A    
C27   C61   A    
C6    C84   A    
C18   H36   S    
C11   C15   A    
C90   H43   S    
C72   O22   S    
C12   C16   A    
C44   C46   A    
C101  H69   S    
C49   C51   A    
Cu4   O16   S    
C50   C52   A    
C58   H10   S    
C70   O20   S    
C30   C86   A    
C42   O16   A    
C29   C85   A    
C13   H15   S    
C100  H68   S    
C21   C65   A    
C22   H24   S    
O21   C101  S    
C92   H49   S    
C34   C60   A    
C57   N1    A    
C10   C62   A    
C17   C85   A    
C36   N4    A    
C30   C70   A    
C52   C54   A    
C46   C50   A    
Cu2   O3    S    
C41   C68   S    
C46   C48   A    
C45   C47   A    
Cu1   O10   S    
C94   H54   S    
C54   C56   A    
Cu1   N1    S    
C28   C62   A    
C40   O14   A    
C26   C66   A    
C99   C100  S    
C37   O17   S    
C102  C103  S    
C3    O7    A    
C89   C90   S    
C72   C74   A    
C10   C14   A    
C96   H58   S    
C35   N3    A    
C79   C81   A    
C103  H73   S    
C17   H35   S    
C53   H5    S    
C106  H80   S    
C82   C86   A    
C59   N1    A    
C33   C51   A    
C100  H66   S    
O20   C98   S    
C33   H7    S    
C2    O2    A    
C23   H25   S    
C37   C43   A    
C98   C99   S    
C15   C19   A    
C91   H47   S    
C38   C44   A    
Cu2   O11   S    
C78   C84   A    
C4    O4    A    
C102  H72   S    
C34   H8    S    
C104  H76   S    
C41   O11   A    
C45   C49   A    
C16   C20   A    
C39   O9    A    
Cu4   O15   S    
C50   C58   A    
C5    C21   A    
C3    C32   S    
Cu4   N4    S    
C43   C45   A    
C94   H52   S    
C55   Cl1   S    
C89   H41   S    
O19   C95   S    
C8    C10   A    
C93   H50   S    
C7    C81   A    
O22   C104  S    
C92   C93   S    
Cu1   O1    S    
C40   C65   S    
C70   C76   A    
C42   C67   S    
C2    O6    A    
C39   C66   S    
C104  H77   S    
C31   C87   A    
C3    O3    A    
Cu2   O12   S    
C90   H44   S    
C61   H19   S    
C60   N2    A    
C1    O1    A    
C35   C37   A    
C47   C55   A    
C96   C97   S    
C19   H37   S    
C7    C9    A    
C12   C64   A    
C78   H28   S    
C47   N3    A    
C105  H78   S    
C89   H42   S    
C48   N4    A    
C54   H6    S    
C76   C80   A    
C20   H38   S    
C77   H27   S    
C105  C106  S    
C83   C87   A    
C4    O8    A    
Cu3   O14   S    
C95   H56   S    
C5    C83   A    
C71   O21   S    
C41   O15   A    
C44   H14   S    
C90   C91   S    
C106  H81   S    
C57   H9    S    
C39   O13   A    
C34   C52   A    
C97   H61   S    
C40   O10   A    
C28   H4    S    
C91   H45   S    
Cu3   O6    S    
C36   C38   A    
C19   C87   A    
C73   H31   S    
C99   H64   S    
C69   O19   S    
C103  H75   S    
C15   H17   S    
C36   H12   S    
C84   C88   A    
C101  C102  S    
C7    C23   A    
C20   C88   A    
C14   H16   S    
C24   H26   S    
Cu2   Cu4   S    
C80   C82   A    
C97   H60   S    
C69   C75   A    
C105  H79   S    
C98   H62   S    
Cu4   O8    S    
C1    O5    A    
C4    C31   S    
C27   C67   A    
C24   C68   A    
C51   C53   A    
C13   C17   A    
C63   H21   S    
C94   H53   S    
C8    C82   A    
C104  C105  S    
C62   H20   S    
C38   O18   S    
C64   H22   S    
C33   C59   A    
Cu1   O2    S    
C74   C78   A    
C71   C73   A    
C25   C65   A    
C73   C77   A    
C29   C69   A    
Cu2   O4    S    
C93   C94   S    
C75   H33   S    
O17   C89   S    
C11   C63   A    
C75   C79   A    
C101  H70   S    
C81   C85   A    
C91   H46   S    
C31   C71   A    
C100  H67   S    
C32   C88   A    
