data_mof_unit_8838.cif
_audit_creation_date              2012-12-11T18:04:37-0500
_audit_creation_method            fapswitch 2.2
_symmetry_space_group_name_H-M    P1
_symmetry_Int_Tables_number       1
_space_group_crystal_system       triclinic
_cell_length_a                    8.235297
_cell_length_b                    12.680516
_cell_length_c                    22.828873
_cell_angle_alpha                 96.745936
_cell_angle_beta                  89.485491
_cell_angle_gamma                 98.49093
_cell_volume                      2341.43051643

loop_
_atom_site_label
_atom_site_type_symbol
_atom_type_description
_atom_site_fract_x
_atom_site_fract_y
_atom_site_fract_z
_atom_type_partial_charge
Ba1   Ba    Ba6+2 0.856210 0.551220 0.472190 1.642082
Ba2   Ba    Ba6+2 0.333620 0.448870 0.527810 1.641804
C1    C     C_3   0.605857 0.918242 0.300406 -0.385728
C2    C     C_3   0.639817 0.827277 0.334176 0.338462
C3    C     C_3   0.475101 0.288856 0.349292 0.293567
C4    C     C_3   0.454731 0.256855 0.283164 -0.365354
C5    C     C_3   0.057098 0.220029 0.690758 0.273651
C6    C     C_3   0.111880 0.201609 0.751697 -0.298339
C7    C     C_3   0.544408 0.180068 0.664293 0.350303
C8    C     C_3   0.518587 0.071769 0.688282 -0.001358
C9    C     C_R   0.343896 0.524712 0.331990 -0.303352
C10   C     C_R   0.111968 0.593015 0.940185 -0.028238
C11   C     C_R   0.065979 0.590171 0.880244 0.593637
C12   C     C_3   0.127898 0.778332 0.310733 0.317970
C13   C     C_R   0.933584 0.408072 0.879260 0.580563
C14   C     C_R   0.979746 0.407990 0.938942 -0.027709
C15   C     C_R   0.068756 0.501242 0.969586 -0.049962
C16   C     C_R   0.199393 0.685952 0.971608 -0.070553
C17   C     C_R   0.242610 0.687843 0.030891 -0.072188
C18   C     C_R   0.200933 0.596629 0.060797 -0.019857
C19   C     C_R   0.114230 0.502889 0.029950 -0.050346
C20   C     C_R   0.938845 0.316646 0.968779 -0.065800
C21   C     C_R   0.985422 0.317852 0.027734 -0.071600
C22   C     C_R   0.073160 0.410780 0.059175 -0.027228
C23   C     C_3   0.100785 0.807312 0.249189 -0.307352
C24   C     C_R   0.121469 0.413261 0.118937 0.593198
C25   C     C_R   0.243837 0.597619 0.120837 0.574748
C26   C     C_2   0.768964 0.472196 0.771543 -0.058021
C27   C     C_3   0.719689 0.480544 0.708453 -0.057865
C28   C     C_1   0.007319 0.523527 0.685726 0.041534
C29   C     C_2   0.053793 0.527479 0.741956 -0.106481
C30   C     C_2   0.929135 0.497607 0.788493 0.198767
C31   C     C_R   0.413461 0.553341 0.231210 -0.097142
C32   C     C_R   0.457240 0.561971 0.291006 -0.016448
C33   C     C_R   0.187954 0.474493 0.314246 0.030755
C34   C     C_3   0.239924 0.778124 0.597774 0.278086
C35   C     C_R   0.140484 0.467842 0.254354 -0.099436
C36   C     C_R   0.252411 0.509011 0.211853 0.200050
C37   C     C_2   0.863017 0.471843 0.667555 -0.282686
C38   C     C_R   0.759611 0.180339 0.524117 -0.284535
C39   C     C_R   0.433172 0.809954 0.474601 -0.292237
C40   C     C_R   0.406610 0.989243 0.455510 -0.099356
C41   C     C_R   0.343718 0.881026 0.452053 -0.000372
C42   C     C_R   0.578072 0.847455 0.506467 0.063496
C43   C     C_R   0.640164 0.959158 0.513571 -0.062412
C44   C     C_R   0.554598 0.030080 0.486164 -0.066477
C45   C     C_3   0.214706 0.895024 0.602875 -0.334202
C46   C     C_R   0.617038 0.140524 0.491539 0.043636
C47   C     C_R   0.848223 0.111769 0.549124 -0.005558
C48   C     C_R   0.785620 0.002378 0.546104 -0.077943
C49   C     C_3   0.969956 0.221998 0.404915 0.278707
C50   C     C_3   0.959054 0.101001 0.391433 -0.339260
C51   C     C_3   0.730268 0.704472 0.649158 0.290475
C52   C     C_3   0.782512 0.752333 0.711667 -0.336512
H1    H     H_    0.725027 0.860374 0.371538 0.067438
H2    H     H_    0.219822 0.929913 0.649702 0.140408
H3    H     H_    0.092697 0.900748 0.585004 0.133985
H4    H     H_    0.847641 0.242708 0.416538 0.001172
H5    H     H_    0.874613 0.071779 0.353618 0.116530
H6    H     H_    0.912240 0.061048 0.430017 0.085545
H7    H     H_    0.082540 0.079738 0.380242 0.143789
H8    H     H_    0.836792 0.675362 0.626220 0.032789
H9    H     H_    0.628587 0.636939 0.650711 0.032540
H10   H     H_    0.558767 0.981412 0.330930 0.094543
H11   H     H_    0.878438 0.823452 0.710244 0.159830
H12   H     H_    0.833711 0.693285 0.735354 0.067361
H13   H     H_    0.675247 0.777484 0.736431 0.145451
H14   H     H_    0.520735 0.792068 0.352162 -0.054138
H15   H     H_    0.512407 0.887158 0.265424 0.135617
H16   H     H_    0.357162 0.310443 0.367116 0.022238
H17   H     H_    0.572953 0.359487 0.356946 0.056209
H18   H     H_    0.355580 0.187308 0.274280 0.138696
H19   H     H_    0.422026 0.324777 0.261520 0.070065
H20   H     H_    0.571317 0.234578 0.264155 0.131035
H21   H     H_    0.719969 0.953683 0.279436 0.132223
H22   H     H_    0.091229 0.734085 0.217003 0.119364
H23   H     H_    0.119906 0.299799 0.681701 0.087474
H24   H     H_    0.246518 0.203405 0.753052 0.153989
H25   H     H_    0.079602 0.265933 0.784912 0.126670
H26   H     H_    0.052280 0.122429 0.763057 0.160975
H27   H     H_    0.669477 0.194493 0.645776 -0.062054
H28   H     H_    0.451418 0.175763 0.628708 0.053599
H29   H     H_    0.539021 0.007461 0.652782 0.030339
H30   H     H_    0.038657 0.706381 0.317316 0.103576
H31   H     H_    0.391333 0.055889 0.704667 0.094741
H32   H     H_    0.951632 0.245559 0.048738 0.127269
H33   H     H_    0.870875 0.243470 0.946525 0.139080
H34   H     H_    0.309399 0.761327 0.053255 0.126764
H35   H     H_    0.504518 0.581898 0.200019 0.117940
H36   H     H_    0.674288 0.454628 0.803859 0.110105
H37   H     H_    0.017333 0.431030 0.241139 0.130290
H38   H     H_    0.379950 0.530742 0.377872 0.080509
H39   H     H_    0.254633 0.759199 0.313856 -0.043333
H40   H     H_    0.851296 0.417510 0.626826 0.065178
H41   H     H_    0.335105 0.040436 0.435564 0.105641
H42   H     H_    0.853148 0.952504 0.568327 0.105456
H43   H     H_    0.807819 0.264937 0.526809 0.062185
H44   H     H_    0.383924 0.725443 0.470648 0.069104
H45   H     H_    0.985037 0.841939 0.247261 0.150562
H46   H     H_    0.204489 0.867021 0.237114 0.119128
H47   H     H_    0.372148 0.774226 0.600763 0.028778
H48   H     H_    0.190089 0.738811 0.554260 0.046910
N1    N     N_R   0.977979 0.498259 0.850151 -0.429515
N2    N     N_R   0.204232 0.506569 0.149814 -0.423283
O1    O     O_2   0.890290 0.440320 0.360790 -0.458719
O2    O     O_3   0.675513 0.784718 0.621103 -0.636506
O3    O     O_3   0.102967 0.865072 0.352236 -0.610015
O4    O     O_2   0.299410 0.559720 0.639240 -0.466780
O5    O     O_3   0.058870 0.558650 0.568170 -0.489949
O6    O     O_3   0.517310 0.362160 0.604450 -0.479036
O7    O     O_3   0.162410 0.731734 0.645233 -0.626918
O8    O     O_3   0.614910 0.369290 0.471050 -0.476768
O9    O     O_3   0.099190 0.306290 0.575790 -0.490874
O10   O     O_2   0.184247 0.115806 0.539412 -0.480550
O11   O     O_3   0.098358 0.137771 0.649129 -0.608586
O12   O     O_3   0.130840 0.441440 0.431840 -0.495941
O13   O     O_3   0.574800 0.630800 0.528960 -0.487269
O14   O     O_2   0.344900 0.234690 0.472540 -0.465594
O15   O     O_3   0.518003 0.201926 0.375277 -0.649003
O16   O     O_2   0.378052 0.426422 0.704788 -0.500223
O17   O     O_3   0.523751 0.261122 0.709989 -0.580593
O18   O     O_2   0.102085 0.670335 0.855182 -0.585191
O19   O     O_2   0.854307 0.327456 0.853179 -0.568270
O20   O     O_2   0.092013 0.331548 0.143038 -0.595230
O21   O     O_2   0.315803 0.680354 0.147366 -0.614683
O22   O     O_3   0.672400 0.637930 0.395560 -0.479765
O23   O     O_2   0.796271 0.561249 0.292636 -0.501348
O24   O     O_3   0.023321 0.268334 0.354295 -0.626419
O25   O     O_3   0.713551 0.752893 0.296056 -0.594325
O26   O     O_2   0.844800 0.765340 0.527490 -0.468148
O27   O     O_3   0.090520 0.693800 0.424220 -0.491813
O28   O     O_2   0.009195 0.884884 0.461699 -0.483421
P1    P     P_3+3 0.057140 0.408270 0.369700 0.993638
P2    P     P_3+3 0.667360 0.749400 0.544670 0.973393
P3    P     P_3+3 0.136575 0.832007 0.422948 0.944644
P4    P     P_3+3 0.132580 0.591820 0.630310 0.996539
P5    P     P_3+3 0.055663 0.167165 0.578334 0.936267
P6    P     P_3+3 0.660868 0.625146 0.318414 0.959187
P7    P     P_3+3 0.526994 0.235253 0.451855 0.935680
P8    P     P_3+3 0.535902 0.384286 0.681412 0.971416
H49   H     H_    0.309858 0.941899 0.577859 0.065800
H50   H     H_    0.056061 0.249087 0.442574 0.079855
H51   H     H_    0.922616 0.220451 0.690937 0.030286
I1    I     I_    0.677673 0.066209 0.760733 -0.411107
H52   H     H_    0.234419 0.757979 0.950476 0.131688
H53   H     H_    0.181595 0.552208 0.754560 0.130307

loop_
_geom_bond_atom_site_label_1
_geom_bond_atom_site_label_2
_ccdc_geom_bond_type
C8    H31   S    
O14   P7    D    
C47   P5    S    
C51   H9    S    
C25   N2    Am   
C17   C18   A    
C12   H30   S    
C16   H52   S    
C33   P1    S    
C5    H51   S    
Ba2   O14   S    
C5    C6    S    
Ba2   O5    S    
C52   H11   S    
C51   C52   S    
C4    H18   S    
Ba2   O8    S    
C35   C36   A    
C13   O19   D    
C3    O15   S    
C49   O24   S    
O17   P8    S    
C26   C27   S    
C1    H15   S    
C22   C24   A    
O4    P4    D    
O27   P3    S    
C50   H7    S    
Ba1   O8    S    
C28   C29   D    
Ba2   O9    S    
O7    P4    S    
C13   C14   A    
C8    H29   S    
C34   C45   S    
C34   H48   S    
Ba1   Ba2   S    
C40   C44   A    
O10   P5    D    
C5    O11   S    
O3    P3    S    
C50   H6    S    
Ba1   O5    S    
C29   H53   S    
Ba2   O12   S    
C51   O2    S    
C23   H45   S    
O22   P6    S    
O25   P6    S    
O11   P5    S    
C14   C15   A    
C21   H32   S    
C10   C15   A    
C6    H25   S    
C36   N2    S    
C21   C22   A    
O16   P8    D    
O23   P6    D    
C11   N1    Am   
C1    H21   S    
C7    C8    S    
C12   H39   S    
C7    H28   S    
C5    H23   S    
C24   N2    Am   
O5    P4    S    
C6    H24   S    
C39   C41   A    
O8    P7    S    
O26   P2    D    
C24   O20   D    
Ba1   P1    S    
O13   P2    S    
C9    H38   S    
Ba2   O4    S    
Ba2   O13   S    
C4    H20   S    
C7    H27   S    
C42   P2    S    
C44   C46   A    
C35   H37   S    
C49   C50   S    
C26   C30   D    
Ba1   O22   S    
Ba1   O26   S    
C38   H43   S    
C2    H14   S    
C16   C17   A    
C8    I1    S    
O12   P1    S    
C1    H10   S    
C32   P6    S    
Ba2   P4    S    
C40   H41   S    
C34   H47   S    
C37   H40   S    
C3    H16   S    
C50   H5    S    
C31   H35   S    
C45   H3    S    
C51   H8    S    
C23   H46   S    
C7    O17   S    
C29   C30   S    
C27   C37   S    
C34   O7    S    
C31   C32   A    
C30   N1    S    
C49   H4    S    
Ba1   O13   S    
C20   H33   S    
C10   C11   A    
C41   P3    S    
C52   H12   S    
C12   O3    S    
Ba1   O12   S    
C17   H34   S    
C28   P4    S    
C2    H1    S    
C39   C42   A    
O9    P5    S    
C40   C41   A    
C1    C2    S    
Ba1   P2    S    
C42   C43   A    
C4    H19   S    
O1    P1    D    
C49   H50   S    
C38   C46   A    
C27   P8    S    
Ba2   O6    S    
C14   C20   A    
C46   P7    S    
C33   C35   A    
C20   C21   A    
C9    C32   A    
Ba1   O27   S    
C2    O25   S    
C52   H13   S    
C18   C25   A    
C45   H49   S    
C31   C36   A    
C23   H22   S    
O15   P7    S    
O6    P8    S    
C3    H17   S    
O24   P1    S    
C11   O18   D    
C25   O21   D    
C48   H42   S    
C3    C4    S    
C43   C48   A    
O28   P3    D    
C9    C33   A    
C28   C37   D    
C12   C23   S    
C15   C19   A    
C43   C44   A    
O2    P2    S    
C18   C19   A    
C47   C48   A    
C19   C22   A    
C10   C16   A    
C6    H26   S    
C39   H44   S    
C26   H36   S    
C13   N1    Am   
C38   C47   A    
Ba1   O1    S    
C45   H2    S    
