data_mof_unit_50044.cif
_audit_creation_date              2012-12-10T19:04:15-0500
_audit_creation_method            fapswitch 2.2
_symmetry_space_group_name_H-M    P1
_symmetry_Int_Tables_number       1
_space_group_crystal_system       triclinic
_cell_length_a                    10.716987
_cell_length_b                    10.850123
_cell_length_c                    9.623637
_cell_angle_alpha                 91.026409
_cell_angle_beta                  91.015809
_cell_angle_gamma                 91.721636
_cell_volume                      1118.17109753

loop_
_atom_site_label
_atom_site_type_symbol
_atom_type_description
_atom_site_fract_x
_atom_site_fract_y
_atom_site_fract_z
_atom_type_partial_charge
C1    C     C_R   0.497642 0.262726 0.499053 0.872416
C2    C     C_3   0.955724 0.520991 0.367188 -0.225189
C3    C     C_3   0.034738 0.412714 0.414730 0.360590
C4    C     C_3   0.123196 0.501652 0.496489 -0.069920
C5    C     C_R   0.507060 0.066906 0.621174 0.026505
C6    C     C_R   0.485301 0.129639 0.499146 -0.166096
C7    C     C_R   0.440466 0.061729 0.382213 -0.251409
C8    C     C_R   0.428210 0.932684 0.385683 0.401636
C9    C     C_R   0.476137 0.869723 0.503005 -0.181586
C10   C     C_R   0.507276 0.940781 0.621924 -0.138561
C11   C     C_3   0.603798 0.942797 0.738529 0.200661
C12   C     C_R   0.259682 0.499781 0.498843 0.821221
C13   C     C_3   0.601755 0.084729 0.735973 0.753915
C14   C     C_R   0.601510 0.540950 0.075829 -0.013564
C15   C     C_R   0.405837 0.442304 0.072755 0.536554
C16   C     C_R   0.405489 0.443247 0.923612 0.439266
C17   C     C_R   0.605025 0.533833 0.929670 -0.011278
C18   C     C_3   0.678463 0.653469 0.928324 0.304750
C19   C     C_3   0.668407 0.663263 0.086455 0.252885
C20   C     C_R   0.493084 0.737034 0.500906 0.781049
C21   C     C_R   0.740359 0.502222 0.500590 0.872086
C22   C     C_3   0.042682 0.485796 0.624930 0.345185
C23   C     C_3   0.955695 0.396201 0.543376 0.250472
C24   C     C_3   0.876957 0.504400 0.499652 -0.119945
C25   C     C_3   0.964045 0.596187 0.582735 -0.205773
C26   C     C_3   0.045163 0.611938 0.450980 -0.284767
Cu1   Cu    Cu3+1 0.499990 0.499980 0.640670 1.021456
Cu2   Cu    Cu3+1 0.500010 0.500020 0.359330 1.013451
H1    H     H_    0.626017 0.723104 0.871978 0.164109
H2    H     H_    0.757177 0.659529 0.148177 0.089715
H3    H     H_    0.934357 0.672084 0.652143 0.217690
H4    H     H_    0.084157 0.700675 0.412551 0.164411
H5    H     H_    0.919436 0.534445 0.260180 0.152835
H6    H     H_    0.414784 0.108018 0.288241 0.167061
H7    H     H_    0.562485 0.908221 0.835812 0.118091
N1    N     N_R   0.500800 0.500930 0.147930 -0.223750
N2    N     N_R   0.500800 0.500890 0.852020 -0.253559
O1    O     O_R   0.500000 0.319640 0.618810 -0.568485
O2    O     O_R   0.500010 0.319680 0.381230 -0.592792
O3    O     O_R   0.316850 0.499950 0.618770 -0.545561
O4    O     O_R   0.316860 0.499990 0.381190 -0.521834
O5    O     O_R   0.499990 0.680320 0.618770 -0.575948
O6    O     O_R   0.500000 0.680360 0.381190 -0.531516
O7    O     O_R   0.683140 0.500010 0.618810 -0.539854
O8    O     O_R   0.683150 0.500050 0.381230 -0.612251
O9    O     O_3   0.908126 0.283697 0.590563 -0.713900
H8    H     H_    0.981102 0.230259 0.599849 0.321541
O10   O     O_3   0.723245 0.891879 0.714686 -0.576344
C27   C     C_3   0.763855 0.894371 0.575546 -0.241063
H9    H     H_    0.730840 0.973996 0.515710 0.176304
H10   H     H_    0.736217 0.806643 0.521128 0.148895
H11   H     H_    0.867347 0.900732 0.576980 0.176422
O11   O     O_3   0.546992 0.140556 0.853665 -0.604383
C28   C     C_3   0.637302 0.167083 0.959331 -0.359691
H12   H     H_    0.692758 0.251800 0.934442 0.201463
H13   H     H_    0.700072 0.088919 0.976653 0.141945
H14   H     H_    0.589063 0.185235 0.058225 0.173080
O12   O     O_3   0.710090 0.146543 0.689356 -0.697286
H15   H     H_    0.781162 0.118883 0.747061 0.340052
O13   O     O_3   0.306100 0.391014 0.143640 -0.521541
C29   C     C_3   0.285235 0.265141 0.107569 -0.170496
H16   H     H_    0.253221 0.216098 0.200888 0.198587
H17   H     H_    0.369826 0.218613 0.070070 0.126660
H18   H     H_    0.208284 0.254724 0.029193 0.198417
O14   O     O_3   0.307157 0.385327 0.854452 -0.701180
H19   H     H_    0.342058 0.335172 0.779156 0.359955
O15   O     O_3   0.803613 0.648598 0.881922 -0.574141
C30   C     C_3   0.867053 0.541964 0.922551 -0.255754
H20   H     H_    0.853402 0.468580 0.841494 0.217360
H21   H     H_    0.839363 0.504024 0.023918 0.095633
H22   H     H_    0.967458 0.567379 0.934429 0.243780
O16   O     O_3   0.588433 0.758015 0.126409 -0.523786
C31   C     C_3   0.660685 0.867166 0.151636 -0.269556
H23   H     H_    0.726881 0.886439 0.066219 0.149173
H24   H     H_    0.712488 0.861934 0.252340 0.141436
H25   H     H_    0.597488 0.945920 0.158213 0.208402
O17   O     O_3   0.090977 0.468177 0.758443 -0.684676
H26   H     H_    0.070818 0.381204 0.781149 0.336317
O18   O     O_3   0.072772 0.316318 0.328967 -0.727439
H27   H     H_    0.994864 0.279173 0.287302 0.322507
O19   O     O_3   0.371637 0.872970 0.272554 -0.683989
H28   H     H_    0.328087 0.797521 0.305621 0.332922

loop_
_geom_bond_atom_site_label_1
_geom_bond_atom_site_label_2
_ccdc_geom_bond_type
C25   H3    S    
C26   H4    S    
C31   H23   S    
C3    C23   S    
C3    O18   S    
O19   H28   S    
C11   O10   S    
C7    C8    A    
O17   H26   S    
C14   N1    A    
C5    C6    A    
Cu1   O1    S    
C15   C16   A    
Cu2   O4    S    
C18   C19   S    
C15   O13   S    
C8    O19   S    
C29   H17   S    
O9    H8    S    
Cu1   O7    S    
C8    C9    A    
C27   H10   S    
C22   C25   S    
C23   C24   S    
C4    C12   S    
C9    C10   A    
C13   O11   S    
C16   N2    A    
C23   O9    S    
C31   H24   S    
C14   C17   A    
C19   O16   S    
C25   C26   S    
C21   O8    A    
C28   H13   S    
Cu2   O8    S    
O15   C30   S    
C24   C25   S    
C30   H20   S    
C13   O12   S    
Cu2   O2    S    
O12   H15   S    
O11   C28   S    
C1    C6    S    
O13   C29   S    
C12   O3    A    
C29   H18   S    
C12   O4    A    
C21   O7    A    
C4    C22   S    
C9    C20   S    
C4    C26   S    
Cu1   O3    S    
C27   H11   S    
C17   C18   S    
C2    C26   S    
C18   H1    S    
C17   N2    A    
C1    O1    A    
C2    H5    S    
O10   C27   S    
O14   H19   S    
C2    C24   S    
C31   H25   S    
C3    C4    S    
C15   N1    A    
C20   O6    A    
C28   H12   S    
C5    C13   S    
C14   C19   S    
C22   O17   S    
O16   C31   S    
C20   O5    A    
C6    C7    A    
Cu2   O6    S    
C11   H7    S    
C2    C3    S    
C18   O15   S    
C5    C10   A    
C11   C13   S    
Cu1   O5    S    
Cu1   N2    S    
C30   H22   S    
C7    H6    S    
C29   H16   S    
C10   C11   S    
C1    O2    A    
O18   H27   S    
Cu2   N1    S    
C30   H21   S    
C27   H9    S    
C21   C24   S    
Cu1   Cu2   S    
C22   C23   S    
C16   O14   S    
C19   H2    S    
C28   H14   S    
