data_mof_unit_9006.cif
_audit_creation_date              2012-12-10T17:31:13-0500
_audit_creation_method            fapswitch 2.2
_symmetry_space_group_name_H-M    P1
_symmetry_Int_Tables_number       1
_space_group_crystal_system       triclinic
_cell_length_a                    11.989895
_cell_length_b                    12.818242
_cell_length_c                    15.404901
_cell_angle_alpha                 86.672434
_cell_angle_beta                  116.041362
_cell_angle_gamma                 93.757968
_cell_volume                      2121.50226379

loop_
_atom_site_label
_atom_site_type_symbol
_atom_type_description
_atom_site_fract_x
_atom_site_fract_y
_atom_site_fract_z
_atom_type_partial_charge
C1    C     C_R   0.477832 0.299732 0.500352 0.986046
C2    C     C_R   0.666323 0.967449 0.554079 -0.030776
C3    C     C_R   0.361150 0.154363 0.406315 -0.241612
C4    C     C_R   0.652505 0.860398 0.540983 -0.170866
C5    C     C_R   0.555784 0.124687 0.549836 -0.084099
C6    C     C_R   0.431197 0.874331 0.435646 -0.071092
C7    C     C_R   0.558195 0.026292 0.515601 -0.032482
C8    C     C_R   0.446735 0.983657 0.441282 0.061957
C9    C     C_R   0.995587 0.588257 0.396866 0.024088
C10   C     C_R   0.004038 0.411250 0.602627 0.015068
C11   C     C_R   0.119400 0.580154 0.410107 0.043179
C12   C     C_R   0.521188 0.700967 0.497177 0.869637
C13   C     C_R   0.879970 0.418880 0.589096 -0.007875
C14   C     C_R   0.165062 0.464005 0.545203 -0.081295
C15   C     C_R   0.834719 0.535718 0.454533 -0.103871
C16   C     C_R   0.577337 0.496560 0.680959 0.945843
C17   C     C_R   0.422974 0.505756 0.319280 0.858198
C18   C     C_R   0.042688 0.468111 0.537361 0.020085
C19   C     C_R   0.956973 0.531340 0.462122 -0.003377
C20   C     C_R   0.628603 0.502805 0.785923 -0.103796
C21   C     C_R   0.377496 0.529363 0.216357 -0.037572
C22   C     C_R   0.799406 0.493629 0.947144 -0.003359
C23   C     C_R   0.648215 0.491196 0.116644 -0.231842
C24   C     C_R   0.272392 0.651009 0.082529 0.023841
C25   C     C_R   0.754324 0.489932 0.846385 -0.143770
C26   C     C_R   0.288031 0.603565 0.170979 -0.265964
C27   C     C_R   0.550361 0.529480 0.824896 -0.254548
C28   C     C_R   0.447888 0.498677 0.172375 -0.240839
C29   C     C_R   0.591934 0.535459 0.924372 0.090366
C30   C     C_R   0.440825 0.548716 0.087391 0.049926
C31   C     C_R   0.713351 0.502454 0.987463 0.009913
C32   C     C_R   0.340765 0.615718 0.034317 0.129156
C33   C     C_R   0.509394 0.564470 0.960816 0.040662
C34   C     C_R   0.403721 0.622592 0.904254 -0.266045
C35   C     C_R   0.532463 0.533501 0.055308 0.038894
C36   C     C_3   0.855298 0.415789 0.152509 -0.411690
C37   C     C_3   0.844747 0.346480 0.233980 -0.383240
C38   C     C_3   0.959488 0.281709 0.287153 -0.780019
C39   C     C_3   0.194681 0.690321 0.863912 -0.333103
C40   C     C_3   0.129418 0.628053 0.771063 -0.419216
C41   C     C_3   0.005640 0.675174 0.703802 -0.786437
C42   C     C_3   0.904008 0.655659 0.314605 -0.423303
C43   C     C_3   0.949691 0.707130 0.242605 -0.366640
C44   C     C_3   0.845519 0.763106 0.159038 -0.816717
C45   C     C_R   0.739179 0.474234 0.085184 0.074965
C46   C     C_3   0.095894 0.345132 0.685837 -0.468765
C47   C     C_3   0.048002 0.293798 0.756564 -0.354940
C48   C     C_3   0.149978 0.234826 0.839184 -0.748787
C49   C     C_2   0.936206 0.502411 0.005204 0.343614
C50   C     C_2   0.206978 0.750464 0.057766 0.314792
C51   C     C_2   0.305656 0.823371 0.385065 0.374932
C52   C     C_2   0.640593 0.151895 0.652245 0.346203
C53   C     C_2   0.258583 0.023175 0.281499 0.471753
C54   C     C_2   0.793668 0.017283 0.599338 0.368216
C55   C     C_R   0.315863 0.644098 0.937097 0.108908
C56   C     C_R   0.534549 0.813482 0.489938 -0.161943
C57   C     C_R   0.459614 0.189445 0.490649 -0.088935
C58   C     C_R   0.353211 0.051721 0.379774 0.027789
H1    H     H_    0.846209 0.377287 0.636371 0.152753
H2    H     H_    0.294330 0.209362 0.358326 0.184872
H3    H     H_    0.766900 0.584228 0.399539 0.144188
H4    H     H_    0.232904 0.415692 0.600410 0.143925
H5    H     H_    0.969193 0.228208 0.236919 0.289502
H6    H     H_    0.044451 0.333858 0.319066 0.258422
H7    H     H_    0.950351 0.234073 0.346435 0.250840
H8    H     H_    0.838012 0.395698 0.288307 0.222686
H9    H     H_    0.760937 0.292839 0.203399 0.239070
H10   H     H_    0.878013 0.362916 0.108459 0.231184
H11   H     H_    0.934032 0.472923 0.186963 0.189635
H12   H     H_    0.152374 0.621163 0.362180 0.122351
H13   H     H_    0.019986 0.759205 0.687651 0.290699
H14   H     H_    0.963620 0.634057 0.634760 0.254207
H15   H     H_    0.940095 0.667136 0.737327 0.255532
H16   H     H_    0.187599 0.628721 0.731431 0.228282
H17   H     H_    0.111743 0.545647 0.789920 0.245610
H18   H     H_    0.125686 0.690233 0.893319 0.224178
H19   H     H_    0.214626 0.772225 0.845129 0.239887
H20   H     H_    0.768012 0.706719 0.118240 0.261516
H21   H     H_    0.809934 0.824918 0.186664 0.273923
H22   H     H_    0.881614 0.800140 0.108902 0.251351
H23   H     H_    0.511495 0.437143 0.208260 0.145728
H24   H     H_    0.025971 0.765431 0.279805 0.275769
H25   H     H_    0.984445 0.647649 0.212188 0.190604
H26   H     H_    0.820545 0.605619 0.272859 0.202843
H27   H     H_    0.875579 0.718366 0.346675 0.219959
H28   H     H_    0.183285 0.172353 0.810494 0.264868
H29   H     H_    0.229276 0.289416 0.880865 0.255299
H30   H     H_    0.112662 0.198171 0.888693 0.266283
H31   H     H_    0.016208 0.354751 0.788066 0.241049
H32   H     H_    0.969184 0.237431 0.717903 0.229854
H33   H     H_    0.125744 0.282442 0.654735 0.222109
H34   H     H_    0.453601 0.539558 0.776628 0.158500
H35   H     H_    0.178822 0.396121 0.728272 0.204702
H36   H     H_    0.976230 0.546131 0.070841 0.048751
H37   H     H_    0.129871 0.759095 0.075470 0.071710
H38   H     H_    0.290384 0.759766 0.337110 0.029772
H39   H     H_    0.698701 0.093295 0.702362 0.091027
H40   H     H_    0.272795 0.958874 0.245191 0.044041
H41   H     H_    0.807613 0.101224 0.591979 0.059490
H42   H     H_    0.240170 0.632798 0.209559 0.116899
H43   H     H_    0.817693 0.479488 0.814871 0.184082
H44   H     H_    0.671426 0.475856 0.191607 0.138795
H45   H     H_    0.389990 0.655150 0.834227 0.155645
H46   H     H_    0.733007 0.812681 0.574931 0.199299
N1    N     N_R   0.799120 0.480200 0.517090 -0.110737
N2    N     N_R   0.200880 0.519800 0.482910 -0.114777
O1    O     O_R   0.580150 0.341050 0.504560 -0.598171
O2    O     O_2   0.243375 0.825648 0.023257 -0.563099
O3    O     O_2   0.219987 0.850141 0.400083 -0.567859
O4    O     O_2   0.642734 0.237574 0.683790 -0.584303
O5    O     O_2   0.164612 0.072364 0.239241 -0.565627
O6    O     O_2   0.884579 0.965147 0.644048 -0.571352
O7    O     O_R   0.419850 0.658950 0.495440 -0.605008
O8    O     O_R   0.388090 0.353760 0.493600 -0.624023
O9    O     O_R   0.611910 0.646240 0.506400 -0.621615
O10   O     O_R   0.650890 0.490020 0.640860 -0.608212
O11   O     O_R   0.349110 0.509980 0.359140 -0.631680
O12   O     O_R   0.458830 0.502730 0.629890 -0.622776
O13   O     O_R   0.541170 0.497270 0.370110 -0.621796
O14   O     O_2   0.005948 0.463983 0.978433 -0.572796
Zn1   Zn    Zn3+2 0.628240 0.491510 0.507320 0.946842
Zn2   Zn    Zn3+2 0.371760 0.508490 0.492680 0.946080

loop_
_geom_bond_atom_site_label_1
_geom_bond_atom_site_label_2
_ccdc_geom_bond_type
C21   C26   A    
O9    Zn1   S    
C27   C29   A    
C43   H25   S    
C14   C18   A    
C2    C7    A    
C43   C44   S    
C11   H12   S    
C7    C8    A    
C15   C19   A    
C9    C42   S    
C30   C35   A    
C23   C45   A    
C39   H19   S    
C36   C37   S    
C24   C26   A    
C38   H5    S    
C16   O12   A    
C50   H37   S    
C49   O14   D    
C20   C25   A    
C14   H4    S    
C29   C33   A    
C52   H39   S    
C18   C19   A    
O12   Zn2   S    
C8    C58   A    
C9    C19   A    
C39   C55   S    
O7    Zn2   S    
C22   C25   A    
C10   C46   S    
C48   H30   S    
C5    C52   S    
C49   H36   S    
C32   C55   A    
C17   O11   A    
C51   H38   S    
C41   H13   S    
C12   O9    A    
C3    H2    S    
C53   O5    D    
C34   C55   A    
C51   O3    D    
C4    C56   A    
C50   O2    D    
C47   H31   S    
C16   O10   A    
C38   H6    S    
O13   Zn1   S    
C24   C50   S    
C22   C31   A    
N1    Zn1   S    
C44   H22   S    
C42   H26   S    
C13   N1    A    
C2    C54   S    
C39   C40   S    
C5    C7    A    
C6    C8    A    
C46   H33   S    
C17   C21   S    
O8    Zn2   S    
C2    C4    A    
O11   Zn2   S    
C24   C32   A    
C37   C38   S    
C1    C57   S    
C47   C48   S    
C38   H7    S    
C52   O4    D    
C16   C20   S    
C37   H8    S    
N2    Zn2   S    
C11   N2    A    
C33   C34   A    
C15   H3    S    
C48   H29   S    
C54   O6    D    
C27   H34   S    
C42   H27   S    
C39   H18   S    
C9    C11   A    
C12   C56   S    
C1    O1    A    
C41   H14   S    
C3    C57   A    
C40   C41   S    
C21   C28   A    
C36   C45   S    
C22   C49   S    
C31   C45   A    
C6    C51   S    
C47   H32   S    
C48   H28   S    
C54   H41   S    
C1    O8    A    
O1    Zn1   S    
C36   H11   S    
C12   O7    A    
C46   C47   S    
C28   H23   S    
C44   H21   S    
C6    C56   A    
C10   C13   A    
C53   C58   S    
C36   H10   S    
C13   H1    S    
C20   C27   A    
C53   H40   S    
C23   C35   A    
C34   H45   S    
C40   H17   S    
C5    C57   A    
C15   N1    A    
C44   H20   S    
C29   C31   A    
C30   C32   A    
C25   H43   S    
C46   H35   S    
C10   C18   A    
C37   H9    S    
C28   C30   A    
C33   C35   A    
C40   H16   S    
C4    H46   S    
C17   O13   A    
C41   H15   S    
C23   H44   S    
C3    C58   A    
C14   N2    A    
C42   C43   S    
C43   H24   S    
O10   Zn1   S    
C26   H42   S    
