data_mof_unit_26121.cif
_audit_creation_date              2012-12-11T16:51:19-0500
_audit_creation_method            fapswitch 2.2
_symmetry_space_group_name_H-M    P1
_symmetry_Int_Tables_number       1
_space_group_crystal_system       triclinic
_cell_length_a                    24.474909
_cell_length_b                    17.278055
_cell_length_c                    15.476932
_cell_angle_alpha                 90.188868
_cell_angle_beta                  128.268584
_cell_angle_gamma                 89.878781
_cell_volume                      5138.45226041

loop_
_atom_site_label
_atom_site_type_symbol
_atom_type_description
_atom_site_fract_x
_atom_site_fract_y
_atom_site_fract_z
_atom_type_partial_charge
C1    C     C_R   0.833273 0.896086 0.197538 -0.143840
C2    C     C_R   0.166639 0.895364 0.801800 -0.142931
C3    C     C_R   0.333273 0.396086 0.197538 -0.143840
C4    C     C_R   0.666639 0.395364 0.801800 -0.142930
C5    C     C_R   0.888408 0.109558 0.594450 -0.120558
C6    C     C_R   0.113761 0.105154 0.406764 -0.133353
C7    C     C_R   0.388408 0.609558 0.594450 -0.120558
C8    C     C_R   0.613761 0.605154 0.406764 -0.133353
C9    C     C_R   0.821981 0.128970 0.504382 0.069822
C10   C     C_R   0.180938 0.121318 0.497733 0.109652
C11   C     C_R   0.321981 0.628970 0.504382 0.069822
C12   C     C_R   0.680938 0.621318 0.497733 0.109652
C13   C     C_R   0.885034 0.183225 0.214860 0.188032
C14   C     C_R   0.117507 0.180965 0.791325 0.196733
C15   C     C_R   0.385034 0.683225 0.214860 0.188033
C16   C     C_R   0.617507 0.680964 0.791325 0.196733
C17   C     C_R   0.829739 0.747519 0.599670 0.048483
C18   C     C_R   0.160370 0.735901 0.392122 0.075776
C19   C     C_R   0.329739 0.247519 0.599670 0.048483
C20   C     C_R   0.660370 0.235901 0.392122 0.075777
C21   C     C_R   0.833631 0.746629 0.513475 0.086860
C22   C     C_R   0.160807 0.741950 0.482978 0.077876
C23   C     C_R   0.333631 0.246629 0.513475 0.086860
C24   C     C_R   0.660807 0.241950 0.482978 0.077876
C25   C     C_R   0.796711 0.690499 0.430090 -0.261358
C26   C     C_R   0.204704 0.692596 0.573353 -0.272181
C27   C     C_R   0.296711 0.190499 0.430090 -0.261359
C28   C     C_R   0.704704 0.192596 0.573353 -0.272181
C29   C     C_R   0.248732 0.142731 0.425854 0.047456
C30   C     C_R   0.756448 0.149801 0.580879 0.069433
C31   C     C_R   0.748732 0.642732 0.425854 0.047456
C32   C     C_R   0.256448 0.649801 0.580879 0.069432
C33   C     C_R   0.236807 0.154962 0.503349 0.022129
C34   C     C_R   0.767123 0.163030 0.501917 -0.033752
C35   C     C_R   0.736807 0.654962 0.503349 0.022129
C36   C     C_R   0.267123 0.663030 0.501917 -0.033751
C37   C     C_R   0.279867 0.204964 0.591405 -0.019835
C38   C     C_R   0.718345 0.207038 0.410133 -0.019479
C39   C     C_R   0.779867 0.704964 0.591405 -0.019834
C40   C     C_R   0.218345 0.707037 0.410133 -0.019480
C41   C     C_3   0.759722 0.769936 0.631241 0.463594
C42   C     C_3   0.222662 0.768824 0.346482 0.448709
C43   C     C_3   0.259722 0.269936 0.631241 0.463594
C44   C     C_3   0.722662 0.268824 0.346482 0.448709
C45   C     C_R   0.081326 0.854087 0.405587 -0.146343
C46   C     C_R   0.916100 0.855451 0.593837 -0.133265
C47   C     C_R   0.581326 0.354087 0.405587 -0.146343
C48   C     C_R   0.416100 0.355451 0.593837 -0.133265
C49   C     C_3   0.817958 0.815515 0.647169 -0.553349
C50   C     C_3   0.153006 0.795030 0.313693 -0.555009
C51   C     C_3   0.317958 0.315515 0.647169 -0.553349
C52   C     C_3   0.653006 0.295030 0.313693 -0.555011
C53   C     C_2   0.189344 0.846525 0.974522 -0.171872
C54   C     C_2   0.810719 0.849314 0.023605 -0.177345
C55   C     C_2   0.689344 0.346525 0.974522 -0.171871
C56   C     C_2   0.310719 0.349315 0.023604 -0.177341
C57   C     C_2   0.257015 0.836192 0.025623 -0.311821
C58   C     C_2   0.743484 0.837484 0.973542 -0.310953
C59   C     C_2   0.757015 0.336193 0.025624 -0.311821
C60   C     C_2   0.243484 0.337484 0.973542 -0.310950
C61   C     C_2   0.856671 0.253864 0.150448 -0.431203
C62   C     C_2   0.145747 0.251845 0.855505 -0.417272
C63   C     C_2   0.356671 0.753864 0.150448 -0.431207
C64   C     C_2   0.645747 0.751845 0.855505 -0.417273
C65   C     C_2   0.787420 0.262067 0.078764 0.624172
C66   C     C_2   0.214709 0.262187 0.923319 0.613094
C67   C     C_2   0.287420 0.762067 0.078763 0.624175
C68   C     C_2   0.714710 0.762187 0.923319 0.613097
C69   C     C_R   0.159283 0.854161 0.588785 -0.118448
C70   C     C_R   0.839313 0.855230 0.409912 -0.122574
C71   C     C_R   0.659283 0.354161 0.588785 -0.118448
C72   C     C_R   0.339313 0.355230 0.409912 -0.122573
C73   C     C_R   0.076080 0.895922 0.803355 -0.166893
C74   C     C_R   0.923742 0.897061 0.195929 -0.172257
C75   C     C_R   0.576080 0.395922 0.803355 -0.166894
C76   C     C_R   0.423742 0.397061 0.195929 -0.172256
C77   C     C_R   0.853906 0.880709 0.134039 0.142552
C78   C     C_R   0.145965 0.879076 0.864868 0.139086
C79   C     C_R   0.353906 0.380709 0.134039 0.142549
C80   C     C_R   0.645965 0.379076 0.864868 0.139086
C81   C     C_R   0.131659 0.810514 0.493999 0.075801
C82   C     C_R   0.865423 0.812383 0.503975 0.062995
C83   C     C_R   0.631659 0.310514 0.493999 0.075801
C84   C     C_R   0.365423 0.312383 0.503975 0.062995
C85   C     C_R   0.813761 0.106565 0.411330 -0.191033
C86   C     C_R   0.187393 0.102401 0.589696 -0.197139
C87   C     C_R   0.313762 0.606565 0.411330 -0.191033
C88   C     C_R   0.687393 0.602401 0.589696 -0.197139
C89   C     C_R   0.942973 0.141621 0.244761 -0.174930
C90   C     C_R   0.058906 0.140078 0.759829 -0.196598
C91   C     C_R   0.442973 0.641621 0.244761 -0.174929
C92   C     C_R   0.558906 0.640078 0.759829 -0.196597
C93   C     C_R   0.148278 0.140765 0.754453 -0.091220
C94   C     C_R   0.853368 0.142364 0.249457 -0.074745
C95   C     C_R   0.648278 0.640765 0.754453 -0.091220
C96   C     C_R   0.353368 0.642364 0.249457 -0.074745
H1    H     H_    0.780807 0.897680 0.171189 0.089805
H2    H     H_    0.219086 0.896721 0.828058 0.089206
H3    H     H_    0.280807 0.397680 0.171188 0.089806
H4    H     H_    0.719086 0.396721 0.828058 0.089205
H5    H     H_    0.768745 0.757517 0.709955 -0.008543
H6    H     H_    0.221105 0.749079 0.276450 0.018200
H7    H     H_    0.268746 0.257517 0.709956 -0.008543
H8    H     H_    0.721105 0.249080 0.276450 0.018200
H9    H     H_    0.800158 0.868472 0.595417 0.227853
H10   H     H_    0.153273 0.856365 0.335925 0.230038
H11   H     H_    0.300158 0.368472 0.595417 0.227852
H12   H     H_    0.653273 0.356365 0.335925 0.230038
H13   H     H_    0.862756 0.825072 0.735288 0.147678
H14   H     H_    0.108824 0.780902 0.226685 0.144529
H15   H     H_    0.362756 0.325072 0.735288 0.147677
H16   H     H_    0.608825 0.280902 0.226685 0.144529
H17   H     H_    0.285508 0.872848 0.008971 0.125051
H18   H     H_    0.714727 0.873622 0.990491 0.125663
H19   H     H_    0.785509 0.372848 0.008971 0.125052
H20   H     H_    0.214727 0.373622 0.990491 0.125662
H21   H     H_    0.891598 0.299687 0.164051 0.127610
H22   H     H_    0.110888 0.296877 0.844113 0.130056
H23   H     H_    0.391598 0.799686 0.164050 0.127611
H24   H     H_    0.610888 0.796877 0.844113 0.130056
H25   H     H_    0.162976 0.813282 0.998463 0.160872
H26   H     H_    0.837278 0.816790 0.999164 0.159971
H27   H     H_    0.662976 0.313282 0.998463 0.160872
H28   H     H_    0.337278 0.316790 0.999164 0.159970
H29   H     H_    0.049416 0.837495 0.320078 0.112172
H30   H     H_    0.945592 0.839991 0.679452 0.109191
H31   H     H_    0.549416 0.337495 0.320078 0.112172
H32   H     H_    0.445592 0.339991 0.679452 0.109191
H33   H     H_    0.200721 0.837667 0.672718 0.094713
H34   H     H_    0.797535 0.839369 0.325719 0.098940
H35   H     H_    0.700721 0.337667 0.672718 0.094713
H36   H     H_    0.297535 0.339369 0.325719 0.098940
H37   H     H_    0.046337 0.898219 0.833514 0.097128
H38   H     H_    0.953450 0.900018 0.165749 0.097986
H39   H     H_    0.546337 0.398218 0.833514 0.097128
H40   H     H_    0.453450 0.400018 0.165749 0.097985
H41   H     H_    0.765475 0.103686 0.328220 0.100390
H42   H     H_    0.235111 0.099099 0.673367 0.098502
H43   H     H_    0.265475 0.603686 0.328220 0.100390
H44   H     H_    0.735111 0.599099 0.673367 0.098502
H45   H     H_    0.979349 0.157285 0.230226 0.106841
H46   H     H_    0.023369 0.155316 0.776332 0.120061
H47   H     H_    0.479349 0.657285 0.230226 0.106840
H48   H     H_    0.523369 0.655316 0.776332 0.120061
H49   H     H_    0.193589 0.156607 0.761724 0.132575
H50   H     H_    0.808310 0.158971 0.242620 0.131076
H51   H     H_    0.693589 0.656607 0.761724 0.132575
H52   H     H_    0.308310 0.658971 0.242620 0.131077
H53   H     H_    0.909970 0.111300 0.679927 0.103395
H54   H     H_    0.092985 0.105872 0.321561 0.099471
H55   H     H_    0.409970 0.611300 0.679927 0.103395
H56   H     H_    0.592985 0.605872 0.321561 0.099471
H57   H     H_    0.801787 0.687614 0.365350 0.128446
H58   H     H_    0.202208 0.692000 0.640898 0.128966
H59   H     H_    0.301787 0.187614 0.365350 0.128447
H60   H     H_    0.702208 0.192000 0.640898 0.128967
N1    N     N_R   0.888400 0.921830 0.294620 -0.041038
N2    N     N_R   0.111600 0.921830 0.705380 -0.041093
N3    N     N_R   0.388400 0.421830 0.294620 -0.041038
N4    N     N_R   0.611600 0.421830 0.705380 -0.041093
N5    N     N_R   0.079940 0.922160 0.443410 -0.038226
N6    N     N_R   0.920060 0.922160 0.556590 -0.039504
N7    N     N_R   0.579940 0.422160 0.443410 -0.038226
N8    N     N_R   0.420060 0.422160 0.556590 -0.039504
N9    N     N_R   0.125650 0.922400 0.556620 -0.037783
N10   N     N_R   0.874350 0.922400 0.443380 -0.038329
N11   N     N_R   0.625650 0.422400 0.556620 -0.037783
N12   N     N_R   0.374350 0.422400 0.443380 -0.038329
N13   N     N_R   0.054230 0.922730 0.705400 -0.037876
N14   N     N_R   0.945770 0.922730 0.294600 -0.037995
N15   N     N_R   0.554230 0.422730 0.705400 -0.037876
N16   N     N_R   0.445770 0.422730 0.294600 -0.037995
N17   N     N_R   0.873790 0.077030 0.443380 -0.040489
N18   N     N_R   0.126210 0.077030 0.556620 -0.041191
N19   N     N_R   0.373790 0.577030 0.443380 -0.040489
N20   N     N_R   0.626210 0.577030 0.556620 -0.041191
N21   N     N_R   0.945200 0.076700 0.294600 -0.043137
N22   N     N_R   0.054800 0.076700 0.705400 -0.041952
N23   N     N_R   0.445200 0.576700 0.294600 -0.043137
N24   N     N_R   0.554800 0.576700 0.705400 -0.041952
N25   N     N_R   0.111030 0.077600 0.705380 -0.056021
N26   N     N_R   0.888970 0.077600 0.294620 -0.057672
N27   N     N_R   0.611030 0.577600 0.705380 -0.056021
N28   N     N_R   0.388970 0.577600 0.294620 -0.057672
N29   N     N_R   0.919490 0.077280 0.556590 -0.039911
N30   N     N_R   0.080510 0.077280 0.443410 -0.039503
N31   N     N_R   0.419490 0.577280 0.556590 -0.039911
N32   N     N_R   0.580510 0.577280 0.443410 -0.039503
Ni1   Ni    Ni4+2 0.882160 0.999430 0.370180 0.207103
Ni2   Ni    Ni4+2 0.117840 0.999430 0.629820 0.206174
Ni3   Ni    Ni4+2 0.382160 0.499430 0.370180 0.207104
Ni4   Ni    Ni4+2 0.617840 0.499430 0.629820 0.206174
Ni5   Ni    Ni4+2 0.012460 0.999430 0.370180 0.210980
Ni6   Ni    Ni4+2 0.987540 0.999430 0.629820 0.210821
Ni7   Ni    Ni4+2 0.512460 0.499430 0.370180 0.210980
Ni8   Ni    Ni4+2 0.487540 0.499430 0.629820 0.210821
C97   C     C_1   0.210889 0.085391 0.339760 0.041201
N33   N     N_1   0.180707 0.039296 0.270788 -0.084181
C98   C     C_1   0.798649 0.096888 0.671545 0.023516
N34   N     N_1   0.832234 0.054328 0.744248 -0.097494
C99   C     C_1   0.710889 0.585391 0.339760 0.041200
N35   N     N_1   0.680707 0.539296 0.270788 -0.084181
C100  C     C_1   0.298649 0.596889 0.671545 0.023518
N36   N     N_1   0.332235 0.554328 0.744248 -0.097494
O1    O     O_3   0.694510 0.801433 0.543219 -0.641073
C101  C     C_3   0.646960 0.799819 0.565913 0.209492
H61   H     H_    0.658344 0.848435 0.622212 0.106391
H62   H     H_    0.649249 0.744417 0.604280 0.091946
C102  C     C_3   0.573560 0.808804 0.457343 -0.241248
H63   H     H_    0.569142 0.865503 0.419727 0.198532
H64   H     H_    0.563609 0.762222 0.399491 0.205695
C103  C     C_3   0.518726 0.804218 0.474409 -1.042813
H65   H     H_    0.521489 0.747351 0.510263 0.279334
H66   H     H_    0.466078 0.810902 0.394298 0.273017
H67   H     H_    0.527274 0.851569 0.530086 0.270912
O2    O     O_3   0.270315 0.829133 0.411990 -0.642791
C104  C     C_3   0.339373 0.812017 0.456226 0.222456
H68   H     H_    0.356561 0.855938 0.425322 0.126240
H69   H     H_    0.346513 0.754638 0.432104 0.078201
C105  C     C_3   0.384188 0.819564 0.581417 -0.249074
H70   H     H_    0.375689 0.877442 0.602917 0.207935
H71   H     H_    0.368350 0.775417 0.613883 0.197190
C106  C     C_3   0.461175 0.810137 0.637472 -1.057979
H72   H     H_    0.470474 0.756611 0.608513 0.288266
H73   H     H_    0.489956 0.806325 0.727592 0.266572
H74   H     H_    0.480453 0.861211 0.620408 0.273791
O3    O     O_3   0.194510 0.301433 0.543219 -0.641073
C107  C     C_3   0.146960 0.299819 0.565914 0.209492
H75   H     H_    0.158344 0.348435 0.622212 0.106390
H76   H     H_    0.149249 0.244417 0.604280 0.091946
C108  C     C_3   0.073560 0.308804 0.457344 -0.241248
H77   H     H_    0.069142 0.365503 0.419727 0.198531
H78   H     H_    0.063609 0.262222 0.399492 0.205695
C109  C     C_3   0.018726 0.304218 0.474409 -1.042814
H79   H     H_    0.021489 0.247351 0.510264 0.279334
H80   H     H_    0.966078 0.310902 0.394298 0.273017
H81   H     H_    0.027274 0.351569 0.530086 0.270912
O4    O     O_3   0.770316 0.329133 0.411990 -0.642792
C110  C     C_3   0.839373 0.312017 0.456226 0.222459
H82   H     H_    0.856562 0.355938 0.425322 0.126240
H83   H     H_    0.846514 0.254638 0.432105 0.078200
C111  C     C_3   0.884188 0.319564 0.581417 -0.249074
H84   H     H_    0.875689 0.377442 0.602917 0.207935
H85   H     H_    0.868350 0.275417 0.613883 0.197191
C112  C     C_3   0.961175 0.310138 0.637473 -1.057981
H86   H     H_    0.970475 0.256611 0.608513 0.288266
H87   H     H_    0.989956 0.306326 0.727592 0.266572
H88   H     H_    0.980452 0.361211 0.620409 0.273791
O5    O     O_3   0.743337 0.199761 0.051939 -0.681284
C113  C     C_3   0.719047 0.167292 0.949458 0.184625
H89   H     H_    0.719723 0.208329 0.894491 0.085190
H90   H     H_    0.663775 0.150618 0.905092 0.127540
C114  C     C_3   0.760921 0.094510 0.967758 -0.290903
H91   H     H_    0.815446 0.110894 0.006075 0.201172
H92   H     H_    0.761334 0.054517 0.024304 0.213567
C115  C     C_3   0.730195 0.052486 0.859625 -1.001104
H93   H     H_    0.676274 0.033137 0.820965 0.263727
H94   H     H_    0.762331 0.000822 0.875725 0.281282
H95   H     H_    0.729690 0.091197 0.801964 0.265817
O6    O     O_3   0.259914 0.201183 0.949520 -0.681673
C116  C     C_3   0.285978 0.169153 0.052855 0.188627
H96   H     H_    0.284881 0.209906 0.107969 0.085728
H97   H     H_    0.341547 0.154343 0.096304 0.126701
C117  C     C_3   0.246327 0.094920 0.036498 -0.295577
H98   H     H_    0.191545 0.109388 0.999007 0.202580
H99   H     H_    0.246415 0.055144 0.979958 0.212641
C118  C     C_3   0.278955 0.053651 0.145498 -0.996206
H100  H     H_    0.333333 0.036458 0.183689 0.263149
H101  H     H_    0.248557 0.000701 0.130699 0.283834
H102  H     H_    0.278701 0.092029 0.202982 0.264630
O7    O     O_3   0.243337 0.699760 0.051939 -0.681284
C119  C     C_3   0.219046 0.667291 0.949458 0.184619
H103  H     H_    0.219716 0.708330 0.894487 0.085193
H104  H     H_    0.163777 0.650610 0.905098 0.127543
C120  C     C_3   0.260927 0.594515 0.967758 -0.290912
H105  H     H_    0.315448 0.610906 0.006066 0.201170
H106  H     H_    0.261348 0.554521 0.024310 0.213572
C121  C     C_3   0.230200 0.552489 0.859626 -1.001095
H107  H     H_    0.176281 0.533132 0.820974 0.263727
H108  H     H_    0.262340 0.500829 0.875726 0.281280
H109  H     H_    0.229686 0.591200 0.801958 0.265815
O8    O     O_3   0.759914 0.701183 0.949520 -0.681673
C122  C     C_3   0.785978 0.669153 0.052855 0.188628
H110  H     H_    0.784881 0.709906 0.107970 0.085727
H111  H     H_    0.841547 0.654342 0.096304 0.126700
C123  C     C_3   0.746326 0.594920 0.036498 -0.295579
H112  H     H_    0.691544 0.609388 0.999007 0.202578
H113  H     H_    0.746414 0.555144 0.979957 0.212641
C124  C     C_3   0.778954 0.553651 0.145497 -0.996192
H114  H     H_    0.833333 0.536457 0.183688 0.263145
H115  H     H_    0.748556 0.500701 0.130699 0.283833
H116  H     H_    0.778701 0.592029 0.202982 0.264629

loop_
_geom_bond_atom_site_label_1
_geom_bond_atom_site_label_2
_ccdc_geom_bond_type
C94   H50   S    
C123  H113  S    
C100  N36   T    
C90   N22   A    
C112  H87   S    
C26   C32   A    
C116  H96   S    
C65   O5    S    
N31   Ni8   S    
C122  H111  S    
C1    C77   A    
C99   N35   T    
N30   Ni5   S    
C19   C23   A    
C106  H72   S    
C76   C79   A    
C5    N29   A    
N29   Ni6   S    
C3    C79   A    
N27   Ni4   S    
C102  C103  S    
C105  H71   S    
C76   H40   S    
C106  H74   S    
C39   C41   S    
N23   Ni7   S    
O1    C101  S    
C8    N32   A    
C104  C105  S    
C5    C9    A    
N11   Ni4   S    
N22   Ni6   S    
C74   H38   S    
N17   N29   A    
O8    C122  S    
C32   C36   A    
N12   Ni3   S    
N21   Ni5   S    
C19   C51   S    
C3    H3    S    
N5    N9    A    
C56   H28   S    
C7    N31   A    
C11   C36   S    
C120  H106  S    
C24   C83   S    
C57   C67   S    
C4    C80   A    
C66   O6    S    
N2    Ni2   S    
N19   Ni3   S    
C123  H112  S    
C118  H102  S    
C75   H39   S    
N20   Ni4   S    
C27   C29   A    
C52   H16   S    
C113  H90   S    
N21   N26   A    
C14   C62   S    
C115  H95   S    
C29   C33   A    
C50   H14   S    
C124  H116  S    
C5    H53   S    
C17   C39   A    
C41   C49   S    
C76   N16   A    
C45   N5    A    
C88   H44   S    
C7    C11   A    
C18   C40   A    
C19   C37   A    
C9    C85   A    
C46   C82   A    
C93   N25   A    
C14   C90   A    
C110  H82   S    
N32   Ni7   S    
C11   C87   A    
C119  H103  S    
C121  H109  S    
C91   N23   A    
C111  H85   S    
C73   C78   A    
C93   H49   S    
N19   N31   A    
N26   Ni1   S    
C89   N21   A    
C108  C109  S    
N1    Ni1   S    
C92   N24   A    
C75   C80   A    
C14   C93   A    
C91   H47   S    
C85   N17   A    
N24   Ni8   S    
N24   N27   A    
C8    C12   A    
C54   C77   S    
C67   O7    S    
C44   C52   S    
C113  C114  S    
C40   C42   S    
C30   C98   S    
C54   H26   S    
C69   H33   S    
C60   C66   S    
C98   N34   T    
C71   N11   A    
C112  H86   S    
C122  C123  S    
C3    N3    A    
C72   N12   A    
C109  H80   S    
C96   N28   A    
C51   H11   S    
C117  C118  S    
C42   H6    S    
C62   H22   S    
C107  H76   S    
C105  H70   S    
C43   O3    S    
N20   N32   A    
C71   C83   A    
C119  H104  S    
C44   H8    S    
C96   H52   S    
C55   H27   S    
C111  C112  S    
C31   C99   S    
N3    N16   A    
C30   C34   A    
C92   H48   S    
C25   H57   S    
C22   C81   S    
N3    Ni3   S    
C36   C40   A    
C120  C121  S    
C95   H51   S    
O2    C104  S    
N4    Ni4   S    
C102  H63   S    
C23   C84   S    
C17   C49   S    
C15   C96   A    
C116  H97   S    
C53   C57   D    
C101  H61   S    
C117  H98   S    
C57   H17   S    
C113  H89   S    
C15   C91   A    
C74   C77   A    
C33   C37   A    
C48   C84   A    
C115  H94   S    
C86   N18   A    
C109  H81   S    
C94   N26   A    
C37   C43   S    
C86   H42   S    
C35   C39   A    
C63   C67   D    
C38   C44   S    
C2    C78   A    
C61   C65   D    
N1    N14   A    
C48   H32   S    
C20   C38   A    
N25   Ni2   S    
C114  H92   S    
O3    C107  S    
C103  H67   S    
N7    Ni7   S    
N7    N11   A    
C2    N2    A    
C12   C88   A    
C28   H60   S    
C115  H93   S    
N6    Ni6   S    
C116  C117  S    
N8    Ni8   S    
N9    Ni2   S    
O5    C113  S    
N28   Ni3   S    
N5    Ni5   S    
C121  H107  S    
C110  H83   S    
C90   H46   S    
C21   C82   S    
C12   C35   S    
C56   C79   S    
C52   H12   S    
C72   C84   A    
C22   C26   A    
C42   C50   S    
C68   O8    S    
C7    H55   S    
N8    N12   A    
C117  H99   S    
C120  H105  S    
N18   Ni2   S    
C16   C92   A    
C23   C27   A    
C108  H78   S    
C26   H58   S    
C75   N15   A    
C9    C34   S    
C121  H108  S    
C60   H20   S    
N14   Ni5   S    
C109  H79   S    
C1    H1    S    
C70   H34   S    
C64   C68   D    
C108  H77   S    
C55   C59   D    
C18   C50   S    
C49   H13   S    
N23   N28   A    
C54   C58   D    
C85   H41   S    
C58   C68   S    
O6    C116  S    
C21   C25   A    
O4    C110  S    
C10   C86   A    
C16   C95   A    
C51   H15   S    
N17   Ni1   S    
C123  C124  S    
C13   C89   A    
C34   C38   A    
C25   C31   A    
C46   H30   S    
C45   C81   A    
C24   C28   A    
C87   H43   S    
N15   Ni8   S    
C8    H56   S    
C43   H7    S    
C44   O4    S    
C110  C111  S    
C4    N4    A    
C114  C115  S    
C49   H9    S    
C118  H100  S    
C106  H73   S    
N2    N13   A    
C47   H31   S    
N13   Ni6   S    
C48   N8    A    
C18   C22   A    
C104  H69   S    
C87   N19   A    
C6    N30   A    
C29   C97   S    
C64   H24   S    
C4    H4    S    
C13   C94   A    
N10   Ni1   S    
C42   O2    S    
C32   C100  S    
C70   N10   A    
C53   C78   S    
C104  H68   S    
C47   N7    A    
C28   C30   A    
C20   C52   S    
C61   H21   S    
C53   H25   S    
C59   C65   S    
C72   H36   S    
C62   C66   D    
C55   C80   S    
C118  H101  S    
C101  C102  S    
C95   N27   A    
C114  H91   S    
C43   C51   S    
C119  C120  S    
C89   H45   S    
C111  H84   S    
C1    N1    A    
C102  H64   S    
N4    N15   A    
C41   H5    S    
N6    N10   A    
C10   C33   S    
C31   C35   A    
C107  C108  S    
C41   O1    S    
C97   N33   T    
C70   C82   A    
C69   N9    A    
C74   N14   A    
N22   N25   A    
C69   C81   A    
C6    C10   A    
C103  H66   S    
C58   H18   S    
C107  H75   S    
C47   C83   A    
C6    H54   S    
C56   C60   D    
C88   N20   A    
C13   C61   S    
C103  H65   S    
C2    H2    S    
C71   H35   S    
C59   H19   S    
C63   H23   S    
C73   H37   S    
C112  H88   S    
C45   H29   S    
C122  H110  S    
C50   H10   S    
C15   C63   S    
C124  H114  S    
C124  H115  S    
N16   Ni7   S    
C16   C64   S    
C101  H62   S    
C73   N13   A    
C20   C24   A    
C105  C106  S    
N18   N30   A    
O7    C119  S    
C46   N6    A    
C27   H59   S    
C17   C21   A    
