data_mof_unit_58920.cif
_audit_creation_date              2012-12-10T17:27:09-0500
_audit_creation_method            fapswitch 2.2
_symmetry_space_group_name_H-M    P1
_symmetry_Int_Tables_number       1
_space_group_crystal_system       triclinic
_cell_length_a                    18.164892
_cell_length_b                    18.249786
_cell_length_c                    12.05129
_cell_angle_alpha                 89.997002
_cell_angle_beta                  86.119183
_cell_angle_gamma                 89.9832
_cell_volume                      3985.90672815

loop_
_atom_site_label
_atom_site_type_symbol
_atom_type_description
_atom_site_fract_x
_atom_site_fract_y
_atom_site_fract_z
_atom_type_partial_charge
C1    C     C_R   0.400855 0.100792 0.521280 0.946434
C2    C     C_R   0.535135 0.002436 0.021174 -0.381461
C3    C     C_R   0.964128 0.498944 0.979449 -0.356966
C4    C     C_R   0.034675 0.502332 0.021322 -0.385750
C5    C     C_R   0.588322 0.006827 0.830771 0.125208
C6    C     C_R   0.411670 0.993205 0.169223 0.126305
C7    C     C_R   0.088450 0.498085 0.831205 0.130892
C8    C     C_R   0.911668 0.495682 0.171182 0.122349
C9    C     C_R   0.596802 0.006227 0.945942 0.623090
C10   C     C_R   0.403199 0.993764 0.054051 0.622225
C11   C     C_R   0.096546 0.502876 0.946142 0.620004
C12   C     C_R   0.599083 0.899139 0.478693 0.945636
C13   C     C_R   0.902332 0.494531 0.055812 0.586475
C14   C     C_R   0.458225 0.996107 0.862114 0.764768
C15   C     C_R   0.541777 0.003865 0.137885 0.765605
C16   C     C_R   0.957775 0.499532 0.862341 0.763121
C17   C     C_R   0.041614 0.503280 0.137740 0.758822
C18   C     C_R   0.653995 0.156910 0.465011 -0.210343
C19   C     C_R   0.346796 0.842187 0.535040 -0.210965
C20   C     C_R   0.343107 0.153767 0.534220 -0.208872
C21   C     C_R   0.656458 0.845752 0.465585 -0.206596
C22   C     C_R   0.156950 0.653774 0.465809 -0.209923
C23   C     C_R   0.598570 0.101425 0.478737 0.948781
C24   C     C_R   0.843147 0.346165 0.534066 -0.209374
C25   C     C_R   0.845648 0.656582 0.534881 -0.206382
C26   C     C_R   0.153617 0.342624 0.465129 -0.207433
C27   C     C_R   0.242019 0.791968 0.641655 0.248803
C28   C     C_R   0.761274 0.204096 0.361055 0.249145
C29   C     C_R   0.766716 0.802416 0.364965 0.249268
C30   C     C_R   0.232809 0.196826 0.635070 0.248188
C31   C     C_R   0.732276 0.303664 0.633958 0.246280
C32   C     C_R   0.266778 0.697399 0.364226 0.245500
C33   C     C_R   0.258992 0.293076 0.359137 0.252250
C34   C     C_R   0.401575 0.898392 0.521252 0.947206
C35   C     C_R   0.738691 0.704279 0.639175 0.250438
C36   C     C_R   0.300304 0.840859 0.631690 -0.355771
C37   C     C_R   0.702339 0.155963 0.370437 -0.359029
C38   C     C_R   0.706399 0.849020 0.373036 -0.363322
C39   C     C_R   0.293245 0.150341 0.626821 -0.358104
C40   C     C_R   0.792749 0.350091 0.625943 -0.352051
C41   C     C_R   0.206378 0.650854 0.372639 -0.351177
C42   C     C_R   0.200497 0.341759 0.368893 -0.360796
C43   C     C_R   0.797523 0.655949 0.629741 -0.360549
C44   C     C_R   0.339277 0.792131 0.449370 0.592419
C45   C     C_R   0.901321 0.601325 0.521276 0.955602
C46   C     C_R   0.660662 0.208021 0.549430 0.592240
C47   C     C_R   0.664393 0.795750 0.550904 0.600868
C48   C     C_R   0.334440 0.203123 0.448287 0.601230
C49   C     C_R   0.835175 0.296139 0.448748 0.596248
C50   C     C_R   0.166072 0.702657 0.552205 0.602432
C51   C     C_R   0.161057 0.292478 0.550704 0.592796
C52   C     C_R   0.838748 0.707398 0.450157 0.589069
C53   C     C_R   0.279011 0.744953 0.453925 -0.127047
C54   C     C_R   0.721238 0.254803 0.545394 -0.127152
C55   C     C_R   0.726581 0.751349 0.548897 -0.118567
C56   C     C_R   0.098539 0.398516 0.478758 0.941287
C57   C     C_R   0.271898 0.246966 0.450165 -0.117815
C58   C     C_R   0.772948 0.251803 0.450737 -0.115948
C59   C     C_R   0.228706 0.746340 0.550270 -0.117485
C60   C     C_R   0.221199 0.245144 0.546042 -0.126295
C61   C     C_R   0.777975 0.753879 0.453850 -0.115335
C62   C     C_3   0.299667 0.923701 0.228800 -0.590156
C63   C     C_3   0.700209 0.076528 0.771191 -0.592558
C64   C     C_3   0.801661 0.553418 0.254381 -0.688596
C65   C     C_3   0.202103 0.429669 0.777749 -0.612457
C66   C     C_3   0.711606 0.284059 0.831896 -0.676165
C67   C     C_R   0.099158 0.600803 0.478720 0.943391
C68   C     C_3   0.284557 0.718518 0.166171 -0.679610
C69   C     C_3   0.283680 0.234664 0.181347 -0.620698
C70   C     C_3   0.712438 0.759823 0.818678 -0.617293
C71   C     C_3   0.218163 0.732370 0.818736 -0.608175
C72   C     C_3   0.787691 0.255970 0.179188 -0.620327
C73   C     C_3   0.790069 0.768259 0.172919 -0.656735
C74   C     C_3   0.212499 0.220873 0.831613 -0.673316
C75   C     C_R   0.900831 0.399226 0.521252 0.954946
C76   C     C_R   0.464867 0.997533 0.978824 -0.381013
F1    F     F_    0.608886 0.008671 0.180369 -0.616826
F2    F     F_    0.889278 0.290604 0.365328 -0.643214
F3    F     F_    0.891878 0.710936 0.365125 -0.648700
F4    F     F_    0.109856 0.291328 0.638520 -0.638442
F5    F     F_    0.665740 0.008623 0.983233 -0.616917
F6    F     F_    0.334264 0.991395 0.016746 -0.618131
F7    F     F_    0.165453 0.506976 0.983305 -0.616638
F8    F     F_    0.833455 0.487824 0.019571 -0.632508
F9    F     F_    0.391117 0.991301 0.819628 -0.617366
F10   F     F_    0.108895 0.506317 0.180021 -0.618390
F11   F     F_    0.890481 0.498871 0.819944 -0.617944
F12   F     F_    0.608361 0.210455 0.635722 -0.639906
F13   F     F_    0.390334 0.791136 0.361368 -0.640503
F14   F     F_    0.388313 0.208749 0.364534 -0.637957
F15   F     F_    0.610248 0.790236 0.634267 -0.638786
F16   F     F_    0.112526 0.708038 0.636475 -0.637533
H1    H     H_    0.695053 0.116854 0.304328 0.229908
H2    H     H_    0.286716 0.897433 0.310726 0.212877
H3    H     H_    0.326578 0.882404 0.171669 0.255687
H4    H     H_    0.247029 0.941622 0.195768 0.247519
H5    H     H_    0.655507 0.990899 0.680707 0.262638
H6    H     H_    0.712407 0.103317 0.689481 0.212520
H7    H     H_    0.753205 0.058570 0.803018 0.247720
H8    H     H_    0.673608 0.117412 0.829330 0.253511
H9    H     H_    0.820162 0.441981 0.239340 0.240326
H10   H     H_    0.763689 0.549855 0.330336 0.217924
H11   H     H_    0.768260 0.556194 0.180668 0.260065
H12   H     H_    0.308611 0.878658 0.699127 0.230402
H13   H     H_    0.834713 0.604253 0.258775 0.277706
H14   H     H_    0.154456 0.508307 0.679170 0.265864
H15   H     H_    0.210737 0.397135 0.700230 0.219691
H16   H     H_    0.178834 0.392836 0.844703 0.249359
H17   H     H_    0.256454 0.450385 0.800660 0.246756
H18   H     H_    0.656723 0.358600 0.737889 0.238609
H19   H     H_    0.665963 0.278007 0.897289 0.243367
H20   H     H_    0.751598 0.324881 0.860415 0.242142
H21   H     H_    0.739752 0.230357 0.819973 0.235510
H22   H     H_    0.341923 0.644277 0.257331 0.239834
H23   H     H_    0.300587 0.110672 0.692159 0.223934
H24   H     H_    0.329352 0.725836 0.099765 0.242901
H25   H     H_    0.255526 0.771633 0.179798 0.236570
H26   H     H_    0.244974 0.677185 0.137973 0.242521
H27   H     H_    0.310572 0.341439 0.219252 0.231824
H28   H     H_    0.323928 0.233858 0.107779 0.236402
H29   H     H_    0.227813 0.245799 0.152867 0.212368
H30   H     H_    0.284073 0.179885 0.221596 0.256173
H31   H     H_    0.685274 0.654004 0.775882 0.231365
H32   H     H_    0.671361 0.759818 0.891231 0.235580
H33   H     H_    0.713026 0.815267 0.780474 0.256333
H34   H     H_    0.699189 0.888585 0.307494 0.223228
H35   H     H_    0.767783 0.747600 0.848270 0.213507
H36   H     H_    0.191220 0.839483 0.782873 0.233742
H37   H     H_    0.178291 0.731171 0.892742 0.237896
H38   H     H_    0.274233 0.743129 0.846689 0.213341
H39   H     H_    0.217443 0.677874 0.777668 0.256783
H40   H     H_    0.816946 0.152003 0.228040 0.233154
H41   H     H_    0.829732 0.255912 0.107879 0.238187
H42   H     H_    0.784644 0.312058 0.214937 0.241769
H43   H     H_    0.733301 0.241173 0.148443 0.218063
H44   H     H_    0.833047 0.858613 0.248820 0.235169
H45   H     H_    0.198723 0.611505 0.307016 0.231003
H46   H     H_    0.834593 0.766978 0.105133 0.241848
H47   H     H_    0.741482 0.797140 0.142385 0.226566
H48   H     H_    0.774434 0.711023 0.194807 0.237378
H49   H     H_    0.160126 0.141584 0.743183 0.237136
H50   H     H_    0.167276 0.225858 0.897898 0.242003
H51   H     H_    0.237464 0.275753 0.816407 0.236150
H52   H     H_    0.255100 0.183045 0.860756 0.233033
H53   H     H_    0.799613 0.390276 0.690703 0.227662
H54   H     H_    0.805156 0.617219 0.696246 0.223722
H55   H     H_    0.192329 0.379778 0.301657 0.222188
H56   H     H_    0.344561 0.009156 0.319328 0.262582
N1    N     N_R   0.480750 1.000000 0.209750 -0.203599
N2    N     N_2   0.315904 0.694321 0.267204 -0.224821
N3    N     N_2   0.304135 0.291127 0.257783 -0.232572
N4    N     N_2   0.692435 0.704911 0.739463 -0.232697
N5    N     N_2   0.197400 0.789434 0.743484 -0.234210
N6    N     N_2   0.808363 0.203559 0.261642 -0.230924
N7    N     N_2   0.816130 0.805929 0.268332 -0.225430
N8    N     N_2   0.183101 0.192908 0.731332 -0.222796
N9    N     N_R   0.519250 0.000000 0.790250 -0.203722
N10   N     N_R   0.980750 0.500000 0.209750 -0.188577
N11   N     N_R   0.019250 0.500000 0.790250 -0.205123
N12   N     N_2   0.346601 0.986903 0.241532 -0.275422
N13   N     N_2   0.653366 0.013257 0.758448 -0.274545
N14   N     N_2   0.849315 0.489836 0.248226 -0.236535
N15   N     N_2   0.153897 0.491233 0.759718 -0.272406
N16   N     N_2   0.681959 0.308081 0.729494 -0.224739
O1    O     O_R   0.418020 0.076820 0.422210 -0.616611
O2    O     O_R   0.569630 0.923170 0.391410 -0.582201
O3    O     O_R   0.569630 0.076830 0.391410 -0.576254
O4    O     O_R   0.430370 0.923170 0.608590 -0.576901
O5    O     O_R   0.930370 0.576830 0.608590 -0.585537
O6    O     O_R   0.069630 0.423170 0.391410 -0.587600
O7    O     O_R   0.069630 0.576830 0.391410 -0.577353
O8    O     O_R   0.930370 0.423170 0.608590 -0.581914
O9    O     O_R   0.581980 0.923180 0.577790 -0.617063
O10   O     O_R   0.581980 0.076820 0.577790 -0.597397
O11   O     O_R   0.418020 0.923180 0.422210 -0.596187
O12   O     O_R   0.918020 0.576820 0.422210 -0.576088
O13   O     O_R   0.081980 0.423180 0.577790 -0.598809
O14   O     O_R   0.081980 0.576820 0.577790 -0.617820
O15   O     O_R   0.918020 0.423180 0.422210 -0.577640
O16   O     O_R   0.430370 0.076830 0.608590 -0.581812
Zn1   Zn    Zn3+2 0.491750 0.000000 0.375560 1.046212
Zn2   Zn    Zn3+2 0.508250 1.000000 0.624440 1.045495
Zn3   Zn    Zn3+2 0.991750 0.500000 0.375560 1.062795
Zn4   Zn    Zn3+2 0.008250 0.500000 0.624440 1.046837

loop_
_geom_bond_atom_site_label_1
_geom_bond_atom_site_label_2
_ccdc_geom_bond_type
C70   H35   S    
C27   N5    S    
C64   H11   S    
N1    Zn1   S    
C74   H51   S    
C8    C13   A    
C66   H21   S    
C62   H4    S    
O6    Zn3   S    
O12   Zn3   S    
C8    N10   A    
C25   C43   A    
C53   C59   A    
C2    C76   A    
C48   C57   A    
C23   O10   A    
O3    Zn1   S    
C31   C40   A    
C7    C11   A    
C73   N7    S    
C13   F8    S    
C40   H53   S    
C50   C59   A    
C28   C37   A    
O7    Zn3   S    
H9    N14   S    
C18   C37   A    
C63   H6    S    
C52   C61   A    
C12   O2    A    
C1    O16   A    
C22   C41   A    
C7    N11   A    
C73   H46   S    
C71   N5    S    
C49   F2    S    
H56   N12   S    
C51   F4    S    
C63   H7    S    
C34   O11   A    
C68   H26   S    
C31   N16   S    
C6    N1    A    
C10   C76   A    
C44   C53   A    
C21   C38   A    
C30   C60   A    
C29   C38   A    
C16   F11   S    
H40   N6    S    
C32   C41   A    
O11   Zn1   S    
C1    O1    A    
N11   Zn4   S    
C52   F3    S    
C35   C43   A    
N10   Zn3   S    
C65   H16   S    
O15   Zn3   S    
C3    C13   A    
C29   N7    S    
C30   N8    S    
C74   H50   S    
C10   F6    S    
C48   F14   S    
C62   H3    S    
C16   N11   A    
C28   N6    S    
O10   Zn2   S    
O2    Zn1   S    
C47   F15   S    
C34   O4    A    
C42   H55   S    
C18   C46   A    
C38   H34   S    
O16   Zn2   S    
C46   F12   S    
C56   O13   A    
H27   N3    S    
C29   C61   A    
C72   N6    S    
C14   N9    A    
C35   C55   A    
C18   C23   S    
C69   N3    S    
C64   H13   S    
C70   N4    S    
C64   N14   S    
C33   N3    S    
C45   O12   A    
H44   N7    S    
H18   N16   S    
C57   C60   A    
C73   H47   S    
C67   O7    A    
C19   C36   A    
C7    N15   S    
C12   C21   S    
C19   C34   S    
C49   C58   A    
C17   F10   S    
C26   C56   S    
C5    N13   S    
C64   H10   S    
O5    Zn4   S    
C5    C9    A    
C63   H8    S    
C2    C15   A    
C68   H25   S    
C71   H37   S    
O8    Zn4   S    
C72   H42   S    
C69   H29   S    
C46   C54   A    
C37   H1    S    
C24   C75   S    
H14   N15   S    
C4    C11   A    
C17   N10   A    
C65   H17   S    
C20   C48   A    
H36   N5    S    
C68   H24   S    
C23   O3    A    
C4    C17   A    
C70   H33   S    
C50   F16   S    
O9    Zn2   S    
C5    N9    A    
C62   H2    S    
C66   H19   S    
C62   N12   S    
N9    Zn2   S    
C33   C42   A    
C3    C4    A    
C25   C45   S    
C32   C53   A    
C15   N1    A    
C75   O15   A    
C19   C44   A    
C26   C42   A    
C47   C55   A    
C54   C58   A    
C24   C49   A    
C63   N13   S    
C74   H52   S    
H31   N4    S    
C1    C20   S    
C33   C57   A    
C56   O6    A    
C41   H45   S    
C14   F9    S    
C72   H43   S    
C67   O14   A    
C45   O5    A    
C6    C10   A    
C6    N12   S    
H49   N8    S    
C73   H48   S    
C28   C58   A    
C27   C36   A    
O13   Zn4   S    
C69   H28   S    
C39   H23   S    
C22   C50   A    
C36   H12   S    
O1    Zn1   S    
C20   C39   A    
C25   C52   A    
C43   H54   S    
C27   C59   A    
C26   C51   A    
C71   H38   S    
C11   F7    S    
C72   H41   S    
C15   F1    S    
C69   H30   S    
C55   C61   A    
C24   C40   A    
C65   N15   S    
C30   C39   A    
C31   C54   A    
O4    Zn2   S    
C22   C67   S    
C68   N2    S    
C3    C16   A    
C71   H39   S    
C70   H32   S    
C32   N2    S    
C35   N4    S    
C9    F5    S    
C75   O8    A    
H22   N2    S    
C74   N8    S    
C8    N14   S    
C51   C60   A    
C66   N16   S    
C66   H20   S    
C2    C9    A    
C65   H15   S    
O14   Zn4   S    
C44   F13   S    
H5    N13   S    
C14   C76   A    
C12   O9    A    
C21   C47   A    
