data_mof_unit_14460.cif
_audit_creation_date              2012-12-11T14:47:29-0500
_audit_creation_method            fapswitch 2.2
_symmetry_space_group_name_H-M    P1
_symmetry_Int_Tables_number       1
_space_group_crystal_system       triclinic
_cell_length_a                    19.456225
_cell_length_b                    6.978725
_cell_length_c                    19.449249
_cell_angle_alpha                 89.999761
_cell_angle_beta                  95.84463
_cell_angle_gamma                 90.000057
_cell_volume                      2627.08434214

loop_
_atom_site_label
_atom_site_type_symbol
_atom_type_description
_atom_site_fract_x
_atom_site_fract_y
_atom_site_fract_z
_atom_type_partial_charge
O1    O     O_R   0.673510 0.377480 0.186100 -0.526092
O2    O     O_R   0.326490 0.622520 0.813900 -0.526091
O3    O     O_R   0.826490 0.877480 0.313900 -0.526091
O4    O     O_R   0.173510 0.122520 0.686100 -0.526091
O5    O     O_R   0.807790 0.705750 0.184090 -0.526883
O6    O     O_R   0.192210 0.294250 0.815910 -0.526891
O7    O     O_R   0.692210 0.205750 0.315910 -0.526894
O8    O     O_R   0.307790 0.794250 0.684090 -0.526883
C1    C     C_1   0.478138 0.994450 0.521216 -0.005847
C2    C     C_1   0.521868 0.005542 0.478790 -0.005869
C3    C     C_1   0.021866 0.494455 0.978788 -0.005859
C4    C     C_1   0.978136 0.505547 0.021214 -0.005849
C5    C     C_R   0.830842 0.538295 0.166278 0.717802
C6    C     C_R   0.169159 0.461706 0.833722 0.717831
C7    C     C_R   0.669160 0.038293 0.333723 0.717850
C8    C     C_R   0.330842 0.961705 0.666279 0.717803
O9    O     O_R   0.672870 0.707110 0.178120 -0.539816
O10   O     O_R   0.327130 0.292890 0.821880 -0.539843
O11   O     O_R   0.827130 0.207110 0.321880 -0.539858
O12   O     O_R   0.172870 0.792890 0.678120 -0.539814
O13   O     O_R   0.690610 0.878650 0.307880 -0.519125
O14   O     O_R   0.309390 0.121350 0.692120 -0.519140
O15   O     O_R   0.809390 0.378650 0.192120 -0.519139
O16   O     O_R   0.190610 0.621350 0.807880 -0.519130
C9    C     C_R   0.648342 0.538670 0.160497 0.699964
C10   C     C_R   0.351658 0.461329 0.839502 0.699950
C11   C     C_R   0.851658 0.038671 0.339502 0.699951
C12   C     C_R   0.148343 0.961330 0.660497 0.699961
C13   C     C_1   0.382864 0.971584 0.614284 -0.229133
C14   C     C_1   0.617140 0.028411 0.385721 -0.229041
C15   C     C_1   0.117138 0.471586 0.885719 -0.229082
C16   C     C_1   0.882863 0.528416 0.114282 -0.229125
O17   O     O_3   0.755980 0.544260 0.292580 -0.353011
O18   O     O_3   0.244020 0.455740 0.707420 -0.352998
O19   O     O_3   0.744020 0.044260 0.207420 -0.352998
O20   O     O_3   0.255980 0.955740 0.792580 -0.353006
V1    V     V_3+5 0.748890 0.818640 0.242100 1.429397
V2    V     V_3+5 0.251110 0.181360 0.757900 1.429340
V3    V     V_3+5 0.751110 0.318640 0.257900 1.429324
V4    V     V_3+5 0.248890 0.681360 0.742100 1.429391
C17   C     C_R   0.087783 0.964947 0.607109 -0.102830
C18   C     C_R   0.912222 0.035058 0.392883 -0.102835
C19   C     C_R   0.412220 0.464946 0.892885 -0.102830
C20   C     C_R   0.587782 0.535051 0.107111 -0.102823
C21   C     C_1   0.426356 0.981551 0.571594 -0.015421
C22   C     C_1   0.573649 0.018443 0.428412 -0.015429
C23   C     C_1   0.073647 0.481553 0.928409 -0.015426
C24   C     C_1   0.926355 0.518448 0.071592 -0.015422
C25   C     C_R   0.022079 0.180235 0.435621 -0.195840
C26   C     C_R   0.977937 0.819723 0.564355 -0.195847
C27   C     C_R   0.477931 0.680251 0.064364 -0.195860
C28   C     C_R   0.522077 0.319767 0.935625 -0.195858
C29   C     C_R   0.965631 0.165731 0.385851 -0.198388
C30   C     C_R   0.034383 0.834228 0.614126 -0.198337
C31   C     C_R   0.534379 0.665753 0.114133 -0.198332
C32   C     C_R   0.465629 0.334270 0.885855 -0.198364
C33   C     C_R   0.916185 0.914225 0.451838 -0.066692
C34   C     C_R   0.083818 0.085808 0.548159 -0.066721
C35   C     C_R   0.583816 0.414193 0.048161 -0.066716
C36   C     C_R   0.416183 0.585779 0.951840 -0.066697
C37   C     C_R   0.973331 0.932223 0.503945 0.105858
C38   C     C_R   0.026677 0.067782 0.496043 0.105823
C39   C     C_R   0.526675 0.432217 0.996046 0.105825
C40   C     C_R   0.473328 0.567772 0.003950 0.105845
H1    H     H_    0.036342 0.741535 0.658997 0.127064
H2    H     H_    0.963678 0.258389 0.340971 0.127037
H3    H     H_    0.463676 0.241612 0.840976 0.127044
H4    H     H_    0.536336 0.758436 0.159006 0.127059
H5    H     H_    0.061911 0.281920 0.426027 0.136988
H6    H     H_    0.938115 0.717984 0.573932 0.136993
H7    H     H_    0.438105 0.781968 0.073949 0.136991
H8    H     H_    0.561909 0.218082 0.926030 0.136990
C41   C     C_R   0.139694 0.226958 0.540556 0.081372
C42   C     C_R   0.206475 0.165526 0.529510 -0.116471
C43   C     C_R   0.258465 0.299707 0.521546 -0.109258
C44   C     C_R   0.244085 0.495559 0.524063 -0.093856
C45   C     C_R   0.177695 0.557386 0.534564 -0.078950
C46   C     C_R   0.125810 0.424018 0.543546 -0.124463
H9    H     H_    0.218277 0.014426 0.526893 0.073176
H10   H     H_    0.309793 0.251947 0.512957 0.114584
H11   H     H_    0.284243 0.599391 0.517538 0.099944
H12   H     H_    0.166325 0.708595 0.535387 0.101019
H13   H     H_    0.074563 0.473687 0.551728 0.114978
C47   C     C_R   0.860292 0.773151 0.459457 0.081354
C48   C     C_R   0.874115 0.576078 0.456345 -0.124295
C49   C     C_R   0.822211 0.442774 0.465338 -0.078735
C50   C     C_R   0.755865 0.504686 0.475988 -0.093948
C51   C     C_R   0.741549 0.700562 0.478635 -0.109367
C52   C     C_R   0.793557 0.834674 0.470648 -0.116791
H14   H     H_    0.925328 0.526346 0.448049 0.114906
H15   H     H_    0.833533 0.291549 0.464410 0.100947
H16   H     H_    0.715693 0.400903 0.482528 0.099965
H17   H     H_    0.690257 0.748394 0.487343 0.114631
H18   H     H_    0.781805 0.985789 0.473368 0.073349
C53   C     C_R   0.360295 0.726878 0.959453 0.081356
C54   C     C_R   0.293541 0.665388 0.970583 -0.116666
C55   C     C_R   0.241538 0.799524 0.978556 -0.109333
C56   C     C_R   0.255877 0.995390 0.975952 -0.093895
C57   C     C_R   0.322242 0.057273 0.965365 -0.078806
C58   C     C_R   0.374140 0.923946 0.956385 -0.124365
H19   H     H_    0.281770 0.514281 0.973262 0.073282
H20   H     H_    0.190230 0.751718 0.987214 0.114613
H21   H     H_    0.215708 0.099190 0.982478 0.099954
H22   H     H_    0.333582 0.208493 0.964470 0.100971
H23   H     H_    0.425368 0.973656 0.948136 0.114928
C59   C     C_R   0.639694 0.273051 0.040556 0.081368
C60   C     C_R   0.625816 0.075993 0.043547 -0.124455
C61   C     C_R   0.677703 0.942638 0.034560 -0.078943
C62   C     C_R   0.744090 0.004477 0.024051 -0.093875
C63   C     C_R   0.758463 0.200327 0.021532 -0.109269
C64   C     C_R   0.706471 0.334495 0.029505 -0.116471
H24   H     H_    0.574572 0.026316 0.051734 0.114971
H25   H     H_    0.666339 0.791429 0.035387 0.101013
H26   H     H_    0.784249 0.900655 0.017519 0.099951
H27   H     H_    0.809789 0.248095 0.012938 0.114589
H28   H     H_    0.718269 0.485595 0.026888 0.073179

loop_
_geom_bond_atom_site_label_1
_geom_bond_atom_site_label_2
_ccdc_geom_bond_type
C34   C38   A    
C50   C51   A    
C1    C21   S    
O5    V1    S    
C41   C42   A    
C5    C16   S    
C3    C23   S    
C53   C54   A    
O10   C10   A    
C6    C15   S    
C4    C24   S    
C55   C56   A    
C30   H1    S    
C45   C46   A    
C58   H23   S    
O17   V3    S    
O18   V4    S    
O19   V1    S    
C17   C34   A    
C49   H15   S    
C18   C29   A    
O12   V4    S    
C25   C29   A    
C59   C60   A    
C20   C35   A    
C56   H21   S    
O14   V2    S    
C12   C17   S    
C61   C62   A    
C5    O15   A    
C60   H24   S    
C6    O16   A    
C52   H18   S    
C63   C64   A    
C46   H13   S    
C2    C22   S    
C41   C46   A    
O6    V2    S    
C64   H28   S    
O11   C11   A    
C43   H10   S    
O5    C5    A    
C55   H20   S    
O7    C7    A    
C57   H22   S    
O8    C8    A    
C15   C23   T    
C54   H19   S    
O1    C9    A    
C16   C24   T    
C27   H7    S    
C18   C33   A    
O4    C12   A    
C10   C19   S    
C31   H4    S    
C59   C64   A    
C35   C59   S    
C42   C43   A    
O20   V4    S    
C9    C20   S    
C47   C48   A    
C53   C58   A    
C49   C50   A    
O12   C12   A    
C8    C13   S    
C48   C49   A    
O17   V1    S    
C13   C21   T    
C61   H25   S    
O19   V3    S    
C43   C44   A    
C28   H8    S    
O6    C6    A    
C34   C41   S    
C57   C58   A    
C60   C61   A    
C54   C55   A    
C33   C47   S    
O2    C10   A    
O9    V1    S    
C44   C45   A    
C29   H2    S    
O11   V3    S    
C62   H26   S    
C19   C36   A    
O4    V2    S    
C42   H9    S    
C47   C52   A    
C7    C14   S    
C1    C2    T    
C51   H17   S    
C8    O14   A    
C25   C38   A    
O18   V2    S    
C14   C22   T    
C27   C40   A    
C28   C39   A    
C44   H11   S    
C48   H14   S    
C33   C37   A    
C32   H3    S    
C35   C39   A    
C36   C40   A    
O9    C9    A    
O3    C11   A    
O10   V2    S    
C26   C30   A    
C62   C63   A    
C11   C18   S    
C45   H12   S    
O15   V3    S    
O20   V2    S    
O16   V4    S    
C20   C31   A    
C27   C31   A    
C26   H6    S    
C37   C38   A    
C17   C30   A    
O1    V3    S    
C39   C40   A    
C36   C53   S    
O2    V4    S    
C19   C32   A    
C7    O13   A    
O13   V1    S    
C51   C52   A    
O3    V1    S    
C56   C57   A    
C26   C37   A    
O7    V3    S    
C25   H5    S    
O8    V4    S    
C50   H16   S    
C63   H27   S    
C28   C32   A    
C3    C4    T    
