data_mof_unit_52856.cif
_audit_creation_date              2012-10-26T21:27:13-0400
_audit_creation_method            fapswitch 2.2
_symmetry_space_group_name_H-M    P1
_symmetry_Int_Tables_number       1
_space_group_crystal_system       triclinic
_cell_length_a                    12.282495
_cell_length_b                    12.299246
_cell_length_c                    23.331616
_cell_angle_alpha                 90.071824
_cell_angle_beta                  90.033782
_cell_angle_gamma                 89.973629
_cell_volume                      3524.59679119

loop_
_atom_site_label
_atom_site_type_symbol
_atom_type_description
_atom_site_fract_x
_atom_site_fract_y
_atom_site_fract_z
_atom_type_partial_charge
C1    C     C_3   0.999630 0.002337 0.249793 0.073861
C2    C     C_R   0.901005 0.999701 0.293018 0.132763
C3    C     C_R   0.999927 0.650499 0.922078 0.552946
C4    C     C_R   0.000037 0.350344 0.078201 0.552419
C5    C     C_R   0.349541 0.999990 0.422039 0.553378
C6    C     C_R   0.650524 0.000066 0.577920 0.552492
C7    C     C_R   0.000050 0.349431 0.922087 0.552755
C8    C     C_R   0.000011 0.649961 0.078198 0.548257
C9    C     C_R   0.650838 0.999894 0.422304 0.551973
C10   C     C_R   0.349544 0.999990 0.577943 0.552743
C11   C     C_R   0.085455 0.113028 0.167484 0.102137
C12   C     C_3   0.000153 0.999670 0.750120 0.086852
C13   C     C_R   0.907002 0.827420 0.800002 0.122185
C14   C     C_R   0.827603 0.092792 0.700162 0.122100
C15   C     C_R   0.111443 0.914512 0.331881 0.100651
C16   C     C_R   0.913424 0.890752 0.164943 0.098470
C17   C     C_R   0.093305 0.171868 0.800253 0.121969
C18   C     C_R   0.172676 0.906882 0.699985 0.122226
C19   C     C_R   0.891264 0.085642 0.334571 0.113070
C20   C     C_R   0.086560 0.887949 0.832406 0.098914
C21   C     C_R   0.910794 0.180846 0.203514 0.091226
C22   C     C_R   0.827716 0.909005 0.299809 0.086669
C23   C     C_R   0.998561 0.103269 0.208460 0.142813
C24   C     C_R   0.111710 0.086190 0.667855 0.098713
C25   C     C_R   0.913819 0.111249 0.832554 0.098858
C26   C     C_R   0.091503 0.829286 0.199703 0.131100
C27   C     C_R   0.174087 0.093049 0.299418 0.124345
C28   C     C_R   0.888451 0.913545 0.667660 0.098846
C29   C     C_R   0.085432 0.194969 0.126521 -0.131697
C30   C     C_R   0.910789 0.745529 0.841429 -0.140915
C31   C     C_R   0.745580 0.089020 0.658681 -0.141401
C32   C     C_R   0.194266 0.913770 0.372712 -0.136133
C33   C     C_R   0.913233 0.805359 0.126072 -0.085265
C34   C     C_R   0.998147 0.900026 0.792536 0.167680
C35   C     C_R   0.089315 0.254054 0.841591 -0.141263
C36   C     C_R   0.254694 0.910879 0.658559 -0.141157
C37   C     C_R   0.808320 0.085304 0.375221 -0.128637
C38   C     C_R   0.086782 0.805176 0.873080 -0.132264
C39   C     C_R   0.914613 0.262016 0.161700 -0.137512
C40   C     C_R   0.745818 0.912012 0.341295 -0.139121
C41   C     C_R   0.194606 0.086614 0.627162 -0.132958
C42   C     C_R   0.913421 0.194291 0.873175 -0.131989
C43   C     C_R   0.087918 0.745872 0.159016 -0.141901
C44   C     C_R   0.255987 0.088582 0.340904 -0.142824
C45   C     C_R   0.900425 0.001786 0.707607 0.167507
C46   C     C_R   0.805562 0.913352 0.626923 -0.132710
C47   C     C_R   0.000299 0.268320 0.123114 -0.019816
C48   C     C_R   0.999651 0.734266 0.877776 -0.020875
C49   C     C_R   0.734423 0.000326 0.622263 -0.021106
C50   C     C_R   0.266048 0.000197 0.377466 -0.021884
C51   C     C_R   0.999786 0.733864 0.122452 -0.033677
C52   C     C_R   0.000376 0.265442 0.877831 -0.021094
C53   C     C_R   0.265794 0.999713 0.622333 -0.021074
C54   C     C_R   0.735504 0.999586 0.378496 -0.018987
C55   C     C_R   0.100113 0.002902 0.292000 0.184064
C56   C     C_R   0.000743 0.903429 0.206237 0.142643
C57   C     C_R   0.002217 0.099187 0.792710 0.167457
C58   C     C_R   0.099798 0.997781 0.707597 0.167691
Cu1   Cu    Cu3+1 0.889520 0.500000 0.000000 0.914264
Cu2   Cu    Cu3+1 0.110480 0.500000 0.000000 0.911748
Cu3   Cu    Cu3+1 0.500000 0.889520 0.500000 0.908550
Cu4   Cu    Cu3+1 0.500000 0.110480 0.500000 0.908223
H1    H     H_    0.152218 0.199423 0.096237 0.126522
H2    H     H_    0.847487 0.318975 0.158408 0.128913
H3    H     H_    0.690715 0.843522 0.344946 0.128156
H4    H     H_    0.201469 0.155159 0.598214 0.126132
H5    H     H_    0.844844 0.201340 0.902186 0.127704
H6    H     H_    0.157046 0.691511 0.155057 0.125824
H7    H     H_    0.310694 0.157223 0.345467 0.125867
H8    H     H_    0.798640 0.844906 0.597819 0.126318
H9    H     H_    0.179189 0.001395 0.127723 0.219011
H10   H     H_    0.248084 0.085713 0.171665 0.230543
H11   H     H_    0.743749 0.852233 0.800119 0.236084
H12   H     H_    0.841507 0.691636 0.845997 0.125429
H13   H     H_    0.788070 0.766443 0.749301 0.217080
H14   H     H_    0.766409 0.211450 0.750909 0.217193
H15   H     H_    0.852181 0.255843 0.700183 0.235453
H16   H     H_    0.000343 0.818883 0.370596 0.220600
H17   H     H_    0.085309 0.751986 0.326237 0.227399
H18   H     H_    0.844784 0.031843 0.136733 0.238925
H19   H     H_    0.785585 0.979303 0.198553 0.266420
H20   H     H_    0.212417 0.232529 0.749708 0.217144
H21   H     H_    0.256566 0.147121 0.800655 0.235703
H22   H     H_    0.233955 0.788065 0.750481 0.217234
H23   H     H_    0.691493 0.158176 0.654131 0.125198
H24   H     H_    0.148133 0.743837 0.699628 0.235374
H25   H     H_    0.920580 0.248057 0.333060 0.229436
H26   H     H_    0.004801 0.175571 0.375185 0.216716
H27   H     H_    0.183050 0.998041 0.871418 0.219259
H28   H     H_    0.249441 0.912869 0.826939 0.229403
H29   H     H_    0.798801 0.247608 0.256378 0.230575
H30   H     H_    0.746841 0.163861 0.206722 0.219646
H31   H     H_    0.848724 0.745541 0.296716 0.240203
H32   H     H_    0.764521 0.795906 0.246349 0.228770
H33   H     H_    0.086539 0.248815 0.673678 0.229023
H34   H     H_    0.200581 0.845434 0.401837 0.126091
H35   H     H_    0.001378 0.182674 0.629057 0.218630
H36   H     H_    0.750978 0.086020 0.826974 0.229526
H37   H     H_    0.817504 0.001203 0.871522 0.220506
H38   H     H_    0.210765 0.769264 0.250557 0.217041
H39   H     H_    0.254906 0.853420 0.199100 0.236533
H40   H     H_    0.236282 0.211420 0.248975 0.217226
H41   H     H_    0.150475 0.256302 0.299793 0.236114
H42   H     H_    0.913533 0.750881 0.673095 0.229096
H43   H     H_    0.998737 0.817159 0.628697 0.218676
H44   H     H_    0.845674 0.798039 0.096350 0.154641
H45   H     H_    0.158521 0.308072 0.846188 0.125385
H46   H     H_    0.308803 0.841757 0.653884 0.125358
H47   H     H_    0.802567 0.152299 0.405321 0.123952
H48   H     H_    0.155365 0.798187 0.902123 0.126955
N1    N     N_3   0.176496 0.040431 0.167562 -0.628537
N2    N     N_3   0.811503 0.173445 0.235469 -0.648427
N3    N     N_3   0.837850 0.809806 0.267969 -0.618762
N4    N     N_3   0.040272 0.178080 0.668880 -0.632099
N5    N     N_3   0.821891 0.039871 0.831682 -0.631827
N6    N     N_3   0.193094 0.841963 0.229297 -0.610728
N7    N     N_3   0.162796 0.194414 0.269713 -0.608716
N8    N     N_3   0.959842 0.821609 0.668506 -0.632008
N9    N     N_3   0.805714 0.839692 0.770112 -0.612286
N10   N     N_3   0.839765 0.193908 0.730135 -0.612379
N11   N     N_3   0.039431 0.823052 0.330838 -0.625590
N12   N     N_3   0.822318 0.962580 0.159509 -0.665207
N13   N     N_3   0.194710 0.159421 0.770535 -0.612205
N14   N     N_3   0.160571 0.805666 0.729728 -0.612347
N15   N     N_3   0.964994 0.175717 0.335537 -0.625674
N16   N     N_3   0.178607 0.959170 0.831581 -0.631581
O1    O     O_R   0.907020 0.615090 0.941240 -0.514620
O2    O     O_R   0.092980 0.615090 0.941240 -0.513704
O3    O     O_R   0.384910 0.092980 0.558760 -0.513556
O4    O     O_R   0.615090 0.907020 0.441240 -0.515127
O5    O     O_R   0.092980 0.615090 0.058760 -0.513455
O6    O     O_R   0.907020 0.384910 0.941240 -0.513363
O7    O     O_R   0.615090 0.907020 0.558760 -0.513662
O8    O     O_R   0.384910 0.092980 0.441240 -0.515149
O9    O     O_R   0.092980 0.384910 0.058760 -0.513698
O10   O     O_R   0.384910 0.907020 0.441240 -0.513112
O11   O     O_R   0.615090 0.092980 0.558760 -0.515539
O12   O     O_R   0.092980 0.384910 0.941240 -0.515500
O13   O     O_R   0.907020 0.615090 0.058760 -0.514962
O14   O     O_R   0.615090 0.092980 0.441240 -0.513420
O15   O     O_R   0.384910 0.907020 0.558760 -0.515415
O16   O     O_R   0.907020 0.384910 0.058760 -0.514631

loop_
_geom_bond_atom_site_label_1
_geom_bond_atom_site_label_2
_ccdc_geom_bond_type
C5    O10   A    
C29   H1    S    
C24   N4    S    
H11   N9    S    
C36   H46   S    
H38   N6    S    
C14   C31   A    
H15   N10   S    
Cu3   O7    S    
C15   C32   A    
H18   N12   S    
C9    O4    A    
C39   H2    S    
H17   N11   S    
C46   C49   A    
C28   C46   A    
H14   N10   S    
C29   C47   A    
C8    O13   A    
C31   H23   S    
C30   C48   A    
C1    C56   S    
C7    C52   S    
C6    O7    A    
C25   N5    S    
C18   N14   S    
C4    O16   A    
C30   H12   S    
C9    O14   A    
C3    O1    A    
H33   N4    S    
Cu1   O1    S    
C3    C48   S    
C1    C2    S    
C10   C53   S    
H16   N11   S    
C16   N12   S    
C36   C53   A    
C19   C37   A    
C27   C44   A    
C17   N13   S    
C22   N3    S    
Cu1   O16   S    
C43   H6    S    
H9    N1    S    
C2    C22   A    
C38   H48   S    
C38   C48   A    
C12   C58   S    
H10   N1    S    
Cu1   Cu2   S    
C6    C49   S    
C24   C41   A    
Cu4   O3    S    
H41   N7    S    
C25   C57   A    
C31   C49   A    
Cu2   O5    S    
C13   N9    S    
H32   N3    S    
C18   C58   A    
C26   C43   A    
C14   C45   A    
H42   N8    S    
H27   N16   S    
C27   N7    S    
C5    O8    A    
C28   C45   A    
Cu1   O6    S    
C11   N1    S    
C13   C30   A    
Cu2   O2    S    
H13   N9    S    
C3    O2    A    
H30   N2    S    
C19   N15   S    
C10   O15   A    
C15   C55   A    
H29   N2    S    
C16   C56   A    
C20   N16   S    
H26   N15   S    
C16   C33   A    
C20   C38   A    
C21   C39   A    
Cu1   O13   S    
C22   C40   A    
C8    O5    A    
H28   N16   S    
C44   H7    S    
H31   N3    S    
C8    C51   S    
C41   C53   A    
C7    O6    A    
H40   N7    S    
Cu3   O4    S    
C4    O9    A    
C37   C54   A    
Cu3   O15   S    
C32   H34   S    
C1    C23   S    
C40   C54   A    
C40   H3    S    
C21   C23   A    
H24   N14   S    
C42   H5    S    
C5    C50   S    
C33   C51   A    
C12   C57   S    
C12   C34   S    
H20   N13   S    
H25   N15   S    
C21   N2    S    
C39   C47   A    
C44   C50   A    
C15   N11   S    
C2    C19   A    
C37   H47   S    
C33   H44   S    
C12   C45   S    
C26   C56   A    
C25   C42   A    
C7    O12   A    
C41   H4    S    
H22   N14   S    
C14   N10   S    
H19   N12   S    
Cu4   O14   S    
Cu4   O8    S    
C6    O11   A    
C1    C55   S    
C10   O3    A    
C20   C34   A    
C13   C34   A    
C28   N8    S    
H37   N5    S    
C43   C51   A    
H36   N5    S    
C11   C23   A    
C32   C50   A    
C27   C55   A    
Cu4   O11   S    
Cu3   Cu4   S    
H43   N8    S    
C26   N6    S    
C46   H8    S    
C35   H45   S    
C11   C29   A    
C24   C58   A    
C42   C52   A    
C35   C52   A    
H39   N6    S    
C9    C54   S    
C17   C35   A    
H21   N13   S    
H35   N4    S    
C18   C36   A    
Cu2   O9    S    
Cu3   O10   S    
C17   C57   A    
C4    C47   S    
Cu2   O12   S    
