data_mof_unit_11788.cif
_audit_creation_date              2012-12-10T16:49:29-0500
_audit_creation_method            fapswitch 2.2
_symmetry_space_group_name_H-M    P1
_symmetry_Int_Tables_number       1
_space_group_crystal_system       triclinic
_cell_length_a                    7.752945
_cell_length_b                    8.578467
_cell_length_c                    12.877915
_cell_angle_alpha                 90.058369
_cell_angle_beta                  88.064474
_cell_angle_gamma                 93.619524
_cell_volume                      854.292625771

loop_
_atom_site_label
_atom_site_type_symbol
_atom_type_description
_atom_site_fract_x
_atom_site_fract_y
_atom_site_fract_z
_atom_type_partial_charge
C1    C     C_R   0.454628 0.205209 0.497284 0.970224
C2    C     C_R   0.711395 0.462021 0.140275 -0.206582
C3    C     C_R   0.589380 0.473581 0.868859 -0.274536
C4    C     C_R   0.410620 0.526419 0.131141 -0.274536
C5    C     C_R   0.578773 0.481717 0.975311 0.186630
C6    C     C_R   0.421227 0.518282 0.024688 0.186630
C7    C     C_2   0.430731 0.041744 0.495732 -0.380053
C8    C     C_2   0.569269 0.958256 0.504268 -0.380053
C9    C     C_R   0.545372 0.794791 0.502716 0.970224
C10   C     C_R   0.465859 0.501964 0.699816 0.882911
C11   C     C_R   0.534141 0.498036 0.300184 0.882911
C12   C     C_R   0.554288 0.496591 0.189018 -0.049678
C13   C     C_R   0.445712 0.503409 0.810981 -0.049678
C14   C     C_R   0.276397 0.545480 0.967037 -0.224369
C15   C     C_R   0.723602 0.454520 0.032963 -0.224369
C16   C     C_R   0.288605 0.537979 0.859725 -0.206582
H1    H     H_    0.823154 0.439028 0.184786 0.162553
H2    H     H_    0.700116 0.009379 0.512409 0.180239
H3    H     H_    0.176846 0.560972 0.815214 0.162553
H4    H     H_    0.289125 0.554781 0.168603 0.161678
H5    H     H_    0.710875 0.445219 0.831397 0.161678
H6    H     H_    0.155055 0.573282 0.004764 0.138371
H7    H     H_    0.844945 0.426718 0.995236 0.138371
H8    H     H_    0.998463 0.615592 0.421811 0.189895
H9    H     H_    0.001537 0.384408 0.578189 0.189896
H10   H     H_    0.299884 0.990621 0.487591 0.180239
N1    N     N_2   0.054030 0.541640 0.471970 -0.177109
N2    N     N_2   0.945970 0.458360 0.528030 -0.177109
O1    O     O_R   0.609680 0.261530 0.506880 -0.612239
O2    O     O_R   0.390320 0.738470 0.493120 -0.612239
O3    O     O_R   0.323330 0.288220 0.488910 -0.629415
O4    O     O_R   0.676670 0.711780 0.511090 -0.629415
O5    O     O_R   0.619510 0.488830 0.661140 -0.625202
O6    O     O_R   0.380490 0.511170 0.338860 -0.625203
O7    O     O_R   0.333160 0.515520 0.643180 -0.632834
O8    O     O_R   0.666840 0.484480 0.356820 -0.632834
Zn1   Zn    Zn3+2 0.691200 0.482180 0.511990 0.939516
Zn2   Zn    Zn3+2 0.308800 0.517820 0.488010 0.939516

loop_
_geom_bond_atom_site_label_1
_geom_bond_atom_site_label_2
_ccdc_geom_bond_type
C11   C12   S    
H8    N1    S    
C10   O7    A    
C4    C12   A    
C3    C13   A    
O3    Zn2   S    
C5    C15   A    
C2    C12   A    
C14   H6    S    
C1    O1    A    
C7    C8    D    
C1    C7    S    
O4    Zn1   S    
C2    H1    S    
C2    C15   A    
C7    H10   S    
N2    Zn1   S    
C16   H3    S    
C9    O2    A    
C15   H7    S    
C11   O8    A    
O5    Zn1   S    
C10   O5    A    
C5    C6    A    
C14   C16   A    
C3    H5    S    
C6    C14   A    
N1    Zn2   S    
C4    H4    S    
C1    O3    A    
O7    Zn2   S    
O2    Zn2   S    
C4    C6    A    
C13   C16   A    
O1    Zn1   S    
N1    N2    D    
O8    Zn1   S    
C9    O4    A    
C3    C5    A    
O6    Zn2   S    
C11   O6    A    
C8    H2    S    
C8    C9    S    
H9    N2    S    
C10   C13   S    
