data_mof_unit_14926.cif
_audit_creation_date              2012-10-26T17:10:35-0400
_audit_creation_method            fapswitch 2.2
_symmetry_space_group_name_H-M    P1
_symmetry_Int_Tables_number       1
_space_group_crystal_system       triclinic
_cell_length_a                    16.86272
_cell_length_b                    16.863938
_cell_length_c                    16.864657
_cell_angle_alpha                 67.499185
_cell_angle_beta                  67.473746
_cell_angle_gamma                 67.505453
_cell_volume                      3933.11216927

loop_
_atom_site_label
_atom_site_type_symbol
_atom_type_description
_atom_site_fract_x
_atom_site_fract_y
_atom_site_fract_z
_atom_type_partial_charge
C1    C     C_R   0.597357 0.020687 0.596622 0.077820
C2    C     C_R   0.170921 0.434375 0.973700 0.542493
C3    C     C_R   0.566184 0.024791 0.829325 0.571507
C4    C     C_R   0.433816 0.975209 0.170675 0.571507
C5    C     C_R   0.433822 0.170650 0.975243 0.571710
C6    C     C_R   0.566178 0.829350 0.024757 0.571710
C7    C     C_R   0.975199 0.433822 0.170658 0.574182
C8    C     C_R   0.024801 0.566178 0.829342 0.574182
C9    C     C_R   0.170916 0.973573 0.434412 0.543127
C10   C     C_R   0.829084 0.026427 0.565588 0.543127
C11   C     C_R   0.547726 0.010305 0.546601 0.047385
C12   C     C_R   0.402643 0.979313 0.403378 0.077820
C13   C     C_R   0.452274 0.989695 0.453399 0.047385
C14   C     C_R   0.009958 0.547232 0.547321 0.048337
C15   C     C_R   0.990042 0.452768 0.452678 0.048337
C16   C     C_R   0.547399 0.548010 0.008640 0.046952
C17   C     C_R   0.452601 0.451989 0.991360 0.046951
C18   C     C_R   0.580595 0.935450 0.513377 0.187621
C19   C     C_R   0.419405 0.064550 0.486623 0.187622
C20   C     C_R   0.933485 0.516778 0.578533 0.188800
C21   C     C_R   0.066515 0.483222 0.421466 0.188802
C22   C     C_R   0.468301 0.533526 0.074821 0.190106
C23   C     C_R   0.020346 0.597271 0.596928 0.078345
C24   C     C_R   0.531699 0.466474 0.925179 0.190104
C25   C     C_R   0.533842 0.926400 0.464286 0.190653
C26   C     C_R   0.466158 0.073599 0.535714 0.190653
C27   C     C_R   0.419339 0.487161 0.064978 0.188123
C28   C     C_R   0.580661 0.512839 0.935022 0.188123
C29   C     C_R   0.924695 0.467049 0.532266 0.189307
C30   C     C_R   0.075305 0.532951 0.467734 0.189307
C31   C     C_R   0.558078 0.021494 0.686065 -0.107744
C32   C     C_R   0.441922 0.978506 0.313935 -0.107743
C33   C     C_R   0.025345 0.685436 0.556377 -0.093808
C34   C     C_R   0.979654 0.402729 0.403072 0.078345
C35   C     C_R   0.974654 0.314564 0.443623 -0.093808
C36   C     C_R   0.685637 0.556533 0.024739 -0.099680
C37   C     C_R   0.314363 0.443467 0.975261 -0.099681
C38   C     C_R   0.314498 0.974258 0.443833 -0.102907
C39   C     C_R   0.685502 0.025742 0.556167 -0.102906
C40   C     C_R   0.441751 0.313591 0.979248 -0.105921
C41   C     C_R   0.558249 0.686409 0.020752 -0.105922
C42   C     C_R   0.978624 0.441937 0.313740 -0.111449
C43   C     C_R   0.021376 0.558063 0.686260 -0.111448
C44   C     C_R   0.603832 0.034048 0.732847 0.025560
C45   C     C_R   0.597660 0.597268 0.019178 0.077706
C46   C     C_R   0.396168 0.965953 0.267153 0.025559
C47   C     C_R   0.037561 0.732102 0.602549 -0.024712
C48   C     C_R   0.962439 0.267897 0.397451 -0.024712
C49   C     C_R   0.732148 0.602637 0.037275 -0.026205
C50   C     C_R   0.267851 0.397363 0.962725 -0.026205
C51   C     C_R   0.267890 0.962243 0.397505 -0.030286
C52   C     C_R   0.732110 0.037757 0.602495 -0.030286
C53   C     C_R   0.396102 0.267024 0.966285 0.025217
C54   C     C_R   0.603897 0.732975 0.033715 0.025218
C55   C     C_R   0.966098 0.396108 0.267066 0.019321
C56   C     C_R   0.402340 0.402732 0.980822 0.077706
C57   C     C_R   0.033902 0.603892 0.732934 0.019321
C58   C     C_R   0.687223 0.051339 0.687895 0.222099
C59   C     C_R   0.312777 0.948661 0.312105 0.222099
C60   C     C_R   0.051158 0.687283 0.687939 0.220313
C61   C     C_R   0.948842 0.312717 0.312061 0.220313
C62   C     C_R   0.687250 0.687972 0.051013 0.221651
C63   C     C_R   0.312750 0.312027 0.948987 0.221651
C64   C     C_R   0.026313 0.829082 0.565620 0.542086
C65   C     C_R   0.973687 0.170918 0.434380 0.542086
C66   C     C_R   0.829079 0.565625 0.026300 0.542493
Cu1   Cu    Cu3+1 0.995180 0.995180 0.424630 1.016327
Cu2   Cu    Cu3+1 0.004820 0.004820 0.575370 1.016326
Cu3   Cu    Cu3+1 0.995180 0.424630 0.995180 1.038569
Cu4   Cu    Cu3+1 0.004820 0.575370 0.004820 1.038568
Cu5   Cu    Cu3+1 0.424630 0.995180 0.995180 1.057581
Cu6   Cu    Cu3+1 0.575370 0.004820 0.004820 1.057582
H1    H     H_    0.492275 0.011007 0.719226 0.157793
H2    H     H_    0.492354 0.719518 0.010536 0.158803
H3    H     H_    0.987848 0.508234 0.280812 0.165703
H4    H     H_    0.012151 0.491766 0.719187 0.165704
H5    H     H_    0.367926 0.161389 0.589864 0.340488
H6    H     H_    0.632073 0.838609 0.410137 0.340490
H7    H     H_    0.167142 0.582558 0.371051 0.338500
H8    H     H_    0.832856 0.417445 0.628948 0.338503
H9    H     H_    0.691208 0.473921 0.847800 0.341308
H10   H     H_    0.308790 0.526082 0.152196 0.341304
H11   H     H_    0.346335 0.187899 0.464092 0.349415
H12   H     H_    0.507724 0.988993 0.280773 0.157793
H13   H     H_    0.653664 0.812101 0.535910 0.349414
H14   H     H_    0.590141 0.477296 0.798724 0.346110
H15   H     H_    0.409854 0.522707 0.201275 0.346112
H16   H     H_    0.191219 0.456090 0.352315 0.350024
H17   H     H_    0.808781 0.543913 0.647682 0.350022
H18   H     H_    0.752582 0.126314 0.682367 0.334068
H19   H     H_    0.247418 0.873686 0.317633 0.334068
H20   H     H_    0.126237 0.752567 0.682322 0.330050
H21   H     H_    0.873763 0.247433 0.317678 0.330050
H22   H     H_    0.752354 0.682214 0.126308 0.332285
H23   H     H_    0.017356 0.718037 0.489604 0.161925
H24   H     H_    0.247645 0.317786 0.873692 0.332285
H25   H     H_    0.982643 0.281963 0.510396 0.161926
H26   H     H_    0.717934 0.489257 0.018107 0.167318
H27   H     H_    0.282066 0.510742 0.981893 0.167317
H28   H     H_    0.282127 0.980991 0.511090 0.167324
H29   H     H_    0.717873 0.019009 0.488910 0.167324
H30   H     H_    0.507646 0.280482 0.989464 0.158804
O1    O     O_R   0.124540 0.978640 0.385460 -0.473993
O2    O     O_R   0.124540 0.385460 0.978640 -0.482964
O3    O     O_R   0.021360 0.875460 0.614540 -0.474955
O4    O     O_R   0.978640 0.124540 0.385460 -0.474954
O5    O     O_R   0.013780 0.867370 0.487190 -0.520797
O6    O     O_R   0.986220 0.132630 0.512810 -0.520797
O7    O     O_R   0.867370 0.487190 0.013780 -0.516434
O8    O     O_R   0.132630 0.512810 0.986220 -0.516435
O9    O     O_R   0.487190 0.013780 0.867370 -0.537998
O10   O     O_R   0.512810 0.986220 0.132630 -0.537997
O11   O     O_R   0.512810 0.132630 0.986220 -0.536777
O12   O     O_R   0.875460 0.021360 0.614540 -0.473994
O13   O     O_R   0.487190 0.867370 0.013780 -0.536777
O14   O     O_R   0.986220 0.512810 0.132630 -0.537459
O15   O     O_R   0.013780 0.487190 0.867370 -0.537459
O16   O     O_R   0.132630 0.986220 0.512810 -0.521035
O17   O     O_R   0.867370 0.013780 0.487190 -0.521035
O18   O     O_3   0.434027 0.143175 0.573876 -0.698070
O19   O     O_3   0.565973 0.856825 0.426124 -0.698073
O20   O     O_3   0.146634 0.568413 0.437060 -0.702897
O21   O     O_3   0.853366 0.431587 0.562940 -0.702896
O22   O     O_3   0.660820 0.524897 0.874183 -0.692705
O23   O     O_R   0.978640 0.385460 0.124540 -0.431607
O24   O     O_3   0.339180 0.475103 0.125817 -0.692704
O25   O     O_3   0.343914 0.129248 0.466537 -0.700492
O26   O     O_3   0.656086 0.870752 0.533463 -0.700495
O27   O     O_3   0.556978 0.437830 0.850209 -0.698288
O28   O     O_3   0.443021 0.562170 0.149791 -0.698288
O29   O     O_3   0.132825 0.459912 0.348121 -0.692240
O30   O     O_3   0.867174 0.540088 0.651878 -0.692241
O31   O     O_3   0.723534 0.080471 0.728785 -0.647010
O32   O     O_3   0.276466 0.919530 0.271215 -0.647009
O33   O     O_3   0.080312 0.723633 0.728768 -0.652496
O34   O     O_R   0.021360 0.614540 0.875460 -0.431607
O35   O     O_3   0.919687 0.276367 0.271232 -0.652496
O36   O     O_3   0.723454 0.728713 0.080429 -0.648799
O37   O     O_3   0.276546 0.271287 0.919570 -0.648799
O38   O     O_R   0.385460 0.124540 0.978640 -0.437563
O39   O     O_R   0.614540 0.875460 0.021360 -0.437563
O40   O     O_R   0.614540 0.021360 0.875460 -0.436724
O41   O     O_R   0.385460 0.978640 0.124540 -0.436723
O42   O     O_R   0.875460 0.614540 0.021360 -0.482964

loop_
_geom_bond_atom_site_label_1
_geom_bond_atom_site_label_2
_ccdc_geom_bond_type
C16   C28   A    
Cu6   O10   S    
C11   C18   A    
C50   C63   A    
C46   C59   A    
C8    O34   A    
C34   C42   A    
C7    C55   S    
H5    O18   S    
C10   C52   S    
C4    O41   A    
Cu1   O1    S    
C64   O3    A    
C4    C46   S    
Cu6   O40   S    
C18   C25   A    
C42   H3    S    
H17   O30   S    
C64   O5    A    
H15   O28   S    
C5    C53   S    
C26   O18   S    
C8    C57   S    
C27   O24   S    
C31   H1    S    
C66   O42   A    
C55   C61   A    
C1    C31   A    
C23   C43   A    
C34   C35   A    
Cu3   O15   S    
H6    O19   S    
C19   C26   A    
C21   O29   S    
C10   O17   A    
C2    C50   S    
C18   O26   S    
C47   C60   A    
C37   C56   A    
Cu3   O7    S    
C24   O27   S    
H10   O24   S    
C30   O20   S    
C3    O9    A    
C40   C56   A    
C9    C51   S    
C39   H29   S    
C48   C65   S    
Cu4   O8    S    
C15   C34   S    
C10   O12   A    
Cu2   O16   S    
C39   C52   A    
C4    O10   A    
Cu3   O23   S    
C12   C32   A    
Cu4   O34   S    
C9    O16   A    
C13   C25   A    
C3    O40   A    
C63   O37   S    
H24   O37   S    
C35   C48   A    
C33   H23   S    
C14   C23   S    
C8    O15   A    
C15   C29   A    
C20   C29   A    
Cu1   O5    S    
C58   O31   S    
Cu6   O39   S    
C32   H12   S    
H7    O20   S    
C3    C44   S    
C17   C24   A    
C49   C66   S    
C13   C19   A    
H9    O22   S    
Cu1   Cu2   S    
C17   C27   A    
C14   C20   A    
C38   H28   S    
C31   C44   A    
C44   C58   A    
C47   C64   S    
H18   O31   S    
C1    C39   A    
C57   C60   A    
C38   C51   A    
C54   C62   A    
C11   C26   A    
C23   C33   A    
C14   C30   A    
Cu6   O11   S    
C7    O23   A    
Cu5   O9    S    
C7    O14   A    
C20   O30   S    
C42   C55   A    
C60   O33   S    
C2    O2    A    
C9    O1    A    
Cu5   O13   S    
C36   C45   A    
H14   O27   S    
C62   O36   S    
C6    O39   A    
C41   C54   A    
C17   C56   S    
C52   C58   A    
C6    C54   S    
C22   C27   A    
H22   O36   S    
H20   O33   S    
C51   C59   A    
Cu2   O3    S    
C65   O4    A    
C37   H27   S    
C5    O38   A    
Cu5   O41   S    
Cu3   O2    S    
C43   H4    S    
C2    O8    A    
C16   C22   A    
C49   C62   A    
C65   O6    A    
C5    O11   A    
C32   C46   A    
C24   C28   A    
H11   O25   S    
C16   C45   S    
C28   O22   S    
Cu1   O4    S    
Cu5   O38   S    
C21   C30   A    
C59   O32   S    
Cu4   O42   S    
Cu4   O14   S    
Cu5   Cu6   S    
C41   H2    S    
C37   C50   A    
C53   C63   A    
C61   O35   S    
C48   C61   A    
H19   O32   S    
C25   O19   S    
C33   C47   A    
C29   O21   S    
C19   O25   S    
C66   O7    A    
C12   C38   A    
Cu3   Cu4   S    
C6    O13   A    
H21   O35   S    
C43   C57   A    
C40   H30   S    
C15   C21   A    
C12   C13   S    
C40   C53   A    
C41   C45   A    
H13   O26   S    
C36   H26   S    
C1    C11   S    
Cu2   O6    S    
H16   O29   S    
C35   H25   S    
Cu1   O17   S    
C22   O28   S    
C36   C49   A    
Cu2   O12   S    
H8    O21   S    
