data_mof_unit_29657.cif
_audit_creation_date              2013-03-05T16:01:46-0500
_audit_creation_method            fapswitch 2.2
_symmetry_space_group_name_H-M    P1
_symmetry_Int_Tables_number       1
_space_group_crystal_system       triclinic
_cell_length_a                    14.690473
_cell_length_b                    14.611276
_cell_length_c                    27.814353
_cell_angle_alpha                 76.876425
_cell_angle_beta                  102.620311
_cell_angle_gamma                 114.590835
_cell_volume                      5234.89194761

loop_
_atom_site_label
_atom_site_type_symbol
_atom_site_description
_atom_site_fract_x
_atom_site_fract_y
_atom_site_fract_z
_atom_type_partial_charge
O1    O     O_R   0.977900 0.338120 0.517190 -0.538373
O2    O     O_R   0.022100 0.661880 0.482810 -0.540960
O3    O     O_R   0.839850 0.379180 0.495160 -0.598698
O4    O     O_R   0.160150 0.620820 0.504840 -0.597044
C1    C     C_R   0.880593 0.311801 0.507692 0.836108
C2    C     C_R   0.119345 0.688067 0.492655 0.835967
O5    O     O_R   0.069030 0.479490 0.580750 -0.592278
O6    O     O_R   0.930970 0.520510 0.419250 -0.591396
O7    O     O_R   0.930970 0.520550 0.558720 -0.580591
O8    O     O_R   0.069030 0.479450 0.441280 -0.582065
C3    C     C_R   0.999422 0.500106 0.592435 0.799157
C4    C     C_R   0.000585 0.499908 0.407561 0.797839
Cu1   Cu    Cu3+1 0.081740 0.475690 0.513040 0.962161
Cu2   Cu    Cu3+1 0.918260 0.524310 0.486960 0.961962
C5    C     C_R   0.924179 0.423601 0.822323 0.532198
C6    C     C_R   0.080132 0.571005 0.178641 0.532198
O9    O     O_2   0.854365 0.347114 0.798587 -0.543575
O10   O     O_2   0.154741 0.643112 0.203343 -0.544148
N1    N     N_R   0.995977 0.502070 0.797126 -0.467461
N2    N     N_R   0.003528 0.497357 0.202816 -0.466994
C7    C     C_R   0.068095 0.580387 0.820171 0.533666
C8    C     C_R   0.926522 0.423670 0.178713 0.533358
C9    C     C_R   0.074171 0.485431 0.731869 -0.106057
C10   C     C_R   0.928593 0.519576 0.267850 -0.105194
C11   C     C_R   0.075034 0.484759 0.681953 -0.216404
C12   C     C_R   0.927799 0.520275 0.317770 -0.216703
C13   C     C_R   0.920472 0.516598 0.659316 -0.211693
C14   C     C_R   0.076572 0.478299 0.340925 -0.213092
C15   C     C_R   0.919671 0.516969 0.709319 -0.104682
C16   C     C_R   0.077181 0.477658 0.290933 -0.103963
C17   C     C_R   0.996571 0.501534 0.745717 0.357147
C18   C     C_R   0.003149 0.498176 0.254243 0.354849
C19   C     C_R   0.997340 0.501188 0.897587 -0.043972
C20   C     C_R   0.002049 0.497965 0.102349 -0.044088
C21   C     C_R   0.923422 0.421796 0.872921 -0.019735
C22   C     C_R   0.080855 0.572612 0.128060 -0.019471
C23   C     C_R   0.851163 0.341887 0.899260 -0.147299
C24   C     C_R   0.158540 0.647142 0.102896 -0.147038
C25   C     C_R   0.070244 0.581294 0.870769 -0.021125
C26   C     C_R   0.924290 0.422694 0.128114 -0.020825
C27   C     C_R   0.998241 0.500485 0.645183 -0.037088
C28   C     C_R   0.001737 0.499518 0.354803 -0.038012
H1    H     H_    0.860222 0.528745 0.631824 0.161051
H2    H     H_    0.134544 0.462111 0.368624 0.162547
H3    H     H_    0.859532 0.529583 0.719823 0.142279
H4    H     H_    0.134933 0.460859 0.280665 0.144059
H5    H     H_    0.794258 0.279244 0.881313 0.186304
H6    H     H_    0.220756 0.704614 0.121984 0.186228
C29   C     C_R   0.922004 0.421284 0.025982 0.042305
C30   C     C_R   0.075222 0.579873 0.973500 0.042235
C31   C     C_R   0.078641 0.576874 0.025297 0.042214
C32   C     C_R   0.922869 0.420090 0.975106 0.042214
C33   C     C_R   0.000914 0.498686 0.050996 0.067718
C34   C     C_R   0.998458 0.500397 0.948945 0.067764
C35   C     C_R   0.844301 0.347824 0.052923 -0.203439
C36   C     C_R   0.145779 0.660325 0.945026 -0.203440
C37   C     C_R   0.845759 0.348569 0.102911 -0.146999
C38   C     C_R   0.143309 0.660674 0.894805 -0.147001
O11   O     O_2   0.852662 0.351225 0.203745 -0.539936
O12   O     O_2   0.137233 0.657323 0.794112 -0.539256
C39   C     C_R   0.850836 0.340719 0.949275 -0.203613
C40   C     C_R   0.157812 0.649258 0.052659 -0.203650
H7    H     H_    0.869293 0.537021 0.327301 0.161471
H8    H     H_    0.135901 0.472142 0.672204 0.161766
H9    H     H_    0.871375 0.535888 0.239639 0.142994
H10   H     H_    0.133658 0.473159 0.759891 0.141634
H11   H     H_    0.784416 0.290513 0.121734 0.186511
H12   H     H_    0.199351 0.723936 0.874833 0.186411
H13   H     H_    0.779738 0.289133 0.036410 0.140097
H14   H     H_    0.203447 0.725653 0.960084 0.140247
H15   H     H_    0.793635 0.275050 0.966703 0.140177
H16   H     H_    0.221829 0.708165 0.036694 0.140165
C41   C     C_R   0.813839 0.203050 0.510676 -0.150393
C42   C     C_R   0.186115 0.796022 0.492967 -0.152107
C43   C     C_R   0.780214 0.026950 0.508445 -0.280852
C44   C     C_R   0.221625 0.966688 0.505964 -0.278075
C45   C     C_R   0.849705 0.127420 0.510425 0.497441
C46   C     C_R   0.151263 0.868853 0.498675 0.495720
C47   C     C_R   0.711017 0.176046 0.511882 -0.327119
C48   C     C_R   0.288909 0.823702 0.491690 -0.322497
C49   C     C_R   0.640799 0.075225 0.511213 0.095424
C50   C     C_R   0.360868 0.920143 0.500809 0.096626
C51   C     C_R   0.677012 0.000815 0.508552 0.093250
C52   C     C_R   0.325251 0.992411 0.507231 0.092010
C53   C     C_R   0.535359 0.047230 0.511034 0.083942
C54   C     C_R   0.466887 0.946211 0.504361 0.083876
C55   C     C_R   0.506903 0.874097 0.502691 -0.211527
C56   C     C_R   0.496218 0.116448 0.517806 -0.209802
C57   C     C_R   0.609845 0.901061 0.505047 -0.197838
C58   C     C_R   0.393344 0.089226 0.515980 -0.196324
H17   H     H_    0.636941 0.843313 0.503448 0.152696
H18   H     H_    0.366918 0.144609 0.521644 0.151037
H19   H     H_    0.310553 0.767296 0.483925 0.161683
H20   H     H_    0.687179 0.236513 0.511475 0.167867
H21   H     H_    0.806492 0.969735 0.505162 0.145660
H22   H     H_    0.195513 0.021568 0.512481 0.145784
H23   H     H_    0.461268 0.795001 0.500568 0.142382
H24   H     H_    0.543011 0.191991 0.526014 0.137571
N3    N     N_R   0.795430 0.560780 0.467350 -0.173139
N4    N     N_R   0.204570 0.439220 0.532650 -0.173284
C59   C     C_R   0.717193 0.672127 0.418752 -0.329406
C60   C     C_R   0.283659 0.329188 0.581984 -0.332352
C61   C     C_R   0.797863 0.640816 0.430908 0.093428
C62   C     C_R   0.202528 0.359822 0.569430 0.095231
C63   C     C_R   0.714554 0.508508 0.492720 0.013943
C64   C     C_R   0.285641 0.491737 0.507432 0.011708
C65   C     C_R   0.629189 0.535873 0.481831 -0.020755
C66   C     C_R   0.371607 0.465285 0.518840 -0.019876
C67   C     C_R   0.632931 0.620376 0.444172 0.164606
C68   C     C_R   0.368105 0.381165 0.556709 0.167891
C69   C     C_R   0.541563 0.483696 0.506965 0.081361
C70   C     C_R   0.459539 0.517903 0.493959 0.078723
C71   C     C_R   0.468478 0.603765 0.456756 -0.239680
C72   C     C_R   0.533050 0.398469 0.544532 -0.236212
C73   C     C_R   0.553184 0.653379 0.432361 -0.197610
C74   C     C_R   0.448349 0.348876 0.568929 -0.203901
H25   H     H_    0.556408 0.718790 0.403956 0.149495
H26   H     H_    0.445461 0.283942 0.597604 0.147048
H27   H     H_    0.280222 0.552405 0.478209 0.118748
H28   H     H_    0.719673 0.447285 0.521643 0.117893
H29   H     H_    0.136956 0.319309 0.588625 0.124479
H30   H     H_    0.863454 0.681402 0.411728 0.122943
H31   H     H_    0.720992 0.736933 0.389888 0.140950
H32   H     H_    0.280120 0.264794 0.611076 0.139811
H33   H     H_    0.411211 0.635254 0.445601 0.130925
H34   H     H_    0.590832 0.367713 0.556130 0.128077
O13   O     O_3   0.050836 0.840840 0.503289 -0.563822
C75   C     C_3   0.005484 0.890203 0.461641 -0.307436
H35   H     H_    0.923068 0.859391 0.463206 0.188411
H36   H     H_    0.015509 0.875303 0.425985 0.149791
H37   H     H_    0.034981 0.973475 0.462249 0.168516
O14   O     O_3   0.949847 0.154250 0.505524 -0.563761
C76   C     C_3   0.996773 0.108486 0.548070 -0.313033
H38   H     H_    0.985912 0.125001 0.583126 0.150129
H39   H     H_    0.079243 0.140849 0.546468 0.186883
H40   H     H_    0.969549 0.025011 0.548765 0.169200

loop_
_geom_bond_atom_site_label_1
_geom_bond_atom_site_label_2
_geom_bond_distance
_ccdc_geom_bond_type
N3    C61   1.356104 A    
C64   H27   1.075183 S    
C13   C15   1.394658 A    
C69   C70   1.435720 A    
C12   H7    1.083001 S    
N1    C17   1.433647 S    
C75   H35   1.109480 S    
C44   C52   1.402255 A    
C43   H21   1.083930 S    
Cu2   N3    2.018815 S    
C53   C54   1.425493 A    
O5    C3    1.299261 A    
C63   C65   1.421484 A    
C19   C25   1.408084 A    
O1    C1    1.297961 A    
C44   C46   1.401156 A    
C9    H10   1.082881 S    
N1    C7    1.367506 A    
C10   C12   1.393478 A    
C32   C39   1.416218 A    
C72   H34   1.076340 S    
C71   H33   1.076557 S    
C59   C67   1.401638 A    
N4    C62   1.356037 A    
C14   C28   1.406120 A    
O4    Cu1   1.933335 S    
C51   C57   1.390333 A    
C4    C28   1.472538 S    
C36   C38   1.388309 A    
O14   C76   1.410888 S    
C73   H25   1.084287 S    
C76   H40   1.111140 S    
C63   H28   1.075080 S    
C23   H5    1.083557 S    
C24   H6    1.083542 S    
O6    C4    1.299280 A    
C39   H15   1.075868 S    
C59   C61   1.390659 A    
C42   C48   1.397791 A    
Cu1   Cu2   2.687603 S    
C65   C67   1.416355 A    
O2    C2    1.297654 A    
C31   C40   1.416138 A    
C52   C58   1.390390 A    
C37   H11   1.083541 S    
C60   H32   1.083827 S    
C46   O13   1.384514 S    
C5    C21   1.403991 A    
C70   C71   1.412330 A    
C49   C51   1.416221 A    
C32   C34   1.421375 A    
C49   C53   1.427189 A    
C2    C42   1.471421 S    
N3    C63   1.363549 A    
C47   H20   1.074503 S    
C48   C50   1.404577 A    
C11   C27   1.405811 A    
C8    O11   1.349842 S    
C47   C49   1.404948 A    
C54   C55   1.416902 A    
C62   H29   1.081670 S    
C29   C35   1.416126 A    
C25   C38   1.395247 A    
C14   H2    1.083028 S    
C30   C36   1.416086 A    
C66   C70   1.435661 A    
C15   H3    1.082880 S    
C72   C74   1.388926 A    
C31   C33   1.421279 A    
C11   H8    1.082997 S    
C9    C17   1.399837 A    
C5    N1    1.367430 A    
O7    Cu2   1.953875 S    
C10   C18   1.400177 A    
O7    C3    1.300205 A    
C13   C27   1.406181 A    
C58   H18   1.084620 S    
C7    C25   1.403758 A    
C6    N2    1.367753 A    
C29   C32   1.422043 A    
C8    C26   1.403778 A    
C30   C31   1.421841 A    
C41   C47   1.399485 A    
C40   H16   1.075961 S    
C6    O10   1.349794 S    
C59   H31   1.083815 S    
C60   C62   1.390672 A    
C43   C45   1.401816 A    
C35   H13   1.075864 S    
O3    Cu2   1.933335 S    
O8    C4    1.300288 A    
C10   H9    1.082889 S    
C7    O12   1.349841 S    
C38   H12   1.083566 S    
C56   C58   1.385661 A    
C50   C52   1.416678 A    
C35   C37   1.388320 A    
C76   H38   1.114141 S    
C20   C26   1.407915 A    
C60   C68   1.401589 A    
O4    C2    1.299945 A    
C57   H17   1.084754 S    
O13   C75   1.410421 S    
C75   H37   1.111658 S    
C68   C74   1.393814 A    
C12   C28   1.405775 A    
N2    C18   1.434434 S    
C53   C56   1.416620 A    
C19   C34   1.422479 A    
C5    O9    1.349785 S    
O6    Cu2   1.947967 S    
C26   C37   1.395273 A    
C21   C23   1.395217 A    
C65   C69   1.435772 A    
C16   H4    1.082880 S    
N2    C8    1.367861 A    
O3    C1    1.300917 A    
O8    Cu1   1.953873 S    
C75   H36   1.114080 S    
C23   C39   1.388407 A    
C66   C68   1.416323 A    
N4    C64   1.363548 A    
C36   H14   1.075969 S    
Cu1   N4    2.018818 S    
C14   C16   1.394661 A    
C30   C34   1.421388 A    
C50   C54   1.427117 A    
C44   H22   1.084153 S    
C16   C18   1.400557 A    
C43   C51   1.401406 A    
C71   C73   1.388949 A    
C64   C66   1.421406 A    
C29   C33   1.421485 A    
C22   C24   1.395274 A    
C19   C21   1.408177 A    
C74   H26   1.084324 S    
C3    C27   1.472337 S    
C69   C72   1.412363 A    
C20   C22   1.408124 A    
C9    C11   1.393514 A    
C1    C41   1.473853 S    
O2    Cu2   1.949448 S    
C56   H24   1.075802 S    
C67   C73   1.393896 A    
C13   H1    1.083055 S    
O5    Cu1   1.947967 S    
O1    Cu1   1.949448 S    
C20   C33   1.422503 A    
C15   C17   1.400214 A    
C42   C46   1.409079 A    
C76   H39   1.109325 S    
C55   C57   1.385292 A    
C41   C45   1.410133 A    
C24   C40   1.388390 A    
C48   H19   1.075146 S    
C61   H30   1.081721 S    
C45   O14   1.385608 S    
C6    C22   1.404015 A    
C55   H23   1.075835 S    
