data_mof_unit_22298.cif
_audit_creation_date              2012-10-26T18:54:54-0400
_audit_creation_method            fapswitch 2.2
_symmetry_space_group_name_H-M    P1
_symmetry_Int_Tables_number       1
_space_group_crystal_system       triclinic
_cell_length_a                    10.8333
_cell_length_b                    9.519304
_cell_length_c                    10.872655
_cell_angle_alpha                 90.053523
_cell_angle_beta                  90.198111
_cell_angle_gamma                 90.002717
_cell_volume                      1121.24052926

loop_
_atom_site_label
_atom_site_type_symbol
_atom_type_description
_atom_site_fract_x
_atom_site_fract_y
_atom_site_fract_z
_atom_type_partial_charge
C1    C     C_R   0.262066 0.499964 0.499868 0.558060
C2    C     C_R   0.498564 0.621584 0.938209 0.029109
C3    C     C_R   0.499673 0.498067 0.130045 0.012557
C4    C     C_R   0.503622 0.498457 0.869995 0.009865
C5    C     C_R   0.507667 0.370301 0.064448 -0.140084
C6    C     C_R   0.509106 0.370459 0.935396 -0.139679
C7    C     C_3   0.488381 0.777490 0.929623 0.129559
C8    C     C_3   0.481970 0.776755 0.071311 0.126170
C9    C     C_R   0.063848 0.372329 0.500170 -0.125318
C10   C     C_R   0.936146 0.372331 0.500334 -0.125655
C11   C     C_R   0.871783 0.499993 0.500076 0.025907
C12   C     C_R   0.737936 0.499968 0.500090 0.555026
C13   C     C_R   0.128220 0.499988 0.499805 0.027051
C14   C     C_R   0.936152 0.627661 0.499690 -0.116670
C15   C     C_R   0.063863 0.627659 0.499501 -0.114304
C16   C     C_R   0.409388 0.074314 0.440449 0.026937
C17   C     C_R   0.590673 0.074449 0.559456 0.033467
C18   C     C_R   0.409014 0.925574 0.441106 0.034826
C19   C     C_R   0.591090 0.925705 0.558732 0.046053
C20   C     C_R   0.499211 0.499809 0.262615 0.570069
C21   C     C_R   0.501329 0.499951 0.737396 0.565648
C22   C     C_R   0.493998 0.621157 0.062113 0.028164
Cl1   Cl    Cl    0.627292 0.855067 0.874087 -0.648261
Cl2   Cl    Cl    0.333817 0.827243 0.127271 -0.642264
Cu1   Cu    Cu3+1 0.500000 0.640660 0.500000 0.998623
Cu2   Cu    Cu3+1 0.500000 0.359340 0.500000 0.963592
H1    H     H_    0.512470 0.270548 0.112063 0.165150
H2    H     H_    0.663136 0.130341 0.607568 0.129352
H3    H     H_    0.335767 0.869645 0.394420 0.167465
H4    H     H_    0.664369 0.869869 0.605420 0.163492
H5    H     H_    0.514124 0.270740 0.887609 0.170950
H6    H     H_    0.402828 0.812589 0.881977 0.177088
H7    H     H_    0.561367 0.826876 0.119298 0.175642
H8    H     H_    0.111867 0.272511 0.500368 0.133091
H9    H     H_    0.888119 0.272515 0.500667 0.132357
H10   H     H_    0.888124 0.727474 0.499507 0.134404
H11   H     H_    0.111900 0.727470 0.499142 0.136434
H12   H     H_    0.336929 0.130099 0.392332 0.130152
N1    N     N_R   0.500000 0.852070 0.500000 -0.239653
N2    N     N_R   0.500000 0.147940 0.500000 -0.237620
O1    O     O_R   0.319640 0.618740 0.499990 -0.511073
O2    O     O_R   0.680360 0.618740 0.500010 -0.514005
O3    O     O_R   0.319620 0.381170 0.499990 -0.515695
O4    O     O_R   0.680380 0.381170 0.500010 -0.517132
O5    O     O_R   0.499990 0.618810 0.319660 -0.476933
O6    O     O_R   0.500010 0.618810 0.680340 -0.473263
O7    O     O_R   0.499960 0.381240 0.319650 -0.510011
O8    O     O_R   0.500040 0.381240 0.680350 -0.508638

loop_
_geom_bond_atom_site_label_1
_geom_bond_atom_site_label_2
_ccdc_geom_bond_type
Cu1   O2    S    
C2    C22   A    
C1    O1    A    
C2    C4    A    
C11   C12   S    
C10   H9    S    
C9    C10   A    
C8    C22   S    
C20   O5    A    
Cu2   O8    S    
C18   N1    A    
C21   O8    A    
C6    H5    S    
Cu2   O4    S    
C7    C8    S    
C12   O4    A    
C18   H3    S    
Cu1   N1    S    
C4    C21   S    
C17   H2    S    
Cu2   N2    S    
C9    H8    S    
C19   N1    A    
Cu2   O7    S    
C16   N2    A    
C7    Cl1   S    
C4    C6    A    
C17   C19   A    
Cu2   O3    S    
C8    H7    S    
C13   C15   A    
C14   H10   S    
C5    C6    A    
C11   C14   A    
C20   O7    A    
C1    C13   S    
C10   C11   A    
Cu1   O5    S    
C3    C20   S    
C16   C18   A    
C21   O6    A    
Cu1   O1    S    
C9    C13   A    
C14   C15   A    
C15   H11   S    
C3    C22   A    
C12   O2    A    
C7    H6    S    
C8    Cl2   S    
Cu1   Cu2   S    
C5    H1    S    
C19   H4    S    
Cu1   O6    S    
C1    O3    A    
C2    C7    S    
C16   H12   S    
C3    C5    A    
C17   N2    A    
