data_mof_unit_33223.cif
_audit_creation_date              2012-12-10T20:27:09-0500
_audit_creation_method            fapswitch 2.2
_symmetry_space_group_name_H-M    P1
_symmetry_Int_Tables_number       1
_space_group_crystal_system       triclinic
_cell_length_a                    10.584849
_cell_length_b                    10.698362
_cell_length_c                    9.861466
_cell_angle_alpha                 90.2404
_cell_angle_beta                  103.200457
_cell_angle_gamma                 90.347701
_cell_volume                      1087.17296712

loop_
_atom_site_label
_atom_site_type_symbol
_atom_type_description
_atom_site_fract_x
_atom_site_fract_y
_atom_site_fract_z
_atom_type_partial_charge
C1    C     C_R   0.498075 0.260072 0.499486 0.883546
C2    C     C_R   0.484606 0.128399 0.497519 -0.111483
C3    C     C_R   0.443580 0.063695 0.371108 -0.239111
C4    C     C_R   0.443121 0.934337 0.371182 -0.226731
C5    C     C_R   0.482614 0.871160 0.497991 -0.074562
C6    C     C_R   0.502272 0.936520 0.623288 0.049695
C7    C     C_3   0.606449 0.926077 0.754351 -0.558391
C8    C     C_3   0.610490 0.068685 0.754401 0.355568
C9    C     C_R   0.397382 0.450939 0.045950 0.216357
C10   C     C_R   0.595952 0.558166 0.095749 -0.101545
C11   C     C_R   0.595976 0.558155 0.951769 -0.137444
C12   C     C_R   0.257827 0.494911 0.442561 0.934572
C13   C     C_R   0.396802 0.451693 0.903220 0.220710
C14   C     C_3   0.348004 0.320297 0.884851 -0.513718
C15   C     C_3   0.350766 0.318995 0.039237 -0.516868
C16   C     C_R   0.497799 0.739869 0.499779 0.872443
C17   C     C_R   0.741836 0.491948 0.556800 0.966200
C18   C     C_2   0.119796 0.470292 0.411083 -0.368442
C19   C     C_2   0.069187 0.414196 0.507381 -0.316982
C20   C     C_2   0.879391 0.464648 0.585240 -0.451056
C21   C     C_2   0.929467 0.406151 0.488537 0.514672
C22   C     C_R   0.505027 0.063928 0.622743 -0.012021
H1    H     H_    0.674608 0.603207 0.169484 0.157318
H2    H     H_    0.674588 0.603240 0.916949 0.148226
H3    H     H_    0.248126 0.313550 0.818890 0.188954
H4    H     H_    0.418597 0.255625 0.855028 0.211533
H5    H     H_    0.252908 0.310511 0.061870 0.200003
H6    H     H_    0.425264 0.254993 0.098603 0.211543
H7    H     H_    0.128747 0.389614 0.608442 0.161396
H8    H     H_    0.941063 0.496095 0.683458 0.116133
H9    H     H_    0.059951 0.496600 0.310508 0.168324
H10   H     H_    0.418059 0.112023 0.272760 0.162131
H11   H     H_    0.418281 0.884640 0.272618 0.169059
H12   H     H_    0.567775 0.887388 0.841337 0.179490
H13   H     H_    0.695490 0.878951 0.739175 0.200847
H14   H     H_    0.574609 0.108078 0.842791 0.095907
N1    N     N_R   0.499160 0.499140 0.142600 -0.103536
N2    N     N_R   0.499160 0.499180 0.856960 -0.103876
O1    O     O_R   0.500020 0.316790 0.614700 -0.610883
O2    O     O_R   0.500000 0.316760 0.385350 -0.619205
O3    O     O_R   0.317820 0.500020 0.571850 -0.605835
O4    O     O_R   0.317800 0.499980 0.342510 -0.619633
O5    O     O_R   0.500000 0.683240 0.614650 -0.610854
O6    O     O_R   0.499980 0.683210 0.385300 -0.632418
O7    O     O_R   0.682200 0.500020 0.657490 -0.617502
O8    O     O_R   0.682180 0.499980 0.428150 -0.551864
Zn1   Zn    Zn3+2 0.500010 0.500020 0.653140 0.950552
Zn2   Zn    Zn3+2 0.499990 0.499980 0.346860 0.958725
O9    O     O_3   0.849567 0.364793 0.363334 -0.580598
C23   C     C_3   0.897267 0.254633 0.314041 0.100409
H15   H     H_    0.937749 0.188885 0.399933 0.126506
H16   H     H_    0.973346 0.278156 0.256932 0.158757
C24   C     C_3   0.786103 0.188497 0.213683 -0.816862
H17   H     H_    0.744376 0.250834 0.125132 0.268670
H18   H     H_    0.822027 0.102203 0.172524 0.210267
H19   H     H_    0.708896 0.162770 0.268409 0.246311
O10   O     O_3   0.731882 0.124537 0.748131 -0.588354
C25   C     C_3   0.780780 0.092714 0.630088 0.149196
H20   H     H_    0.762403 0.171294 0.555118 0.155700
H21   H     H_    0.737884 0.006828 0.574085 0.134081
C26   C     C_3   0.926659 0.074140 0.676443 -0.868934
H22   H     H_    0.948005 0.000984 0.757933 0.259701
H23   H     H_    0.966259 0.043770 0.586797 0.201031
H24   H     H_    0.974836 0.163032 0.719218 0.254172

loop_
_geom_bond_atom_site_label_1
_geom_bond_atom_site_label_2
_ccdc_geom_bond_type
C2    C22   A    
C11   N2    A    
C8    C22   S    
C6    C7    S    
C10   H1    S    
C26   H24   S    
C16   O6    A    
C15   H5    S    
C20   C21   D    
C25   C26   S    
C21   O9    S    
C2    C3    A    
O3    Zn1   S    
C7    C8    S    
C19   H7    S    
C20   H8    S    
C24   H17   S    
C14   H4    S    
N1    Zn2   S    
C16   O5    A    
N2    Zn1   S    
C3    H10   S    
C7    H13   S    
C10   N1    A    
C5    C6    A    
C9    N1    A    
C19   C21   S    
C17   O7    A    
O9    C23   S    
O10   C25   S    
C24   H18   S    
C14   H3    S    
C9    C15   S    
C26   H22   S    
C8    O10   S    
C7    H12   S    
O8    Zn2   S    
C24   H19   S    
C23   C24   S    
C10   C11   A    
C1    O1    A    
C25   H21   S    
C3    C4    A    
C15   H6    S    
C11   H2    S    
C17   C20   S    
O4    Zn2   S    
C17   O8    A    
C12   O3    A    
O1    Zn1   S    
C1    C2    S    
C8    H14   S    
O7    Zn1   S    
C12   C18   S    
C23   H16   S    
C26   H23   S    
C4    H11   S    
C9    C13   A    
C14   C15   S    
C18   C19   D    
C5    C16   S    
C12   O4    A    
C18   H9    S    
C1    O2    A    
C23   H15   S    
C25   H20   S    
C13   C14   S    
O5    Zn1   S    
O2    Zn2   S    
C13   N2    A    
O6    Zn2   S    
C4    C5    A    
C6    C22   A    
