data_mof_unit_50894.cif
_audit_creation_date              2012-12-10T18:00:16-0500
_audit_creation_method            fapswitch 2.2
_symmetry_space_group_name_H-M    P1
_symmetry_Int_Tables_number       1
_space_group_crystal_system       triclinic
_cell_length_a                    10.977778
_cell_length_b                    9.612138
_cell_length_c                    10.639009
_cell_angle_alpha                 89.885145
_cell_angle_beta                  93.07809
_cell_angle_gamma                 90.9227
_cell_volume                      1120.86161673

loop_
_atom_site_label
_atom_site_type_symbol
_atom_type_description
_atom_site_fract_x
_atom_site_fract_y
_atom_site_fract_z
_atom_type_partial_charge
C1    C     C_R   0.871483 0.503562 0.491236 -0.119647
C2    C     C_R   0.128517 0.496438 0.508764 -0.119647
C3    C     C_R   0.262660 0.498694 0.504311 0.790658
C4    C     C_R   0.737340 0.501306 0.495689 0.790658
C5    C     C_R   0.499305 0.500283 0.259629 0.853667
C6    C     C_R   0.500695 0.499717 0.740371 0.853667
C7    C     C_3   0.497507 0.633632 0.040262 -0.197597
C8    C     C_3   0.502493 0.366368 0.959737 -0.197597
C9    C     C_3   0.600177 0.570738 0.963808 -0.284997
C10   C     C_3   0.399823 0.429262 0.036192 -0.284997
C11   C     C_3   0.401311 0.559871 0.952559 0.451510
C12   C     C_3   0.598689 0.440128 0.047441 0.451510
C13   C     C_3   0.501490 0.498649 0.877052 -0.081613
C14   C     C_3   0.498510 0.501351 0.122948 -0.081613
C15   C     C_R   0.442615 0.072604 0.403348 0.454444
C16   C     C_R   0.557385 0.927396 0.596652 0.454444
C17   C     C_R   0.557852 0.074280 0.596388 0.429742
C18   C     C_R   0.442148 0.925720 0.403612 0.429742
C19   C     C_R   0.059407 0.374546 0.476036 -0.084821
C20   C     C_R   0.940593 0.625454 0.523964 -0.084821
C21   C     C_R   0.932374 0.380267 0.461047 -0.084061
C22   C     C_R   0.067626 0.619733 0.538953 -0.084061
Cu1   Cu    Cu3+1 0.500000 0.640660 0.500000 0.985185
Cu2   Cu    Cu3+1 0.500000 0.359340 0.500000 0.985185
H1    H     H_    0.492835 0.742391 0.074381 0.213235
H2    H     H_    0.507165 0.257609 0.925619 0.213235
H3    H     H_    0.682830 0.625782 0.932239 0.178626
H4    H     H_    0.317170 0.374218 0.067761 0.178626
N1    N     N_R   0.500000 0.852070 0.500000 -0.335889
N2    N     N_R   0.500000 0.147930 0.500000 -0.335889
O1    O     O_R   0.319640 0.618740 0.499990 -0.601552
O2    O     O_R   0.680360 0.381260 0.500010 -0.601552
O3    O     O_R   0.680360 0.618740 0.500010 -0.604549
O4    O     O_R   0.319640 0.381260 0.499990 -0.604549
O5    O     O_R   0.499970 0.618770 0.316850 -0.584914
O6    O     O_R   0.500030 0.381230 0.683150 -0.584914
O7    O     O_R   0.500030 0.618770 0.683150 -0.550015
O8    O     O_R   0.499970 0.381230 0.316850 -0.550015
O9    O     O_3   0.380578 0.135881 0.303789 -0.657202
H5    H     H_    0.344366 0.220866 0.335612 0.357109
O10   O     O_3   0.619422 0.864119 0.696211 -0.657202
H6    H     H_    0.655634 0.779134 0.664387 0.357108
O11   O     O_3   0.621144 0.139330 0.695199 -0.676230
H7    H     H_    0.660059 0.223606 0.662235 0.357057
O12   O     O_3   0.378856 0.860670 0.304801 -0.676230
H8    H     H_    0.339941 0.776394 0.337765 0.357057
O13   O     O_3   0.297574 0.622738 0.897518 -0.703982
H9    H     H_    0.249788 0.652491 0.968907 0.330340
O14   O     O_3   0.702426 0.377262 0.102482 -0.703982
H10   H     H_    0.750212 0.347509 0.031093 0.330340
C23   C     C_1   0.114781 0.239233 0.463581 0.289318
N3    N     N_1   0.156200 0.129945 0.454891 -0.248550
C24   C     C_1   0.885219 0.760767 0.536419 0.289318
N4    N     N_1   0.843800 0.870054 0.545109 -0.248550
C25   C     C_1   0.866438 0.259586 0.407486 0.343980
N5    N     N_1   0.814431 0.163641 0.364705 -0.219253
C26   C     C_1   0.133562 0.740414 0.592514 0.343980
N6    N     N_1   0.185569 0.836359 0.635295 -0.219253

loop_
_geom_bond_atom_site_label_1
_geom_bond_atom_site_label_2
_ccdc_geom_bond_type
C2    C22   A    
C15   C18   A    
Cu2   O8    S    
C25   N5    T    
C17   O11   S    
C1    C21   A    
C8    C13   S    
C19   C23   S    
C8    H2    S    
O10   H6    S    
C11   O13   S    
O13   H9    S    
C7    H1    S    
C8    C12   S    
C1    C4    S    
C22   C26   S    
Cu2   O2    S    
C2    C3    S    
C26   N6    T    
C6    O7    A    
C21   C25   S    
C18   N1    A    
C4    O2    A    
C24   N4    T    
C6    C13   S    
C7    C11   S    
C17   N2    A    
C11   C13   S    
C15   O9    S    
C5    C14   S    
Cu2   O6    S    
C3    O1    A    
C5    O5    A    
C19   C21   A    
C6    O6    A    
C12   O14   S    
Cu1   O5    S    
O11   H7    S    
C9    C12   S    
Cu2   N2    S    
O12   H8    S    
C16   N1    A    
C10   C11   S    
C20   C22   A    
Cu1   Cu2   S    
C23   N3    T    
C18   O12   S    
Cu1   N1    S    
C5    O8    A    
C9    H3    S    
C15   N2    A    
C8    C10   S    
O14   H10   S    
C10   C14   S    
C10   H4    S    
O9    H5    S    
C7    C9    S    
C9    C13   S    
C4    O3    A    
C20   C24   S    
C1    C20   A    
C3    O4    A    
C2    C19   A    
Cu1   O7    S    
C16   O10   S    
C7    C14   S    
Cu2   O4    S    
C12   C14   S    
C16   C17   A    
Cu1   O3    S    
Cu1   O1    S    
