data_mof_unit_62759.cif
_audit_creation_date              2013-03-05T16:26:56-0500
_audit_creation_method            fapswitch 2.2
_symmetry_space_group_name_H-M    P1
_symmetry_Int_Tables_number       1
_space_group_crystal_system       triclinic
_cell_length_a                    18.377879
_cell_length_b                    18.375733
_cell_length_c                    27.667968
_cell_angle_alpha                 89.998525
_cell_angle_beta                  89.9988
_cell_angle_gamma                 89.968446
_cell_volume                      9343.66498118

loop_
_atom_site_label
_atom_site_type_symbol
_atom_site_description
_atom_site_fract_x
_atom_site_fract_y
_atom_site_fract_z
_atom_type_partial_charge
Zn1   Zn    Zn3+2 0.500000 0.913210 0.039810 1.117468
Zn2   Zn    Zn3+2 0.086790 0.500000 0.039810 1.116761
Zn3   Zn    Zn3+2 0.500000 0.086790 0.039810 1.117549
Zn4   Zn    Zn3+2 0.913210 0.500000 0.039810 1.116331
Zn5   Zn    Zn3+2 0.000000 0.413210 0.539810 1.117268
Zn6   Zn    Zn3+2 0.586790 0.000000 0.539810 1.116912
Zn7   Zn    Zn3+2 1.000000 0.586790 0.539810 1.116728
Zn8   Zn    Zn3+2 0.413210 0.000000 0.539810 1.117407
Zn9   Zn    Zn3+2 0.586760 0.000000 0.960200 1.044414
Zn10  Zn    Zn3+2 0.000000 0.586760 0.960200 1.045599
Zn11  Zn    Zn3+2 0.413240 0.000000 0.960200 1.044491
Zn12  Zn    Zn3+2 0.000000 0.413240 0.960200 1.045610
Zn13  Zn    Zn3+2 0.086760 0.500000 0.460200 1.045176
Zn14  Zn    Zn3+2 0.500000 0.086760 0.460200 1.045015
Zn15  Zn    Zn3+2 0.913240 0.500000 0.460200 1.045109
Zn16  Zn    Zn3+2 0.500000 0.913240 0.460200 1.044949
H1    H     H_    0.090515 0.817381 0.951956 0.152383
H2    H     H_    0.314770 0.222360 0.904635 0.107870
H3    H     H_    0.909437 0.182774 0.951787 0.152444
H4    H     H_    0.685169 0.777531 0.904642 0.108063
H5    H     H_    0.222120 0.314857 0.904679 0.108018
H6    H     H_    0.182509 0.909485 0.952013 0.152320
H7    H     H_    0.777841 0.685056 0.904701 0.108092
H8    H     H_    0.817503 0.090610 0.951894 0.152210
H9    H     H_    0.590533 0.317392 0.451932 0.152400
H10   H     H_    0.814917 0.722313 0.404678 0.108142
H11   H     H_    0.409452 0.682466 0.452014 0.152266
H12   H     H_    0.185222 0.277821 0.404655 0.107923
H13   H     H_    0.722358 0.814900 0.404667 0.108138
H14   H     H_    0.682546 0.409477 0.451972 0.152291
H15   H     H_    0.277784 0.185236 0.404646 0.107919
H16   H     H_    0.317337 0.590482 0.451958 0.152432
O1    O     O_3   0.500000 0.000000 0.000010 -0.548578
O2    O     O_3   1.000000 0.500000 0.000010 -0.548126
O3    O     O_3   0.000000 0.500000 0.500010 -0.548325
O4    O     O_3   0.500000 0.000000 0.500010 -0.548412
O5    O     O_R   0.439270 0.000000 0.893740 -0.620196
O6    O     O_R   1.000000 0.439270 0.893740 -0.620202
O7    O     O_R   0.560730 0.000000 0.893740 -0.620223
O8    O     O_R   0.000000 0.560730 0.893740 -0.620203
O9    O     O_R   0.939270 0.500000 0.393740 -0.620193
O10   O     O_R   0.500000 0.939270 0.393740 -0.620186
O11   O     O_R   0.060730 0.500000 0.393740 -0.620205
O12   O     O_R   0.500000 0.060730 0.393740 -0.620210
O13   O     O_R   0.500000 0.939230 0.106280 -0.603595
O14   O     O_R   0.060770 0.500000 0.106280 -0.603872
O15   O     O_R   0.500000 0.060770 0.106280 -0.603136
O16   O     O_R   0.939230 0.500000 0.106280 -0.604187
O17   O     O_R   1.000000 0.439230 0.606280 -0.603449
O18   O     O_R   0.560770 0.000000 0.606280 -0.603985
O19   O     O_R   0.000000 0.560770 0.606280 -0.604092
O20   O     O_R   0.439230 0.000000 0.606280 -0.603330
O21   O     O_R   0.646160 0.914520 0.972140 -0.615164
O22   O     O_R   0.085480 0.646160 0.972140 -0.632439
O23   O     O_R   0.353840 0.085480 0.972140 -0.615194
O24   O     O_R   0.914520 0.353840 0.972140 -0.632361
O25   O     O_R   0.646160 0.085480 0.972140 -0.632341
O26   O     O_R   0.085480 0.353840 0.972140 -0.615353
O27   O     O_R   0.353840 0.914520 0.972140 -0.632353
O28   O     O_R   0.914520 0.646160 0.972140 -0.615380
O29   O     O_R   0.146160 0.414520 0.472140 -0.615310
O30   O     O_R   0.585480 0.146160 0.472140 -0.632376
O31   O     O_R   0.853840 0.585480 0.472140 -0.615298
O32   O     O_R   0.414520 0.853840 0.472140 -0.632436
O33   O     O_R   0.146160 0.585480 0.472140 -0.632366
O34   O     O_R   0.585480 0.853840 0.472140 -0.615295
O35   O     O_R   0.853840 0.414520 0.472140 -0.632432
O36   O     O_R   0.414520 0.146160 0.472140 -0.615295
O37   O     O_R   0.414550 0.146120 0.027860 -0.580218
O38   O     O_R   0.853880 0.414550 0.027860 -0.595849
O39   O     O_R   0.585450 0.853880 0.027860 -0.579956
O40   O     O_R   0.146120 0.585450 0.027860 -0.595410
O41   O     O_R   0.414550 0.853880 0.027860 -0.594436
O42   O     O_R   0.853880 0.585450 0.027860 -0.580111
O43   O     O_R   0.585450 0.146120 0.027860 -0.594198
O44   O     O_R   0.146120 0.414550 0.027860 -0.580149
O45   O     O_R   0.914550 0.646120 0.527860 -0.579989
O46   O     O_R   0.353880 0.914550 0.527860 -0.594490
O47   O     O_R   0.085450 0.353880 0.527860 -0.580208
O48   O     O_R   0.646120 0.085450 0.527860 -0.595149
O49   O     O_R   0.914550 0.353880 0.527860 -0.594727
O50   O     O_R   0.353880 0.085450 0.527860 -0.580165
O51   O     O_R   0.085450 0.646120 0.527860 -0.595409
O52   O     O_R   0.646120 0.914550 0.527860 -0.579906
C1    C     C_1   1.000000 0.500001 0.775501 0.055478
C2    C     C_1   0.500000 1.000000 0.775501 0.055434
C3    C     C_1   0.500000 0.000001 0.275500 0.055509
C4    C     C_1   0.000001 0.500000 0.275501 0.055417
C5    C     C_R   0.500000 1.000000 0.870875 0.815567
C6    C     C_R   1.000000 0.500001 0.870874 0.816067
C7    C     C_R   0.000001 0.500000 0.370875 0.815840
C8    C     C_R   0.500000 0.000001 0.370874 0.815859
C9    C     C_R   0.500000 0.999999 0.129135 0.842955
C10   C     C_R   0.999999 0.500000 0.129134 0.843907
C11   C     C_R   1.000000 0.499999 0.629135 0.843577
C12   C     C_R   0.499999 1.000000 0.629134 0.843269
C13   C     C_R   0.640890 0.860494 0.000715 0.896858
C14   C     C_R   0.140850 0.639410 0.999364 0.906507
C15   C     C_R   0.359104 0.139497 0.000720 0.896356
C16   C     C_R   0.859127 0.360619 0.999336 0.907484
C17   C     C_R   0.639483 0.140797 0.999453 0.902663
C18   C     C_R   0.139452 0.359067 0.000746 0.898402
C19   C     C_R   0.360543 0.859184 0.999422 0.904230
C20   C     C_R   0.860553 0.640937 0.000750 0.898904
C21   C     C_R   0.140917 0.360528 0.500737 0.897465
C22   C     C_R   0.640845 0.139418 0.499373 0.906130
C23   C     C_R   0.859084 0.639472 0.500736 0.898268
C24   C     C_R   0.359188 0.860539 0.499423 0.904010
C25   C     C_R   0.139405 0.640854 0.499363 0.906692
C26   C     C_R   0.639480 0.859090 0.500727 0.897876
C27   C     C_R   0.860550 0.359179 0.499414 0.904577
C28   C     C_R   0.360522 0.140912 0.500730 0.897100
C29   C     C_1   1.000000 0.500001 0.819050 -0.079444
C30   C     C_1   0.500001 1.000000 0.819050 -0.079317
C31   C     C_1   0.500000 0.000002 0.319050 -0.079354
C32   C     C_1   0.000001 0.500000 0.319050 -0.079405
C33   C     C_R   0.239108 0.813481 0.977658 -0.042546
C34   C     C_R   0.195640 0.248522 0.967278 0.033319
C35   C     C_R   0.760882 0.186546 0.977628 -0.042426
C36   C     C_R   0.804340 0.751455 0.967263 0.033247
C37   C     C_R   0.248564 0.195680 0.967255 0.033610
C38   C     C_R   0.186549 0.760862 0.977619 -0.042828
C39   C     C_R   0.751403 0.804285 0.967233 0.033630
C40   C     C_R   0.813408 0.239197 0.977554 -0.042905
C41   C     C_R   0.739120 0.313472 0.477641 -0.042644
C42   C     C_R   0.695703 0.748578 0.467240 0.033391
C43   C     C_R   0.260847 0.686541 0.477620 -0.042778
C44   C     C_R   0.304348 0.251474 0.467272 0.033472
C45   C     C_R   0.748580 0.695687 0.467246 0.033369
C46   C     C_R   0.686551 0.260863 0.477614 -0.042760
C47   C     C_R   0.251471 0.304363 0.467277 0.033441
C48   C     C_R   0.313472 0.739095 0.477658 -0.042581
C49   C     C_R   0.308493 0.799877 0.995803 -0.167937
C50   C     C_R   0.190405 0.298658 0.004922 -0.246727
C51   C     C_R   0.691565 0.200087 0.995900 -0.168172
C52   C     C_R   0.809615 0.701357 0.004928 -0.246766
C53   C     C_R   0.298774 0.190552 0.004855 -0.247081
C54   C     C_R   0.200201 0.691382 0.995616 -0.167816
C55   C     C_R   0.701205 0.809422 0.004839 -0.247292
C56   C     C_R   0.799746 0.308695 0.995526 -0.167952
C57   C     C_R   0.808513 0.299865 0.495775 -0.167887
C58   C     C_R   0.690499 0.798731 0.504872 -0.247073
C59   C     C_R   0.191372 0.700210 0.495608 -0.167832
C60   C     C_R   0.309509 0.201276 0.504882 -0.246903
C61   C     C_R   0.798710 0.690467 0.504890 -0.246982
C62   C     C_R   0.700188 0.191402 0.495646 -0.167831
C63   C     C_R   0.201293 0.309535 0.504897 -0.246833
C64   C     C_R   0.299885 0.808485 0.495810 -0.167940
C65   C     C_R   0.327311 0.727101 0.007597 0.196024
C66   C     C_R   0.232509 0.286911 0.047166 0.217994
C67   C     C_R   0.672760 0.272839 0.007760 0.197276
C68   C     C_R   0.767538 0.713131 0.047182 0.217952
C69   C     C_R   0.287035 0.232663 0.047096 0.218903
C70   C     C_R   0.272987 0.672554 0.007387 0.193836
C71   C     C_R   0.712967 0.767334 0.047089 0.219199
C72   C     C_R   0.726962 0.327504 0.007335 0.192716
C73   C     C_R   0.827324 0.227089 0.507580 0.195799
C74   C     C_R   0.732578 0.786965 0.547123 0.218748
C75   C     C_R   0.172554 0.773009 0.507371 0.193540
C76   C     C_R   0.267384 0.212997 0.547120 0.218514
C77   C     C_R   0.786933 0.732546 0.547142 0.218463
C78   C     C_R   0.772965 0.172579 0.507436 0.194076
C79   C     C_R   0.213025 0.267410 0.547135 0.218276
C80   C     C_R   0.227120 0.827315 0.507607 0.196375
C81   C     C_1   0.500000 0.999999 0.224508 0.064966
C82   C     C_1   0.999999 0.500000 0.224508 0.064674
C83   C     C_1   1.000000 0.499999 0.724508 0.064804
C84   C     C_1   0.499999 1.000000 0.724508 0.064825
C85   C     C_1   0.500000 0.999999 0.180959 -0.052858
C86   C     C_1   0.999999 0.500000 0.180958 -0.053424
C87   C     C_1   1.000000 0.499998 0.680959 -0.053200
C88   C     C_1   0.499999 1.000000 0.680958 -0.053063
C89   C     C_3   0.126136 0.814620 0.984378 0.111350
C90   C     C_3   0.259906 0.200995 0.913902 0.096226
C91   C     C_3   0.873878 0.185483 0.984241 0.111240
C92   C     C_3   0.740033 0.798917 0.913884 0.096211
C93   C     C_3   0.200865 0.259938 0.913929 0.096315
C94   C     C_3   0.185261 0.873819 0.984416 0.111737
C95   C     C_3   0.799088 0.739988 0.913921 0.096286
C96   C     C_3   0.814794 0.126244 0.984313 0.111982
C97   C     C_3   0.626150 0.314640 0.484356 0.111435
C98   C     C_3   0.760017 0.700999 0.413902 0.096259
C99   C     C_3   0.373790 0.685227 0.484417 0.111735
C100  C     C_3   0.240108 0.299123 0.413924 0.096290
C101  C     C_3   0.701034 0.760000 0.413895 0.096249
C102  C     C_3   0.685288 0.373827 0.484383 0.111677
C103  C     C_3   0.299093 0.240124 0.413918 0.096286
C104  C     C_3   0.314584 0.626109 0.484380 0.111349
Br1   Br    Br    0.071979 0.800334 0.044373 -0.335537
Br2   Br    Br    0.236951 0.109282 0.882027 -0.299549
Br3   Br    Br    0.928135 0.199747 0.044197 -0.335790
Br4   Br    Br    0.762945 0.890606 0.881962 -0.299590
Br5   Br    Br    0.109165 0.236849 0.882093 -0.299565
Br6   Br    Br    0.199402 0.927933 0.044444 -0.335369
Br7   Br    Br    0.890764 0.763071 0.882050 -0.299621
Br8   Br    Br    0.800808 0.072057 0.044331 -0.335088
Br9   Br    Br    0.571980 0.300397 0.544351 -0.335705
Br10  Br    Br    0.737022 0.609316 0.382003 -0.299633
Br11  Br    Br    0.427902 0.699359 0.544445 -0.335262
Br12  Br    Br    0.263146 0.390851 0.382091 -0.299660
Br13  Br    Br    0.609366 0.737014 0.381986 -0.299520
Br14  Br    Br    0.699432 0.427966 0.544401 -0.335299
Br15  Br    Br    0.390805 0.263157 0.382077 -0.299554
Br16  Br    Br    0.300289 0.571950 0.544376 -0.335762
N1    N     N_R   0.401316 0.707736 0.017806 0.248399
O53   O     O_R   0.420437 0.689560 0.061427 -0.238672
O54   O     O_R   0.450940 0.715312 0.984652 -0.364158
N2    N     N_R   0.218726 0.327730 0.090392 0.248053
O55   O     O_R   0.155381 0.324027 0.111245 -0.343620
O56   O     O_R   0.267661 0.372072 0.107263 -0.239825
N3    N     N_R   0.598852 0.292064 0.018308 0.249604
O57   O     O_R   0.579464 0.306543 0.062486 -0.239835
O58   O     O_R   0.549390 0.286711 0.984862 -0.362380
N4    N     N_R   0.781397 0.672391 0.090435 0.247915
O59   O     O_R   0.844872 0.675895 0.111130 -0.343777
O60   O     O_R   0.732256 0.628563 0.107632 -0.240453
N5    N     N_R   0.328184 0.219180 0.090198 0.248924
O61   O     O_R   0.323237 0.156559 0.111889 -0.342640
O62   O     O_R   0.375382 0.266731 0.105310 -0.237537
N6    N     N_R   0.292569 0.598395 0.017126 0.246285
O63   O     O_R   0.317602 0.579877 0.059339 -0.238310
O64   O     O_R   0.281767 0.548503 0.984540 -0.366735
N7    N     N_R   0.671788 0.780798 0.090178 0.249004
O65   O     O_R   0.676957 0.843306 0.111987 -0.342610
O66   O     O_R   0.624152 0.733502 0.105036 -0.237845
N8    N     N_R   0.707275 0.401713 0.016928 0.245555
O67   O     O_R   0.678799 0.419830 0.058248 -0.238145
O68   O     O_R   0.719471 0.451763 0.984666 -0.367429
N9    N     N_R   0.901348 0.207684 0.517725 0.247950
O69   O     O_R   0.920353 0.188429 0.561163 -0.239035
O70   O     O_R   0.951032 0.215795 0.484666 -0.364814
N10   N     N_R   0.718945 0.827959 0.590280 0.248500
O71   O     O_R   0.656028 0.823466 0.611627 -0.343175
O72   O     O_R   0.767002 0.874129 0.606067 -0.239019
N11   N     N_R   0.098395 0.792618 0.517077 0.246197
O73   O     O_R   0.079937 0.818224 0.559150 -0.237990
O74   O     O_R   0.048487 0.781576 0.484542 -0.366746
N12   N     N_R   0.280969 0.171959 0.590267 0.248578
O75   O     O_R   0.343866 0.176421 0.611641 -0.343012
O76   O     O_R   0.232871 0.125815 0.606035 -0.238259
N13   N     N_R   0.827839 0.718842 0.590331 0.248280
O77   O     O_R   0.823697 0.655722 0.611456 -0.343404
O78   O     O_R   0.873221 0.767292 0.606589 -0.239518
N14   N     N_R   0.792510 0.098447 0.517263 0.246669
O79   O     O_R   0.816400 0.079846 0.559751 -0.238010
O80   O     O_R   0.782220 0.048581 0.484589 -0.366190
N15   N     N_R   0.172063 0.281055 0.590309 0.248389
O81   O     O_R   0.176223 0.344126 0.611494 -0.343201
O82   O     O_R   0.126594 0.232618 0.606481 -0.238692
N16   N     N_R   0.207788 0.901322 0.517849 0.248490
O83   O     O_R   0.190165 0.920506 0.561559 -0.239208
O84   O     O_R   0.215078 0.950917 0.484646 -0.364186

loop_
_geom_bond_atom_site_label_1
_geom_bond_atom_site_label_2
_geom_bond_distance
_ccdc_geom_bond_type
N15   O82   1.300551 A    
Zn7   O51   1.940590 S    
C45   C98   1.494002 S    
Zn8   O46   1.940536 S    
C74   N10   1.433822 S    
C39   C55   1.393715 A    
C46   C62   1.393031 A    
C44   C103  1.494006 S    
C79   N15   1.433966 S    
N7    O65   1.301008 A    
C98   Br10  1.948538 S    
C34   C93   1.493978 S    
H6    C94   1.111665 S    
C33   C49   1.392910 A    
H9    C97   1.111669 S    
O39   C13   1.271626 A    
Zn4   O38   1.940536 S    
C39   C92   1.494039 S    
C73   N9    1.433907 S    
C40   C91   1.497408 S    
O40   C14   1.270433 A    
N1    O53   1.300593 A    
Zn2   O14   1.900230 S    
C62   C78   1.419311 A    
C9    C85   1.433854 S    
Zn1   O39   1.939628 S    
C67   N3    1.433293 S    
Zn4   O42   1.939549 S    
C14   C54   1.453851 S    
Zn8   O50   1.939549 S    
H14   C102  1.111669 S    
O46   C24   1.270238 A    
Zn3   O37   1.939631 S    
C36   C95   1.493978 S    
Zn13  O3    1.937900 S    
C48   C99   1.497465 S    
O36   C28   1.272749 A    
C23   C61   1.456464 S    
N4    O60   1.300526 A    
C92   Br4   1.948525 S    
Zn14  O30   1.941736 S    
C24   C64   1.453932 S    
Zn3   O1    1.938089 S    
C101  Br13  1.948536 S    
C50   C66   1.418199 A    
O48   C22   1.270403 A    
C8    C31   1.433873 S    
Zn9   O7    1.900027 S    
Zn5   O49   1.940613 S    
N14   O79   1.300511 A    
O47   C21   1.271725 A    
C28   C60   1.456480 S    
Zn10  O8    1.900016 S    
N13   O77   1.301063 A    
Zn8   O4    1.938201 S    
C6    C29   1.433873 S    
C37   C53   1.393751 A    
Zn11  O5    1.900008 S    
C40   C56   1.393160 A    
C43   C48   1.367102 A    
C104  Br16  1.953239 S    
C16   C56   1.453816 S    
C102  Br14  1.953243 S    
N12   O75   1.301049 A    
C71   N7    1.433527 S    
C41   C46   1.367103 A    
C92   C95   1.532704 S    
C33   C94   1.497464 S    
O49   C27   1.270308 A    
H13   C101  1.112176 S    
N2    O55   1.301078 A    
C100  Br12  1.948536 S    
C66   C69   1.413056 A    
H8    C96   1.111658 S    
O42   C20   1.271768 A    
N11   O73   1.300534 A    
O51   C25   1.270472 A    
C47   C63   1.393803 A    
O26   C18   1.272655 A    
C60   C76   1.418174 A    
O29   C21   1.272677 A    
Zn8   O20   1.900249 S    
C77   N13   1.433980 S    
C34   C50   1.393821 A    
C36   C39   1.373992 A    
C11   C87   1.433854 S    
Zn7   O45   1.939631 S    
C103  Br15  1.948535 S    
Zn12  O26   1.940753 S    
Zn2   O2    1.938238 S    
H5    C93   1.112177 S    
O13   C9    1.283318 A    
O52   C26   1.271697 A    
C65   C70   1.415108 A    
Zn9   O1    1.937900 S    
N11   O74   1.301162 A    
C20   C52   1.456452 S    
Zn5   O17   1.900237 S    
Zn9   O21   1.940674 S    
C75   N11   1.434886 S    
C58   C74   1.418171 A    
Zn11  O27   1.941639 S    
Zn13  O33   1.941660 S    
Zn15  O3    1.937940 S    
N6    O63   1.300519 A    
C52   C68   1.418209 A    
H1    C89   1.111666 S    
O32   C24   1.272356 A    
H3    C91   1.111650 S    
O23   C15   1.272814 A    
C17   C51   1.453954 S    
C81   C85   1.204915 T    
N12   O76   1.300560 A    
Zn12  O6    1.899992 S    
Zn6   O52   1.939556 S    
N8    O67   1.300565 A    
H16   C104  1.111666 S    
Zn1   O1    1.938043 S    
C69   N5    1.433628 S    
C64   C80   1.419165 A    
C76   C79   1.413038 A    
O45   C23   1.271756 A    
H11   C99   1.111662 S    
C2    C84   1.410870 S    
C38   C54   1.393054 A    
C25   C59   1.453844 S    
C7    C32   1.433892 S    
H4    C92   1.112175 S    
Zn1   O13   1.900237 S    
C41   C57   1.392941 A    
C27   C57   1.453899 S    
N4    O59   1.301116 A    
C83   C87   1.204918 T    
C73   C78   1.415069 A    
C42   C45   1.373996 A    
O21   C13   1.272819 A    
N16   O83   1.300636 A    
C35   C40   1.367091 A    
C68   N4    1.434303 S    
C98   C101  1.532702 S    
C42   C58   1.393757 A    
C99   Br11  1.953245 S    
C41   C102  1.497460 S    
N13   O78   1.300566 A    
C34   C37   1.373984 A    
O50   C28   1.271667 A    
C4    C32   1.204926 T    
C80   N16   1.433669 S    
C33   C38   1.367102 A    
C18   C50   1.456464 S    
C37   C90   1.494011 S    
N9    O69   1.300547 A    
Zn7   O19   1.900213 S    
C26   C58   1.456473 S    
C47   C100  1.494002 S    
Zn6   O48   1.940513 S    
N3    O57   1.300662 A    
O14   C10   1.283406 A    
C68   C71   1.413076 A    
C55   C71   1.418139 A    
N15   O81   1.301069 A    
Zn15  O35   1.941639 S    
N10   O72   1.300577 A    
C43   C104  1.497417 S    
O15   C9    1.283310 A    
C49   C65   1.419155 A    
Zn10  O2    1.937743 S    
C43   C59   1.393086 A    
C67   C72   1.415101 A    
O34   C26   1.272766 A    
Zn12  O2    1.937791 S    
C59   C75   1.419345 A    
C44   C60   1.393760 A    
C90   C93   1.532708 S    
Zn15  O9    1.900008 S    
C65   N1    1.433751 S    
Zn12  O24   1.941717 S    
Zn16  O34   1.940753 S    
C76   N12   1.433836 S    
C90   Br2   1.948546 S    
O37   C15   1.271679 A    
C57   C73   1.419179 A    
O9    C7    1.282908 A    
C56   C72   1.419481 A    
O16   C10   1.283411 A    
C4    C82   1.410867 S    
C84   C88   1.204926 T    
Zn7   O3    1.938089 S    
Zn5   O47   1.939628 S    
C35   C96   1.497505 S    
O24   C16   1.271953 A    
C1    C83   1.410851 S    
O31   C23   1.272693 A    
C44   C47   1.373989 A    
H2    C90   1.112179 S    
Zn13  O11   1.900027 S    
Zn11  O23   1.940679 S    
Zn2   O44   1.939556 S    
Zn3   O43   1.940590 S    
Zn14  O12   1.900016 S    
Zn4   O16   1.900249 S    
Zn2   O40   1.940513 S    
C72   N8    1.435381 S    
N14   O80   1.301138 A    
C5    C30   1.433892 S    
C53   C69   1.418141 A    
Zn14  O36   1.940753 S    
C94   Br6   1.953243 S    
O10   C8    1.282813 A    
N3    O58   1.300935 A    
C2    C30   1.204926 T    
C48   C64   1.392878 A    
C3    C31   1.204915 T    
H7    C95   1.112171 S    
C42   C101  1.494008 S    
O22   C14   1.272060 A    
C13   C55   1.456490 S    
C89   Br1   1.953242 S    
C46   C97   1.497434 S    
O12   C8    1.282820 A    
C97   C102  1.537973 S    
N7    O66   1.300586 A    
C82   C86   1.204929 T    
C91   C96   1.537963 S    
O30   C22   1.272105 A    
Zn11  O1    1.937940 S    
N5    O62   1.300609 A    
C38   C89   1.497424 S    
O25   C17   1.272502 A    
C93   Br5   1.948551 S    
O6    C6    1.282813 A    
N8    O68   1.301192 A    
C22   C62   1.453853 S    
C100  C103  1.532710 S    
O5    C5    1.282908 A    
N6    O64   1.301155 A    
C95   Br7   1.948536 S    
C78   N14   1.434606 S    
Zn1   O41   1.940613 S    
O38   C16   1.270510 A    
C1    C29   1.204915 T    
H12   C100  1.112173 S    
O27   C19   1.272304 A    
N9    O70   1.301043 A    
N2    O56   1.300569 A    
C63   C79   1.418164 A    
C99   C104  1.537968 S    
Zn16  O4    1.937791 S    
Zn14  O4    1.937743 S    
O18   C12   1.283407 A    
O33   C25   1.272019 A    
C61   C77   1.418162 A    
C89   C94   1.537972 S    
C97   Br9   1.953242 S    
C51   C67   1.419099 A    
Zn5   O3    1.938043 S    
N5    O61   1.301001 A    
Zn3   O15   1.900213 S    
N10   O71   1.301043 A    
H10   C98   1.112175 S    
Zn6   O4    1.938238 S    
C96   Br8   1.953247 S    
O20   C12   1.283410 A    
Zn9   O25   1.941660 S    
C45   C61   1.393800 A    
Zn4   O2    1.938201 S    
C19   C49   1.453919 S    
Zn10  O22   1.941736 S    
C91   Br3   1.953254 S    
O11   C7    1.282913 A    
C35   C51   1.392824 A    
Zn10  O28   1.940753 S    
C3    C81   1.410853 S    
C66   N2    1.434210 S    
Zn6   O18   1.900230 S    
O41   C19   1.270277 A    
Zn13  O29   1.940674 S    
C74   C77   1.413055 A    
O17   C11   1.283318 A    
C12   C88   1.433873 S    
H15   C103  1.112173 S    
O43   C17   1.270143 A    
Zn15  O31   1.940679 S    
C75   C80   1.415126 A    
C15   C53   1.456493 S    
C70   N6    1.434790 S    
Zn16  O32   1.941717 S    
O44   C18   1.271778 A    
O8    C6    1.282820 A    
C54   C70   1.419349 A    
O28   C20   1.272599 A    
N1    O54   1.301000 A    
N16   O84   1.300977 A    
C36   C52   1.393829 A    
O7    C5    1.282913 A    
C10   C86   1.433873 S    
Zn16  O10   1.899992 S    
O19   C11   1.283310 A    
O35   C27   1.272263 A    
C21   C63   1.456472 S    
