data_mof_unit_44329.cif
_audit_creation_date              2012-12-11T15:39:15-0500
_audit_creation_method            fapswitch 2.2
_symmetry_space_group_name_H-M    P1
_symmetry_Int_Tables_number       1
_space_group_crystal_system       triclinic
_cell_length_a                    14.314485
_cell_length_b                    14.829096
_cell_length_c                    33.257094
_cell_angle_alpha                 97.906656
_cell_angle_beta                  90.452335
_cell_angle_gamma                 118.720885
_cell_volume                      6109.84190657

loop_
_atom_site_label
_atom_site_type_symbol
_atom_type_description
_atom_site_fract_x
_atom_site_fract_y
_atom_site_fract_z
_atom_type_partial_charge
C1    C     C_R   0.616763 0.910232 0.436924 0.565451
C2    C     C_R   0.738721 0.420612 0.187266 -0.031541
C3    C     C_R   0.694891 0.914814 0.660229 -0.119413
C4    C     C_R   0.620883 0.814056 0.666593 0.024371
C5    C     C_R   0.630566 0.869471 0.588800 0.023234
C6    C     C_R   0.052179 0.781298 0.063781 0.542509
C7    C     C_R   0.744210 0.486948 0.066244 0.565133
C8    C     C_R   0.743181 0.789281 0.066423 0.535133
C9    C     C_R   0.022278 0.732390 0.947662 0.566532
C10   C     C_R   0.711904 0.436900 0.949354 0.566130
C11   C     C_R   0.710315 0.739512 0.950290 0.534352
C12   C     C_R   0.826078 0.434359 0.165004 -0.076948
C13   C     C_R   0.826113 0.449132 0.124447 0.376207
C14   C     C_R   0.774301 0.348692 0.245430 -0.101190
C15   C     C_R   0.766918 0.335522 0.286181 -0.096493
C16   C     C_R   0.727541 0.388559 0.313082 0.031374
C17   C     C_R   0.700846 0.458935 0.299036 -0.101113
C18   C     C_R   0.707766 0.471690 0.258272 -0.098158
C19   C     C_R   0.741804 0.414545 0.230985 0.030623
C20   C     C_R   0.603852 0.342168 0.368243 -0.102400
C21   C     C_R   0.593874 0.205288 0.456614 0.542841
C22   C     C_R   0.570944 0.297359 0.403244 -0.098763
C23   C     C_R   0.738469 0.295902 0.412011 -0.118379
C24   C     C_R   0.771441 0.340949 0.377049 -0.110737
C25   C     C_R   0.702773 0.360877 0.354065 0.024148
C26   C     C_R   0.636284 0.270160 0.424530 0.015414
C27   C     C_R   0.243713 0.877464 0.393174 -0.042887
C28   C     C_R   0.228264 0.957345 0.380873 0.345558
C29   C     C_R   0.204797 0.955294 0.339768 0.414296
C30   C     C_R   0.195208 0.873367 0.310533 -0.082977
C31   C     C_R   0.201885 0.789961 0.322670 -0.149428
C32   C     C_R   0.295407 0.892663 0.434314 0.585292
C33   C     C_R   0.225419 0.791289 0.363642 0.341786
C34   C     C_R   0.196338 0.808347 0.163137 -0.103724
C35   C     C_R   0.168378 0.786826 0.121283 -0.097527
C36   C     C_R   0.090209 0.900846 0.129675 -0.125401
C37   C     C_R   0.117744 0.921785 0.171648 -0.105276
C38   C     C_R   0.167294 0.872482 0.188527 0.030716
C39   C     C_1   0.177889 0.877706 0.231851 0.011343
C40   C     C_1   0.184983 0.877002 0.267871 0.058720
C41   C     C_R   0.110751 0.829166 0.104394 0.023322
C42   C     C_R   0.637626 0.878394 0.395332 -0.042539
C43   C     C_R   0.613870 0.905842 0.551785 0.537119
C44   C     C_R   0.554990 0.796372 0.368160 0.413302
C45   C     C_R   0.567908 0.784616 0.326485 0.427227
C46   C     C_R   0.663301 0.853599 0.311700 -0.022169
C47   C     C_R   0.748420 0.929647 0.338745 -0.194654
C48   C     C_R   0.735938 0.941798 0.380305 -0.195904
C49   C     C_R   0.780072 0.919891 0.174936 -0.116239
C50   C     C_R   0.794780 0.906798 0.133511 -0.122065
C51   C     C_R   0.619242 0.753435 0.121496 -0.124096
C52   C     C_R   0.604641 0.766903 0.162831 -0.105338
C53   C     C_R   0.686528 0.847841 0.189739 0.031777
C54   C     C_R   0.589435 0.198781 0.571119 0.563787
C55   C     C_1   0.678275 0.850949 0.232721 0.001033
C56   C     C_1   0.671661 0.851622 0.268731 0.044260
C57   C     C_R   0.716283 0.820712 0.106731 0.022569
C58   C     C_R   0.621232 0.245390 0.614618 0.029646
C59   C     C_R   0.559709 0.281306 0.637567 0.374458
C60   C     C_R   0.574165 0.300331 0.680092 -0.067007
C61   C     C_R   0.649920 0.284281 0.700087 -0.024649
C62   C     C_R   0.716263 0.255753 0.677617 -0.134107
C63   C     C_R   0.702503 0.236961 0.635153 -0.173831
C64   C     C_R   0.760221 0.339003 0.845721 -0.206616
C65   C     C_R   0.289625 0.887271 0.548649 0.536671
C66   C     C_R   0.771974 0.369952 0.887811 -0.208522
C67   C     C_R   0.587745 0.334628 0.886294 0.408019
C68   C     C_R   0.576355 0.303557 0.844091 0.423145
C69   C     C_R   0.663949 0.309938 0.823654 -0.017415
C70   C     C_1   0.659077 0.298072 0.780031 0.042124
C71   C     C_1   0.655580 0.291777 0.743565 0.001445
C72   C     C_R   0.687777 0.373525 0.908318 -0.032225
C73   C     C_R   0.072322 0.756244 0.909427 0.027906
C74   C     C_R   0.107288 0.854852 0.898137 0.383305
C75   C     C_R   0.131854 0.869621 0.858361 -0.069399
C76   C     C_R   0.737876 0.449918 0.105620 0.027748
C77   C     C_R   0.122045 0.786616 0.829486 -0.031461
C78   C     C_R   0.095793 0.690867 0.841588 -0.139586
C79   C     C_R   0.071353 0.675836 0.881356 -0.181640
C80   C     C_R   0.186167 0.757132 0.762200 -0.107450
C81   C     C_R   0.190513 0.764022 0.720930 -0.055935
C82   C     C_R   0.138718 0.810486 0.703129 0.065275
C83   C     C_R   0.083077 0.850648 0.727093 -0.106775
C84   C     C_R   0.078609 0.843673 0.768410 -0.101354
C85   C     C_R   0.130425 0.797141 0.786234 0.032971
C86   C     C_R   0.192514 0.924981 0.650458 -0.177198
C87   C     C_R   0.647751 0.428907 0.127383 -0.176376
C88   C     C_R   0.229403 0.944250 0.612293 -0.140581
C89   C     C_R   0.174528 0.760992 0.592347 -0.077996
C90   C     C_R   0.137385 0.741605 0.630428 0.381610
C91   C     C_R   0.151517 0.824639 0.660383 0.029326
C92   C     C_R   0.225917 0.863263 0.583834 -0.037313
C93   C     C_R   0.658893 0.744620 0.912871 0.015069
C94   C     C_R   0.585610 0.652974 0.887186 -0.118071
C95   C     C_R   0.556090 0.657264 0.847626 -0.112957
C96   C     C_R   0.598780 0.753279 0.833462 0.024021
C97   C     C_R   0.665209 0.845294 0.860419 -0.109872
C98   C     C_R   0.648405 0.414849 0.167826 -0.138887
C99   C     C_R   0.694995 0.840967 0.899699 -0.109254
C100  C     C_R   0.576826 0.841037 0.778002 -0.114245
C101  C     C_R   0.586149 0.857641 0.737693 -0.113764
C102  C     C_R   0.603524 0.790914 0.708359 0.024963
C103  C     C_R   0.605683 0.704003 0.719364 -0.104512
C104  C     C_R   0.597655 0.687999 0.759891 -0.103594
C105  C     C_R   0.586128 0.758136 0.789783 0.027638
C106  C     C_R   0.558069 0.738660 0.633288 -0.106605
C107  C     C_R   0.562391 0.766360 0.594629 -0.111285
C108  C     C_R   0.700375 0.942170 0.621541 -0.120828
Cr1   Cr    Cr6+3 0.424820 0.846020 0.489780 1.119473
Cr2   Cr    Cr6+3 0.657880 0.078580 0.505700 1.028999
Cr3   Cr    Cr6+3 0.417280 0.075360 0.504550 1.124806
Cr4   Cr    Cr6+3 0.903360 0.812540 0.006510 1.088376
Cr5   Cr    Cr6+3 0.914630 0.587050 0.006280 1.080812
Cr6   Cr    Cr6+3 0.673560 0.582680 0.008540 1.063445
H1    H     H_    0.491892 0.278644 0.412226 0.181747
H2    H     H_    0.896172 0.438184 0.179528 0.139957
H3    H     H_    0.791090 0.276901 0.428123 0.141379
H4    H     H_    0.185249 0.731395 0.102582 0.149655
H5    H     H_    0.193067 0.725542 0.300160 0.182736
H6    H     H_    0.094882 0.971524 0.191110 0.130929
H7    H     H_    0.045063 0.933923 0.117644 0.130184
H8    H     H_    0.822831 0.982719 0.327526 0.159331
H9    H     H_    0.801342 0.005015 0.400308 0.176178
H10   H     H_    0.531803 0.711065 0.174084 0.137488
H11   H     H_    0.557285 0.686587 0.101574 0.131667
H12   H     H_    0.849757 0.398722 0.903696 0.160836
H13   H     H_    0.828237 0.343650 0.830140 0.139961
H14   H     H_    0.775668 0.243872 0.692902 0.129124
H15   H     H_    0.523427 0.323744 0.697433 0.152403
H16   H     H_    0.786525 0.279581 0.296078 0.114413
H17   H     H_    0.236527 0.735319 0.703074 0.151712
H18   H     H_    0.227465 0.721889 0.775463 0.114784
H19   H     H_    0.154880 0.944896 0.849711 0.158046
H20   H     H_    0.033528 0.873390 0.786336 0.117348
H21   H     H_    0.203828 0.989880 0.673228 0.139396
H22   H     H_    0.268235 0.023750 0.606370 0.177545
H23   H     H_    0.087632 0.625715 0.819712 0.132290
H24   H     H_    0.168931 0.696967 0.570461 0.163497
H25   H     H_    0.751157 0.912784 0.919007 0.144584
H26   H     H_    0.745151 0.973580 0.685585 0.112507
H27   H     H_    0.581560 0.923709 0.729479 0.115144
H28   H     H_    0.565967 0.895104 0.800254 0.114745
H29   H     H_    0.618408 0.651402 0.697013 0.126721
H30   H     H_    0.606395 0.624158 0.768162 0.118943
H31   H     H_    0.500843 0.660408 0.637655 0.133113
H32   H     H_    0.507862 0.708817 0.569839 0.139751
H33   H     H_    0.700367 0.920382 0.850333 0.115418
H34   H     H_    0.579035 0.401646 0.184246 0.139368
H35   H     H_    0.684529 0.524698 0.247830 0.126065
H36   H     H_    0.548863 0.355848 0.350880 0.140816
O1    O     O_R   0.318160 0.824460 0.443680 -0.414487
O2    O     O_R   0.645130 0.163230 0.552140 -0.519519
O3    O     O_R   0.498360 0.178430 0.555780 -0.435912
O4    O     O_R   0.328690 0.978040 0.538950 -0.497601
O5    O     O_3   0.499990 0.999990 0.500010 -0.283729
O6    O     O_R   0.828710 0.851830 0.052170 -0.516163
O7    O     O_R   0.005980 0.823990 0.047210 -0.499385
O8    O     O_R   0.031900 0.688850 0.050170 -0.483524
O9    O     O_R   0.830940 0.518420 0.048680 -0.425118
O10   O     O_R   0.668160 0.499860 0.053480 -0.529063
O11   O     O_R   0.689170 0.693840 0.050110 -0.504431
O12   O     O_R   0.525040 0.857250 0.449830 -0.424468
O13   O     O_R   0.803860 0.812940 0.962540 -0.495896
O14   O     O_R   0.982950 0.787950 0.964120 -0.429247
O15   O     O_R   0.007050 0.649970 0.960540 -0.534358
O16   O     O_R   0.807910 0.482370 0.965590 -0.517228
O17   O     O_R   0.643310 0.460980 0.963840 -0.435891
O18   O     O_R   0.666140 0.657800 0.967020 -0.498842
O19   O     O_3   0.830520 0.660760 0.007110 -0.276586
O20   O     O_R   0.684760 0.998800 0.456360 -0.523853
O21   O     O_R   0.647540 0.166310 0.470260 -0.506882
O22   O     O_R   0.500960 0.181750 0.467450 -0.480795
O23   O     O_R   0.331100 0.981120 0.457080 -0.447920
O24   O     O_R   0.315560 0.821140 0.532010 -0.518536
O25   O     O_R   0.522630 0.854180 0.531710 -0.502557
O26   O     O_R   0.682160 0.995480 0.544690 -0.515475
H37   H     H_    0.578276 0.428115 0.113816 0.154056
H38   H     H_    0.234955 0.770041 0.175951 0.127445
F1    F     F_    0.236225 0.710943 0.373732 -0.531745
F2    F     F_    0.241204 0.040393 0.408136 -0.569766
F3    F     F_    0.914497 0.467644 0.104560 -0.616695
F4    F     F_    0.196244 0.035645 0.328309 -0.575168
H39   H     H_    0.870551 0.959488 0.123097 0.130394
H40   H     H_    0.843787 0.982927 0.195662 0.118165
F5    F     F_    0.459429 0.731846 0.381265 -0.524898
F6    F     F_    0.485420 0.709455 0.300348 -0.579537
H41   H     H_    0.848800 0.356290 0.367049 0.131213
H42   H     H_    0.751167 0.209432 0.618588 0.146496
F7    F     F_    0.481979 0.292895 0.619197 -0.615457
F8    F     F_    0.481975 0.273786 0.822863 -0.591582
F9    F     F_    0.503214 0.333587 0.904894 -0.568889
F10   F     F_    0.113198 0.935614 0.924939 -0.603345
H43   H     H_    0.044562 0.599152 0.889246 0.143146
F11   F     F_    0.093491 0.642990 0.638840 -0.632110
H44   H     H_    0.043241 0.887216 0.713808 0.115331
H45   H     H_    0.556835 0.577616 0.896636 0.172578
H46   H     H_    0.800483 0.303733 0.224821 0.114817
H47   H     H_    0.503725 0.585328 0.827564 0.136360
H48   H     H_    0.753350 0.022253 0.618022 0.130127
H49   H     H_    0.671784 0.501800 0.319328 0.126608

loop_
_geom_bond_atom_site_label_1
_geom_bond_atom_site_label_2
_ccdc_geom_bond_type
C65   C92   S    
C43   O25   A    
C21   C26   S    
C101  C102  A    
C80   H18   S    
C65   O24   A    
Cr6   O19   S    
C52   H10   S    
C73   C74   A    
C95   C96   A    
C28   F2    S    
C55   C56   T    
C2    C12   A    
C48   H9    S    
C81   C82   A    
Cr6   O17   S    
C45   C46   A    
C27   C33   A    
C37   H6    S    
C84   H20   S    
C100  C105  A    
C37   C38   A    
C106  H31   S    
C42   C44   A    
C24   H41   S    
C94   H45   S    
C36   C37   A    
Cr1   O1    S    
C34   C35   A    
Cr2   O2    S    
Cr1   O12   S    
Cr5   O15   S    
C38   C39   S    
C67   F9    S    
C45   F6    S    
C81   H17   S    
C7    O9    A    
C106  C107  A    
C15   C16   A    
C1    O20   A    
C16   C25   S    
C17   H49   S    
C67   C72   A    
C23   C26   A    
C49   C50   A    
C22   C26   A    
Cr2   O5    S    
C103  C104  A    
C97   C99   A    
C68   C69   A    
C101  H27   S    
C66   C72   A    
C88   C92   A    
C16   C17   A    
C6    C41   S    
C4    C102  S    
C23   C24   A    
C31   C33   A    
C70   C71   T    
C51   C57   A    
Cr5   O8    S    
C18   H35   S    
C93   C99   A    
C44   F5    S    
C87   C98   A    
Cr2   O21   S    
C11   C93   S    
C5    C43   S    
C77   C85   S    
C59   C60   A    
C34   C38   A    
C97   H33   S    
C99   H25   S    
C36   C41   A    
C94   C95   A    
C9    C73   S    
C54   O3    A    
C8    O6    A    
C104  C105  A    
C6    O8    A    
C53   C55   S    
Cr4   O14   S    
C14   H46   S    
Cr4   O7    S    
C102  C103  A    
C51   H11   S    
C47   C48   A    
C24   C25   A    
C88   H22   S    
C74   C75   A    
Cr5   O16   S    
C107  H32   S    
Cr1   O24   S    
C18   C19   A    
Cr6   O11   S    
Cr5   O19   S    
C7    O10   A    
C58   C59   A    
C77   C78   A    
C4    C106  A    
C34   H38   S    
Cr5   O9    S    
C82   C91   S    
C67   C68   A    
C29   F4    S    
C64   C66   A    
C10   O17   A    
C9    O14   A    
C33   F1    S    
C80   C85   A    
C8    C57   S    
C87   H37   S    
C49   H40   S    
Cr3   O3    S    
C43   O26   A    
C1    C42   S    
Cr4   O19   S    
C90   F11   S    
C13   C76   A    
C68   F8    S    
C10   O16   A    
C64   H13   S    
C31   H5    S    
C96   C97   A    
C62   C63   A    
C11   O13   A    
C17   C18   A    
C73   C79   A    
C30   C40   S    
C93   C94   A    
C42   C48   A    
C64   C69   A    
C84   C85   A    
C89   C92   A    
C75   C77   A    
C76   C87   A    
Cr6   O10   S    
C35   C41   A    
C74   F10   S    
Cr2   O20   S    
C22   H1    S    
C20   C22   A    
C1    O12   A    
C82   C83   A    
C13   F3    S    
Cr4   O6    S    
C11   O18   A    
C54   C58   S    
C83   C84   A    
C86   C91   A    
C3    C4    A    
C78   H23   S    
C39   C40   T    
C6    O7    A    
C52   C53   A    
C96   C105  S    
C5    C107  A    
C58   C63   A    
Cr4   O13   S    
C46   C47   A    
C28   C29   A    
C63   H42   S    
C2    C19   S    
Cr3   O23   S    
C50   C57   A    
C14   C19   A    
C50   H39   S    
C44   C45   A    
C80   C81   A    
C47   H8    S    
C103  H29   S    
C60   H15   S    
C23   H3    S    
C54   O2    A    
C75   H19   S    
Cr6   O18   S    
C7    C76   S    
Cr2   O26   S    
C3    C108  A    
C21   O22   A    
C32   O23   A    
C79   H43   S    
C8    O11   A    
C108  H48   S    
C9    O15   A    
C36   H7    S    
C51   C52   A    
Cr1   O25   S    
C21   O21   A    
C62   H14   S    
C78   C79   A    
C61   C71   S    
C90   C91   A    
C30   C31   A    
C32   O1    A    
C98   H34   S    
C95   H47   S    
C49   C53   A    
C100  C101  A    
C20   H36   S    
C86   C88   A    
C83   H44   S    
C61   C62   A    
Cr1   O5    S    
Cr3   O4    S    
C69   C70   S    
C59   F7    S    
C104  H30   S    
C27   C32   S    
C29   C30   A    
C66   H12   S    
C86   H21   S    
C12   C13   A    
C2    C98   A    
C89   H24   S    
C20   C25   A    
C46   C56   S    
C27   C28   A    
C14   C15   A    
C60   C61   A    
C35   H4    S    
C100  H28   S    
C3    H26   S    
C65   O4    A    
C15   H16   S    
C89   C90   A    
Cr3   O5    S    
Cr3   O22   S    
C12   H2    S    
C5    C108  A    
C10   C72   S    
