data_mof_unit_26646.cif
_audit_creation_date              2012-12-11T15:19:32-0500
_audit_creation_method            fapswitch 2.2
_symmetry_space_group_name_H-M    P1
_symmetry_Int_Tables_number       1
_space_group_crystal_system       triclinic
_cell_length_a                    19.941191
_cell_length_b                    6.887196
_cell_length_c                    18.168128
_cell_angle_alpha                 89.999827
_cell_angle_beta                  103.978798
_cell_angle_gamma                 89.999988
_cell_volume                      2421.29593447

loop_
_atom_site_label
_atom_site_type_symbol
_atom_type_description
_atom_site_fract_x
_atom_site_fract_y
_atom_site_fract_z
_atom_type_partial_charge
O1    O     O_R   0.312200 0.620210 0.189560 -0.545568
O2    O     O_R   0.687800 0.379790 0.810440 -0.539838
O3    O     O_R   0.187800 0.120210 0.310440 -0.545569
O4    O     O_R   0.812200 0.879790 0.689560 -0.539863
O5    O     O_R   0.171590 0.286140 0.165000 -0.532696
O6    O     O_R   0.828410 0.713860 0.835000 -0.533856
O7    O     O_R   0.328410 0.786140 0.335000 -0.532702
O8    O     O_R   0.671590 0.213860 0.665000 -0.533873
C1    C     C_R   0.145701 0.459535 0.143800 0.713413
C2    C     C_R   0.854298 0.540466 0.856200 0.711758
C3    C     C_R   0.354299 0.959535 0.356200 0.713396
C4    C     C_R   0.645702 0.040466 0.643800 0.711747
O9    O     O_R   0.310670 0.290220 0.180540 -0.527833
O10   O     O_R   0.689330 0.709780 0.819460 -0.534049
O11   O     O_R   0.189330 0.790220 0.319460 -0.527837
O12   O     O_R   0.810670 0.209780 0.680540 -0.534074
O13   O     O_R   0.327870 0.124170 0.326080 -0.536800
O14   O     O_R   0.672130 0.875830 0.673920 -0.534463
O15   O     O_R   0.172130 0.624170 0.173920 -0.536794
O16   O     O_R   0.827870 0.375830 0.826080 -0.534458
C5    C     C_R   0.331967 0.459377 0.164968 0.707329
C6    C     C_R   0.668020 0.540623 0.835004 0.702541
C7    C     C_R   0.168033 0.959376 0.335031 0.707313
C8    C     C_R   0.831980 0.040623 0.664996 0.702462
O17   O     O_3   0.255480 0.455050 0.297740 -0.362926
O18   O     O_3   0.744520 0.544950 0.702260 -0.361922
O19   O     O_3   0.244520 0.955050 0.202260 -0.362912
O20   O     O_3   0.755480 0.044950 0.797740 -0.361867
V1    V     V_3+5 0.248980 0.178550 0.241140 1.491340
V2    V     V_3+5 0.751020 0.821450 0.758860 1.478008
V3    V     V_3+5 0.251020 0.678550 0.258860 1.491327
V4    V     V_3+5 0.748980 0.321450 0.741140 1.477943
C9    C     C_R   0.934423 0.165910 0.622992 -0.083891
C10   C     C_R   0.065989 0.833047 0.377563 -0.066552
C11   C     C_R   0.565578 0.665912 0.877009 -0.084037
C12   C     C_R   0.434010 0.333046 0.122437 -0.066563
C13   C     C_R   0.881009 0.029800 0.615487 -0.120955
C14   C     C_R   0.119069 0.970109 0.384638 -0.092631
C15   C     C_R   0.618991 0.529799 0.884513 -0.121148
C16   C     C_R   0.380931 0.470110 0.115362 -0.092643
C17   C     C_R   0.874879 0.881623 0.561224 -0.123602
C18   C     C_R   0.124798 0.119368 0.438427 -0.111351
C19   C     C_R   0.625121 0.381622 0.938777 -0.123701
C20   C     C_R   0.375203 0.619371 0.061573 -0.111328
C21   C     C_R   0.922011 0.865776 0.514570 -0.008554
C22   C     C_R   0.077971 0.134170 0.485493 -0.007959
C23   C     C_R   0.577989 0.365775 0.985430 -0.008575
C24   C     C_R   0.422030 0.634171 0.014507 -0.007960
C25   C     C_R   0.975993 0.004789 0.523013 0.027422
C26   C     C_R   0.024175 0.994687 0.477272 0.027200
C27   C     C_R   0.524008 0.504789 0.976987 0.027417
C28   C     C_R   0.475826 0.494687 0.022728 0.027207
C29   C     C_R   0.981650 0.154983 0.577031 0.081804
C30   C     C_R   0.018615 0.844302 0.423363 0.080632
C31   C     C_R   0.518351 0.654985 0.922970 0.081771
C32   C     C_R   0.481384 0.344302 0.076637 0.080631
C33   C     C_R   0.916824 0.716422 0.459549 0.442122
C34   C     C_R   0.083238 0.283276 0.540606 0.447218
C35   C     C_R   0.583176 0.216419 0.040452 0.442117
C36   C     C_R   0.416762 0.783277 0.959393 0.447216
C37   C     C_R   0.965465 0.707348 0.415258 -0.228326
C38   C     C_R   0.034760 0.292048 0.585087 -0.232767
C39   C     C_R   0.534534 0.207347 0.084742 -0.228336
C40   C     C_R   0.465241 0.792050 0.914913 -0.232754
H1    H     H_    0.939282 0.280339 0.664968 0.118903
H2    H     H_    0.061325 0.718059 0.335839 0.110722
H3    H     H_    0.560719 0.780342 0.835033 0.118961
H4    H     H_    0.438674 0.218057 0.164160 0.110721
H5    H     H_    0.832211 0.781884 0.555487 0.195384
H6    H     H_    0.166821 0.221179 0.443399 0.190381
H7    H     H_    0.667790 0.281885 0.944515 0.195506
H8    H     H_    0.333180 0.721186 0.056602 0.190423
H9    H     H_    0.961511 0.593704 0.373209 0.179072
H10   H     H_    0.038712 0.405745 0.627112 0.178095
H11   H     H_    0.538487 0.093702 0.126791 0.179080
H12   H     H_    0.461289 0.905747 0.872888 0.178107
C41   C     C_1   0.583194 0.027454 0.581577 -0.169811
C42   C     C_1   0.416804 0.972550 0.418426 -0.169052
C43   C     C_1   0.916806 0.527454 0.918423 -0.169788
C44   C     C_1   0.083196 0.472551 0.081574 -0.169030
C45   C     C_1   0.530863 0.010883 0.530180 0.033536
C46   C     C_1   0.469134 0.989124 0.469825 0.032387
C47   C     C_1   0.969137 0.510882 0.969819 0.033548
C48   C     C_1   0.030866 0.489125 0.030175 0.032402
S1    S     S_3+6 0.848538 0.544213 0.441157 0.016658
O21   O     O_2   0.782237 0.647620 0.405692 -0.295205
O22   O     O_2   0.861322 0.389086 0.387919 -0.304798
O23   O     O_3   0.841135 0.439541 0.522327 -0.534130
H13   H     H_    0.800534 0.352618 0.507451 0.365698
S2    S     S_3+6 0.151409 0.455694 0.558537 0.003961
O24   O     O_2   0.153468 0.559694 0.486480 -0.364347
O25   O     O_2   0.142047 0.601932 0.616691 -0.306847
O26   O     O_3   0.226558 0.337634 0.590924 -0.481648
H14   H     H_    0.262698 0.438587 0.595360 0.376954
S3    S     S_3+6 0.651461 0.044207 0.058846 0.016638
O27   O     O_2   0.717761 0.147598 0.094327 -0.295076
O28   O     O_2   0.638664 0.889067 0.112073 -0.304941
O29   O     O_3   0.658879 0.939558 0.977678 -0.534128
H15   H     H_    0.699315 0.852058 0.992605 0.365751
S4    S     S_3+6 0.348590 0.955691 0.941460 0.003955
O30   O     O_2   0.346531 0.059703 0.013513 -0.364275
O31   O     O_2   0.357951 0.101918 0.883301 -0.306903
O32   O     O_3   0.273440 0.837629 0.909080 -0.481677
H16   H     H_    0.237308 0.938658 0.904488 0.377013

loop_
_geom_bond_atom_site_label_1
_geom_bond_atom_site_label_2
_ccdc_geom_bond_type
C34   C38   A    
O1    C5    A    
O26   H14   S    
O19   V1    S    
O13   V1    S    
O3    C7    A    
S3    O27   D    
O1    V3    S    
C44   C48   T    
O15   V3    S    
C10   H2    S    
C45   C46   S    
S3    O29   S    
C9    H1    S    
S1    O21   D    
O7    C3    A    
C21   C33   A    
C26   C30   A    
O9    V1    S    
C14   C18   A    
O4    C8    A    
O29   H15   S    
C18   H6    S    
O2    V4    S    
C18   C22   A    
O3    V1    S    
C12   C16   A    
C1    O15   A    
C2    O16   A    
O2    C6    A    
O14   V2    S    
C21   C25   A    
C16   C20   A    
O11   C7    A    
O12   C8    A    
C22   C34   A    
O17   V1    S    
C35   S3    S    
O10   V2    S    
C24   C36   A    
O5    V1    S    
S1    O22   D    
C9    C29   A    
O7    V3    S    
O19   V3    S    
C27   C28   A    
O8    V4    S    
O20   V4    S    
C4    C41   S    
O18   V4    S    
C15   C19   A    
C37   H9    S    
C11   C31   A    
S4    O32   S    
C9    C13   A    
C1    C44   S    
C11   C15   A    
O5    C1    A    
C12   C32   A    
C3    C42   S    
C29   C38   A    
C42   C46   T    
S2    O25   D    
C47   C48   S    
C41   C45   T    
O8    C4    A    
C31   C40   A    
S4    O31   D    
C8    C13   S    
C40   H12   S    
C32   C39   A    
O9    C5    A    
C33   C37   A    
C34   S2    S    
O6    V2    S    
C10   C30   A    
S2    O26   S    
C17   H5    S    
O16   V4    S    
S1    O23   S    
S3    O28   D    
C3    O13   A    
C19   H7    S    
C10   C14   A    
O17   V3    S    
C36   S4    S    
O6    C2    A    
C23   C27   A    
C2    C43   S    
C12   H4    S    
O11   V3    S    
C30   C37   A    
O12   V4    S    
C7    C14   S    
C22   C26   A    
C35   C39   A    
C36   C40   A    
O10   C6    A    
O20   V2    S    
C43   C47   T    
S2    O24   D    
C5    C16   S    
C39   H11   S    
C25   C29   A    
C6    C15   S    
S4    O30   D    
C33   S1    S    
C20   H8    S    
C27   C31   A    
C13   C17   A    
C11   H3    S    
C23   C35   A    
C28   C32   A    
C24   C28   A    
O23   H13   S    
C25   C26   A    
C4    O14   A    
O32   H16   S    
C17   C21   A    
C38   H10   S    
C19   C23   A    
O4    V2    S    
C20   C24   A    
O18   V2    S    
