data_mof_unit_37472.cif
_audit_creation_date              2012-12-10T19:43:27-0500
_audit_creation_method            fapswitch 2.2
_symmetry_space_group_name_H-M    P1
_symmetry_Int_Tables_number       1
_space_group_crystal_system       triclinic
_cell_length_a                    10.866513
_cell_length_b                    10.878138
_cell_length_c                    9.576281
_cell_angle_alpha                 90.049444
_cell_angle_beta                  91.014516
_cell_angle_gamma                 91.904642
_cell_volume                      1131.18360974

loop_
_atom_site_label
_atom_site_type_symbol
_atom_type_description
_atom_site_fract_x
_atom_site_fract_y
_atom_site_fract_z
_atom_type_partial_charge
C1    C     C_R   0.506922 0.262448 0.501441 0.798715
C2    C     C_R   0.212841 0.722858 0.024028 -0.106424
C3    C     C_R   0.932853 0.542742 0.387214 -0.249776
C4    C     C_R   0.871572 0.494140 0.503189 -0.075237
C5    C     C_R   0.940037 0.446801 0.616761 0.071893
C6    C     C_R   0.067716 0.451585 0.612235 -0.203643
C7    C     C_R   0.128636 0.501536 0.497043 -0.096123
C8    C     C_R   0.060497 0.547479 0.383071 -0.003617
C9    C     C_R   0.875878 0.454177 0.865356 0.621355
C10   C     C_R   0.834619 0.395323 0.986445 -0.217748
C11   C     C_R   0.806740 0.269030 0.984831 -0.216175
C12   C     C_R   0.262491 0.501688 0.498779 0.796082
C13   C     C_R   0.819883 0.201534 0.862022 -0.157691
C14   C     C_R   0.856506 0.260919 0.739337 -0.250650
C15   C     C_R   0.884380 0.387769 0.740332 0.021747
C16   C     C_R   0.537833 0.116404 0.768613 -0.172927
C17   C     C_R   0.512990 0.054348 0.892423 -0.172535
C18   C     C_R   0.457450 0.938145 0.887814 -0.151618
C19   C     C_R   0.436368 0.880135 0.759617 -0.166548
C20   C     C_R   0.474788 0.936252 0.633283 0.099199
C21   C     C_R   0.509015 0.062299 0.636278 0.099036
C22   C     C_R   0.512335 0.127959 0.507176 -0.118115
C23   C     C_R   0.491130 0.737190 0.500715 0.780960
C24   C     C_R   0.506205 0.063243 0.380663 -0.222067
C25   C     C_R   0.496117 0.936324 0.379748 -0.226339
C26   C     C_R   0.481944 0.871276 0.504754 -0.116143
C27   C     C_R   0.656298 0.669473 0.146935 -0.186377
C28   C     C_R   0.728214 0.755803 0.076017 -0.217149
C29   C     C_R   0.727275 0.756296 0.932238 -0.081304
C30   C     C_R   0.655709 0.669312 0.858777 -0.087503
C31   C     C_R   0.576175 0.583656 0.926627 0.173263
C32   C     C_R   0.576256 0.583681 0.076287 0.211996
C33   C     C_R   0.427391 0.420538 0.072423 -0.059628
C34   C     C_R   0.737557 0.496363 0.501375 0.782427
C35   C     C_R   0.427438 0.420557 0.924391 -0.083094
C36   C     C_R   0.217594 0.783739 0.152710 -0.147847
C37   C     C_R   0.170599 0.725426 0.271225 -0.119155
C38   C     C_R   0.118211 0.606058 0.260756 0.125719
C39   C     C_R   0.116150 0.544489 0.131909 -0.117397
C40   C     C_R   0.164176 0.602741 0.013984 -0.039867
Cu1   Cu    Cu3+1 0.499990 0.499990 0.640660 0.924941
Cu2   Cu    Cu3+1 0.500010 0.500010 0.359340 0.933992
H1    H     H_    0.245378 0.769049 0.931705 0.118268
H2    H     H_    0.776407 0.223221 0.079064 0.153989
H3    H     H_    0.800411 0.103287 0.861511 0.153440
H4    H     H_    0.866514 0.207681 0.644818 0.147328
H5    H     H_    0.510707 0.110697 0.281364 0.157955
H6    H     H_    0.584743 0.204327 0.780684 0.192566
H7    H     H_    0.534849 0.097680 0.992062 0.132729
H8    H     H_    0.433521 0.891760 0.983912 0.132698
H9    H     H_    0.387571 0.792389 0.761423 0.159450
H10   H     H_    0.499191 0.889142 0.280229 0.166896
H11   H     H_    0.367676 0.355641 0.126532 0.133522
H12   H     H_    0.256077 0.876611 0.160259 0.125812
H13   H     H_    0.669047 0.673705 0.256795 0.204851
H14   H     H_    0.787235 0.821041 0.133353 0.150953
H15   H     H_    0.785827 0.821666 0.876976 0.151925
H16   H     H_    0.669291 0.671552 0.749454 0.203020
H17   H     H_    0.367840 0.355560 0.867739 0.140445
H18   H     H_    0.172959 0.773746 0.370247 0.114279
H19   H     H_    0.076937 0.451946 0.122942 0.118115
H20   H     H_    0.162112 0.555512 0.914430 0.146844
H21   H     H_    0.881359 0.580636 0.300291 0.161041
H22   H     H_    0.119813 0.413625 0.698801 0.141835
H23   H     H_    0.826841 0.447002 0.082307 0.159857
N1    N     N_R   0.501190 0.501210 0.147910 -0.192167
N2    N     N_R   0.501230 0.501290 0.852040 -0.203855
O1    O     O_R   0.499990 0.319640 0.618810 -0.593807
O2    O     O_R   0.500000 0.319660 0.381240 -0.583789
O3    O     O_R   0.319640 0.500000 0.618780 -0.590783
O4    O     O_R   0.319650 0.500020 0.381210 -0.569103
O5    O     O_R   0.500000 0.680340 0.618760 -0.617501
O6    O     O_R   0.500010 0.680360 0.381190 -0.594797
O7    O     O_R   0.680350 0.499980 0.618790 -0.589475
O8    O     O_R   0.680360 0.500000 0.381220 -0.607559
F1    F     F_    0.911153 0.574799 0.870400 -0.703613

loop_
_geom_bond_atom_site_label_1
_geom_bond_atom_site_label_2
_ccdc_geom_bond_type
C16   C21   A    
Cu1   Cu2   S    
C19   C20   A    
C16   H6    S    
C28   H14   S    
C7    C8    A    
C14   H4    S    
C31   N2    A    
Cu2   O8    S    
C37   C38   A    
C36   C37   A    
C5    C6    A    
C27   H13   S    
C1    O1    A    
C40   H20   S    
C35   H17   S    
C18   C19   A    
C23   C26   S    
C6    H22   S    
Cu1   O7    S    
C16   C17   A    
C9    F1    S    
C9    C10   A    
C34   O8    A    
C1    C22   S    
C21   C22   A    
C8    C38   S    
C23   O6    A    
C33   N1    A    
Cu1   O1    S    
C33   H11   S    
C7    C12   S    
C39   H19   S    
C4    C34   S    
C38   C39   A    
C24   C25   A    
Cu1   N2    S    
C3    C8    A    
C17   H7    S    
C39   C40   A    
C25   C26   A    
Cu2   O2    S    
C1    O2    A    
C29   C30   A    
C19   H9    S    
C31   C32   A    
C35   N2    A    
C2    H1    S    
C17   C18   A    
C11   H2    S    
C34   O7    A    
Cu1   O5    S    
C12   O4    A    
C29   H15   S    
C22   C24   A    
C3    C4    A    
C18   H8    S    
C32   N1    A    
C10   H23   S    
C2    C36   A    
C12   O3    A    
C28   C29   A    
Cu2   O6    S    
C27   C32   A    
C24   H5    S    
C23   O5    A    
C4    C5    A    
C6    C7    A    
C3    H21   S    
C9    C15   A    
C25   H10   S    
C13   H3    S    
C11   C13   A    
C30   C31   A    
C20   C26   A    
C30   H16   S    
Cu2   O4    S    
C33   C35   A    
C5    C15   S    
C37   H18   S    
C36   H12   S    
C10   C11   A    
C2    C40   A    
C20   C21   A    
C27   C28   A    
Cu2   N1    S    
C14   C15   A    
C13   C14   A    
Cu1   O3    S    
