data_mof_unit_26069.cif
_audit_creation_date              2012-12-10T18:10:18-0500
_audit_creation_method            fapswitch 2.2
_symmetry_space_group_name_H-M    P1
_symmetry_Int_Tables_number       1
_space_group_crystal_system       triclinic
_cell_length_a                    10.787896
_cell_length_b                    9.538569
_cell_length_c                    15.871279
_cell_angle_alpha                 89.697978
_cell_angle_beta                  90.223422
_cell_angle_gamma                 90.072284
_cell_volume                      1633.13555032

loop_
_atom_site_label
_atom_site_type_symbol
_atom_type_description
_atom_site_fract_x
_atom_site_fract_y
_atom_site_fract_z
_atom_type_partial_charge
C1    C     C_R   0.260403 0.499777 0.501886 0.965284
C2    C     C_3   0.643550 0.509896 0.949971 0.586993
C3    C     C_3   0.645017 0.492399 0.049696 0.645571
C4    C     C_1   0.503342 0.498891 0.824592 0.196669
C5    C     C_1   0.503984 0.500820 0.175500 0.002110
C6    C     C_1   0.501873 0.500894 0.251011 -0.127304
C7    C     C_3   0.073154 0.620916 0.558608 0.207370
C8    C     C_3   0.071587 0.357650 0.539382 0.170136
C9    C     C_3   0.929586 0.626186 0.553678 0.216494
C10   C     C_3   0.928267 0.361447 0.542861 0.170554
C11   C     C_3   0.073772 0.524813 0.408987 0.529002
C12   C     C_3   0.122463 0.499261 0.502099 -0.204571
C13   C     C_3   0.878400 0.499638 0.501427 -0.219431
C14   C     C_R   0.500107 0.500309 0.340592 0.814171
C15   C     C_3   0.927129 0.513628 0.407866 0.512554
C16   C     C_3   0.594615 0.083067 0.563473 0.742594
C17   C     C_3   0.582038 0.915682 0.571426 0.733114
C18   C     C_3   0.375479 0.083725 0.523868 0.139467
C19   C     C_3   0.372509 0.915804 0.516975 0.178780
C20   C     C_3   0.526290 0.084581 0.416017 0.161314
C21   C     C_3   0.535814 0.917853 0.417714 0.092410
C22   C     C_R   0.739726 0.499912 0.501403 0.942166
C23   C     C_R   0.500119 0.499697 0.659493 0.869219
C24   C     C_3   0.439331 0.632578 0.048415 -0.577776
C25   C     C_3   0.435040 0.370339 0.049836 -0.455742
C26   C     C_3   0.448995 0.359600 0.952567 0.195481
C27   C     C_3   0.429641 0.626563 0.950630 0.195497
C28   C     C_1   0.501632 0.499070 0.749071 -0.041628
C29   C     C_3   0.507107 0.500212 0.083228 0.004027
C30   C     C_3   0.505632 0.499007 0.917039 0.023060
Cu1   Cu    Cu3+1 0.499860 0.642410 0.500040 1.074904
Cu2   Cu    Cu3+1 0.499860 0.357590 0.500040 1.087719
N1    N     N_3   0.500250 0.143650 0.501830 -0.201402
N2    N     N_3   0.500250 0.856350 0.501830 -0.199485
O1    O     O_R   0.317570 0.620260 0.500050 -0.548088
O2    O     O_R   0.317570 0.379740 0.500050 -0.575790
O3    O     O_R   0.499890 0.620310 0.379470 -0.586825
O4    O     O_R   0.499890 0.379690 0.379470 -0.558959
O5    O     O_R   0.682190 0.620260 0.500020 -0.536709
O6    O     O_R   0.682190 0.379740 0.500020 -0.495519
O7    O     O_R   0.499870 0.620210 0.620600 -0.491999
O8    O     O_R   0.499870 0.379790 0.620600 -0.486076
O9    O     O_3   0.305536 0.623565 0.922329 -0.633706
H1    H     H_    0.257189 0.559586 0.959076 0.388848
O10   O     O_3   0.334126 0.329601 0.914504 -0.675309
H2    H     H_    0.313014 0.231495 0.930058 0.340733
H3    H     H_    0.904982 0.724505 0.519738 0.115703
H4    H     H_    0.893765 0.270054 0.506745 0.112708
O11   O     O_3   0.109763 0.661698 0.384810 -0.718303
H5    H     H_    0.098467 0.670516 0.322848 0.393314
O12   O     O_3   0.128060 0.431904 0.350243 -0.716061
H6    H     H_    0.135042 0.336783 0.374476 0.285198
O13   O     O_3   0.878536 0.637775 0.371664 -0.679463
H7    H     H_    0.793646 0.617982 0.350382 0.363326
O14   O     O_3   0.885995 0.399683 0.358003 -0.693180
H8    H     H_    0.928435 0.312726 0.376026 0.306718
O15   O     O_3   0.574785 0.140559 0.643725 -0.670438
H9    H     H_    0.649422 0.122399 0.679030 0.333859
O16   O     O_3   0.527223 0.884110 0.650167 -0.646973
H10   H     H_    0.591634 0.887846 0.695050 0.342902
O17   O     O_3   0.716095 0.123403 0.540928 -0.736300
H11   H     H_    0.745368 0.072509 0.491089 0.345217
O18   O     O_3   0.699555 0.851486 0.573941 -0.736299
H12   H     H_    0.742488 0.863321 0.520141 0.350987
O19   O     O_3   0.332974 0.136029 0.601482 -0.643304
H13   H     H_    0.362199 0.075002 0.647979 0.400286
O20   O     O_3   0.316612 0.853172 0.587700 -0.620340
H14   H     H_    0.231357 0.891614 0.591193 0.303030
H15   H     H_    0.446546 0.111865 0.373735 0.064470
H16   H     H_    0.467687 0.879128 0.369932 0.105086
O21   O     O_3   0.631631 0.147275 0.379784 -0.644712
H17   H     H_    0.627343 0.130351 0.318150 0.323678
O22   O     O_3   0.653040 0.870756 0.392129 -0.695566
H18   H     H_    0.656147 0.878034 0.329735 0.335496
H19   H     H_    0.306664 0.122315 0.476793 0.110485
H20   H     H_    0.311926 0.888807 0.462125 0.086046
H21   H     H_    0.345538 0.640393 0.077005 0.234428
H22   H     H_    0.335388 0.379107 0.067068 0.221090
H23   H     H_    0.469687 0.272180 0.079886 0.185462
H24   H     H_    0.487894 0.730243 0.067175 0.152694
H25   H     H_    0.513715 0.271790 0.938297 0.171196
H26   H     H_    0.469118 0.725189 0.924562 0.156308
O23   O     O_3   0.724683 0.592976 0.086893 -0.691271
H27   H     H_    0.677235 0.677690 0.102103 0.300716
O24   O     O_3   0.693416 0.358834 0.069875 -0.697350
H28   H     H_    0.708790 0.355614 0.131585 0.359640
O25   O     O_3   0.697358 0.638184 0.923430 -0.696612
H29   H     H_    0.665430 0.715778 0.958295 0.301746
O26   O     O_3   0.712818 0.401076 0.913058 -0.675018
H30   H     H_    0.801377 0.417831 0.927196 0.400433
H31   H     H_    0.108412 0.722523 0.533477 0.103675
H32   H     H_    0.098952 0.268773 0.498408 0.020107
O27   O     O_3   0.115290 0.604954 0.642247 -0.570754
H33   H     H_    0.113119 0.698991 0.668696 0.335659
O28   O     O_3   0.122643 0.332314 0.619884 -0.545828
H34   H     H_    0.108806 0.231639 0.633096 0.345566
O29   O     O_3   0.876212 0.628974 0.634510 -0.582322
H35   H     H_    0.888073 0.725237 0.656646 0.342058
O30   O     O_3   0.885120 0.349617 0.626350 -0.562397
H36   H     H_    0.886139 0.248553 0.641626 0.343284

loop_
_geom_bond_atom_site_label_1
_geom_bond_atom_site_label_2
_ccdc_geom_bond_type
O25   H29   S    
O27   H33   S    
C3    O24   S    
O22   H18   S    
O28   H34   S    
C24   C27   S    
O14   H8    S    
O29   H35   S    
Cu1   Cu2   S    
O24   H28   S    
C18   O19   S    
C1    C12   S    
C18   H19   S    
C23   O8    A    
Cu2   O2    S    
C19   H20   S    
C5    C6    T    
C14   O4    A    
C21   O22   S    
C18   C19   S    
C3    C29   S    
C9    C13   S    
C24   C29   S    
C26   O10   S    
C11   C15   S    
C24   H24   S    
O30   H36   S    
C16   C17   S    
C20   O21   S    
C19   O20   S    
C8    H32   S    
Cu2   O4    S    
C22   O6    A    
O16   H10   S    
C27   C30   S    
O17   H11   S    
C8    O28   S    
C4    C28   T    
C5    C29   S    
C25   C29   S    
C7    C12   S    
C7    O27   S    
O20   H14   S    
C21   N2    S    
C25   C26   S    
O13   H7    S    
C25   H22   S    
C10   C13   S    
O12   H6    S    
Cu1   O3    S    
C15   O14   S    
C2    O26   S    
O9    H1    S    
C11   O11   S    
C16   N1    S    
C6    C14   S    
O23   H27   S    
C8    C12   S    
C7    H31   S    
Cu1   N2    S    
C2    O25   S    
C23   C28   S    
C17   O16   S    
C20   N1    S    
C26   C30   S    
C26   H25   S    
C13   C15   S    
C10   H4    S    
Cu1   O1    S    
C20   H15   S    
O10   H2    S    
C17   N2    S    
C15   O13   S    
C1    O1    A    
C7    C9    S    
C9    O29   S    
Cu1   O7    S    
C25   H23   S    
C27   H26   S    
C19   N2    S    
C11   C12   S    
C9    H3    S    
C23   O7    A    
C21   H16   S    
C2    C30   S    
Cu2   N1    S    
C2    C3    S    
O21   H17   S    
O19   H13   S    
C17   O18   S    
C14   O3    A    
C3    O23   S    
O15   H9    S    
C22   O5    A    
Cu1   O5    S    
C13   C22   S    
C16   O15   S    
Cu2   O6    S    
C10   O30   S    
C18   N1    S    
C11   O12   S    
O18   H12   S    
C27   O9    S    
C24   H21   S    
C20   C21   S    
C8    C10   S    
O11   H5    S    
C16   O17   S    
Cu2   O8    S    
O26   H30   S    
C4    C30   S    
C1    O2    A    
