data_mof_unit_20984.cif
_audit_creation_date              2012-12-10T16:54:54-0500
_audit_creation_method            fapswitch 2.2
_symmetry_space_group_name_H-M    P1
_symmetry_Int_Tables_number       1
_space_group_crystal_system       triclinic
_cell_length_a                    7.876918
_cell_length_b                    8.637625
_cell_length_c                    15.710692
_cell_angle_alpha                 92.555085
_cell_angle_beta                  83.94364
_cell_angle_gamma                 92.604693
_cell_volume                      1061.00569778

loop_
_atom_site_label
_atom_site_type_symbol
_atom_type_description
_atom_site_fract_x
_atom_site_fract_y
_atom_site_fract_z
_atom_type_partial_charge
C1    C     C_R   0.543826 0.793915 0.499238 0.930415
C2    C     C_3   0.371821 0.593326 0.062269 -0.597691
C3    C     C_3   0.509792 0.479190 0.082095 0.156090
C4    C     C_3   0.457316 0.309564 0.047491 0.291168
C5    C     C_3   0.460980 0.312755 0.944936 0.076130
C6    C     C_1   0.508267 0.482739 0.174017 0.106803
C7    C     C_1   0.494574 0.496220 0.825443 0.131800
C8    C     C_1   0.495909 0.500071 0.750221 -0.069822
C9    C     C_2   0.562105 0.955873 0.512143 0.065364
C10   C     C_2   0.437748 0.044197 0.490223 -0.161853
C11   C     C_R   0.499140 0.501475 0.661410 0.904023
C12   C     C_R   0.456229 0.206252 0.502256 0.942262
C13   C     C_R   0.500848 0.497878 0.338564 0.878930
C14   C     C_3   0.365337 0.601712 0.964289 0.289955
C15   C     C_3   0.680759 0.546366 0.939720 -0.050598
C16   C     C_3   0.691956 0.538324 0.039463 0.145435
C17   C     C_1   0.503825 0.489697 0.249577 -0.138564
C18   C     C_3   0.498674 0.487582 0.916785 0.110104
H1    H     H_    0.395948 0.710396 0.091623 0.238593
H2    H     H_    0.244529 0.560449 0.095206 0.176079
H3    H     H_    0.698230 0.669771 0.923586 0.207374
N1    N     N_2   0.950340 0.457950 0.477370 0.005552
N2    N     N_2   0.049660 0.542050 0.522630 -0.004643
O1    O     O_R   0.389240 0.738570 0.505550 -0.613030
O2    O     O_R   0.678400 0.711630 0.491050 -0.597552
O3    O     O_R   0.355360 0.513470 0.630110 -0.614880
O4    O     O_R   0.644510 0.486530 0.615610 -0.574543
O5    O     O_R   0.321600 0.288370 0.508950 -0.612820
O6    O     O_R   0.610760 0.261430 0.494450 -0.590038
O7    O     O_R   0.355490 0.513470 0.384390 -0.607736
O8    O     O_R   0.644640 0.486530 0.369890 -0.621186
Zn1   Zn    Zn3+2 0.306930 0.517990 0.509680 1.005640
Zn2   Zn    Zn3+2 0.693070 0.482010 0.490320 1.024628
N3    N     N_3   0.192681 0.566279 0.940791 -0.368258
H4    H     H_    0.138429 0.469569 0.971177 0.197644
H5    H     H_    0.114524 0.656690 0.964045 0.233447
Br1   Br    Br    0.604048 0.151040 0.086296 -0.573522
Br2   Br    Br    0.746088 0.025217 0.579808 -0.493830
N4    N     N_3   0.299021 0.982459 0.444196 -0.433366
H6    H     H_    0.183815 0.010245 0.479704 0.226905
H7    H     H_    0.305524 0.036665 0.385657 0.189590
N5    N     N_3   0.032440 0.351321 0.420741 -0.316852
H8    H     H_    0.977798 0.242206 0.435757 0.201694
H9    H     H_    0.000593 0.374228 0.359798 0.182856
N6    N     N_3   0.967641 0.648308 0.579496 -0.284153
H10   H     H_    0.023652 0.757264 0.565197 0.206872
H11   H     H_    0.998272 0.624011 0.640470 0.221522
Br3   Br    Br    0.413546 0.816568 0.930840 -0.613699
Br4   Br    Br    0.871119 0.474163 0.858046 -0.553322
N7    N     N_3   0.735863 0.694886 0.075365 -0.440622
H12   H     H_    0.859653 0.728829 0.050483 0.196254
H13   H     H_    0.658653 0.778740 0.055981 0.243671
N8    N     N_3   0.821826 0.432724 0.061329 -0.401890
H14   H     H_    0.869069 0.360103 0.010778 0.235097
H15   H     H_    0.925555 0.491694 0.086231 0.183012
N9    N     N_3   0.296035 0.253481 0.916909 -0.457686
H16   H     H_    0.271852 0.138760 0.934564 0.235045
H17   H     H_    0.302333 0.249183 0.850042 0.235874
N10   N     N_3   0.594250 0.215411 0.899850 -0.387595
H18   H     H_    0.556670 0.098835 0.902612 0.268713
H19   H     H_    0.708140 0.226332 0.927553 0.257524
N11   N     N_3   0.287033 0.262605 0.089753 -0.437907
H20   H     H_    0.187043 0.316848 0.066971 0.174309
H21   H     H_    0.263097 0.143479 0.079687 0.241282

loop_
_geom_bond_atom_site_label_1
_geom_bond_atom_site_label_2
_ccdc_geom_bond_type
C14   N3    S    
C15   C18   S    
N7    H13   S    
O1    Zn1   S    
O3    Zn1   S    
N11   H20   S    
N2    N6    S    
C11   O4    A    
C12   O6    A    
O7    Zn1   S    
C9    C10   D    
C14   C18   S    
C5    N9    S    
N11   H21   S    
C13   C17   S    
C3    C6    S    
N2    Zn1   S    
C7    C18   S    
O8    Zn2   S    
C2    C3    S    
N10   H18   S    
N4    H7    S    
N6    H10   S    
O4    Zn2   S    
C1    O2    A    
N1    N5    S    
C15   H3    S    
N5    H9    S    
C12   O5    A    
C8    C11   S    
C10   C12   S    
C9    Br2   S    
C16   N7    S    
N7    H12   S    
N3    H5    S    
C15   Br4   S    
C2    C14   S    
N10   H19   S    
C7    C8    T    
N5    H8    S    
C5    N10   S    
N8    H15   S    
C2    H2    S    
C3    C4    S    
C4    N11   S    
C13   O7    A    
O5    Zn1   S    
C1    C9    S    
C4    Br1   S    
C1    O1    A    
N3    H4    S    
N6    H11   S    
O2    Zn2   S    
N4    H6    S    
N9    H16   S    
C6    C17   T    
C16   N8    S    
C4    C5    S    
C14   Br3   S    
C5    C18   S    
C11   O3    A    
C2    H1    S    
N8    H14   S    
C13   O8    A    
N1    N2    D    
C3    C16   S    
C15   C16   S    
O6    Zn2   S    
N9    H17   S    
C10   N4    S    
N1    Zn2   S    
