data_mof_unit_53046.cif
_audit_creation_date              2013-03-05T16:19:44-0500
_audit_creation_method            fapswitch 2.2
_symmetry_space_group_name_H-M    P1
_symmetry_Int_Tables_number       1
_space_group_crystal_system       triclinic
_cell_length_a                    10.613645
_cell_length_b                    9.713239
_cell_length_c                    27.717258
_cell_angle_alpha                 90.226659
_cell_angle_beta                  89.649584
_cell_angle_gamma                 89.976917
_cell_volume                      2857.37563144

loop_
_atom_site_label
_atom_site_type_symbol
_atom_site_description
_atom_site_fract_x
_atom_site_fract_y
_atom_site_fract_z
_atom_type_partial_charge
O1    O     O_R   0.314910 0.616040 0.499990 -0.635913
O2    O     O_R   0.314910 0.383960 0.499990 -0.636619
C1    C     C_R   0.257899 0.500047 0.502452 0.842895
O3    O     O_R   0.500140 0.616020 0.428740 -0.624194
O4    O     O_R   0.500140 0.383980 0.428740 -0.624413
C2    C     C_R   0.500314 0.499659 0.405961 0.893114
Zn1   Zn    Zn3+2 0.500150 0.654960 0.499980 0.919420
Zn2   Zn    Zn3+2 0.500150 0.345040 0.499980 0.919035
O5    O     O_R   0.685320 0.616040 0.499970 -0.625217
O6    O     O_R   0.685320 0.383960 0.499970 -0.624193
O7    O     O_R   0.500090 0.616050 0.571230 -0.631098
O8    O     O_R   0.500090 0.383950 0.571230 -0.632793
C3    C     C_R   0.742430 0.500009 0.501958 0.852981
C4    C     C_R   0.500328 0.500264 0.593984 0.871671
C5    C     C_R   0.387604 0.513200 0.177966 0.516016
O9    O     O_2   0.281469 0.539878 0.203424 -0.550599
N1    N     N_R   0.498313 0.490589 0.201472 -0.359003
C6    C     C_R   0.607359 0.460866 0.177228 0.506830
C7    C     C_R   0.495179 0.619668 0.277273 -0.096804
C8    C     C_R   0.495943 0.622145 0.327426 -0.212006
C9    C     C_R   0.504493 0.372014 0.328344 -0.209532
C10   C     C_R   0.504056 0.369964 0.278290 -0.099894
C11   C     C_R   0.499265 0.493597 0.252811 0.318861
C12   C     C_R   0.495442 0.479177 0.101640 -0.053011
C13   C     C_R   0.384003 0.507734 0.127537 -0.042818
C14   C     C_R   0.270749 0.524209 0.102880 -0.173687
C15   C     C_R   0.607928 0.453795 0.126843 -0.020107
C16   C     C_R   0.500382 0.498157 0.353275 -0.048332
H1    H     H_    0.507943 0.274985 0.347395 0.153209
H2    H     H_    0.507010 0.272494 0.259194 0.137796
H3    H     H_    0.183003 0.535767 0.122789 0.197355
C17   C     C_R   0.501491 0.500865 0.646629 -0.053947
C18   C     C_R   0.389911 0.529579 0.975002 0.039772
C19   C     C_R   0.603064 0.428849 0.974249 0.044440
C20   C     C_R   0.497320 0.481339 0.949390 0.079010
C21   C     C_R   0.297480 0.603272 0.949345 -0.197660
C22   C     C_R   0.301143 0.611336 0.899389 -0.132208
C23   C     C_R   0.400087 0.550795 0.873520 -0.022182
C24   C     C_R   0.499846 0.487978 0.898442 -0.054833
C25   C     C_R   0.602552 0.432861 0.872410 -0.023390
C26   C     C_R   0.602357 0.439298 0.822021 0.514326
N2    N     N_R   0.503583 0.499010 0.798655 -0.357127
C27   C     C_R   0.403456 0.554355 0.823120 0.518657
C28   C     C_R   0.480037 0.379087 0.722050 -0.110086
C29   C     C_R   0.479169 0.378578 0.672000 -0.224909
C30   C     C_R   0.525672 0.623543 0.671865 -0.264319
C31   C     C_R   0.527607 0.624105 0.722110 0.052880
C32   C     C_R   0.503945 0.501246 0.747202 0.274900
O10   O     O_2   0.307340 0.611671 0.798628 -0.555188
C33   C     C_R   0.382290 0.509934 0.025644 -0.012050
C34   C     C_R   0.494504 0.475915 0.050651 0.062537
C35   C     C_R   0.605872 0.438258 0.025148 0.052091
C36   C     C_R   0.267860 0.521029 0.052655 -0.017082
H4    H     H_    0.460153 0.282852 0.653233 0.155071
H5    H     H_    0.461848 0.284548 0.741472 0.150427
H6    H     H_    0.226729 0.666667 0.881187 0.194104
H7    H     H_    0.224260 0.661154 0.967396 0.163639
O11   O     O_2   0.714656 0.438507 0.201915 -0.547794
C37   C     C_R   0.718127 0.422106 0.101400 -0.130398
H8    H     H_    0.492736 0.720639 0.345846 0.151421
H9    H     H_    0.491626 0.715304 0.257369 0.138434
H10   H     H_    0.805976 0.403462 0.119990 0.194556
C38   C     C_R   0.703297 0.370891 0.947170 -0.207148
C39   C     C_R   0.702581 0.372510 0.897102 -0.124932
O12   O     O_2   0.700054 0.387009 0.796471 -0.552997
C40   C     C_R   0.717134 0.413521 0.051471 -0.208408
H11   H     H_    0.782461 0.320459 0.963715 0.152276
H12   H     H_    0.544164 0.718345 0.652548 0.151850
H13   H     H_    0.781524 0.327146 0.877831 0.194007
H14   H     H_    0.806336 0.391705 0.034348 0.163108
C41   C     C_3   0.071561 0.630323 0.530174 -0.397593
C42   C     C_3   0.071661 0.370760 0.530378 -0.398599
H15   H     H_    0.105555 0.725670 0.512125 0.176410
H16   H     H_    0.105756 0.274778 0.512489 0.176466
H17   H     H_    0.106140 0.632490 0.568014 0.167032
H18   H     H_    0.106222 0.369951 0.568224 0.165660
C43   C     C_3   0.927512 0.630298 0.529983 -0.398482
C44   C     C_3   0.927603 0.370714 0.530173 -0.397516
H19   H     H_    0.891042 0.632538 0.567730 0.164342
H20   H     H_    0.891114 0.369770 0.567919 0.165966
H21   H     H_    0.894330 0.725599 0.511812 0.185983
H22   H     H_    0.894510 0.274789 0.512137 0.185773
H23   H     H_    0.109355 0.591309 0.431389 0.173394
H24   H     H_    0.109426 0.406304 0.431532 0.173346
H25   H     H_    0.895215 0.591006 0.431052 0.191458
H26   H     H_    0.895304 0.406597 0.431183 0.191720
C45   C     C_3   0.073835 0.499150 0.451000 -0.400028
C46   C     C_3   0.121582 0.500078 0.503582 0.177512
C47   C     C_3   0.878861 0.500031 0.503274 0.169441
C48   C     C_3   0.929533 0.499139 0.450822 -0.385736
C49   C     C_3   0.373828 0.081417 0.511753 -0.274122
C50   C     C_3   0.373823 0.918972 0.511743 -0.273212
H27   H     H_    0.302147 0.118736 0.485781 0.150298
H28   H     H_    0.302171 0.881148 0.485756 0.149818
H29   H     H_    0.344026 0.120494 0.547851 0.157286
H30   H     H_    0.343986 0.880701 0.547831 0.159787
H31   H     H_    0.460460 0.115147 0.424285 0.101801
H32   H     H_    0.460564 0.883339 0.424262 0.102166
C51   C     C_3   0.533380 0.081470 0.450422 -0.076023
C52   C     C_3   0.533434 0.917518 0.450421 -0.074654
C53   C     C_3   0.589790 0.081322 0.534692 -0.247242
C54   C     C_3   0.589765 0.919367 0.534699 -0.250167
N3    N     N_3   0.499750 0.138610 0.498940 -0.054986
N4    N     N_3   0.499750 0.861390 0.498940 -0.054812
H33   H     H_    0.686614 0.119451 0.527224 0.150150
H34   H     H_    0.686582 0.880944 0.527247 0.149700
H35   H     H_    0.565233 0.119538 0.571440 0.156119
H36   H     H_    0.565156 0.881986 0.571438 0.152889
C55   C     C_1   0.555292 0.750474 0.747446 0.187946
N5    N     N_1   0.577452 0.851786 0.767794 -0.183281
C56   C     C_1   0.652481 0.141879 0.432221 0.211831
N6    N     N_1   0.745611 0.188083 0.417649 -0.228720
C57   C     C_1   0.652617 0.856749 0.432225 0.215013
N7    N     N_1   0.745801 0.810239 0.417660 -0.229465
C58   C     C_1   0.144465 0.509919 0.031133 0.154624
N8    N     N_1   0.045566 0.500697 0.014057 -0.219094

loop_
_geom_bond_atom_site_label_1
_geom_bond_atom_site_label_2
_geom_bond_distance
_ccdc_geom_bond_type
C53   H35   1.112143 S    
C51   N3    1.493988 S    
C45   C46   1.545932 S    
C53   C54   1.573109 S    
C17   C29   1.402257 A    
H23   C45   1.113790 S    
C56   N6    1.156931 T    
C12   C15   1.409050 A    
C52   N4    1.494526 S    
C42   H18   1.113434 S    
C40   H14   1.077052 S    
Zn1   O7    2.012161 S    
C43   C47   1.553539 S    
N1    C11   1.423269 S    
C21   C22   1.387489 A    
C37   C40   1.386192 A    
O4    C2    1.291023 A    
O7    C4    1.291602 A    
C44   H20   1.113444 S    
C5    C13   1.399328 A    
C5    O9    1.350037 S    
C50   H30   1.112722 S    
C18   C21   1.411553 A    
C5    N1    1.365157 A    
C19   C20   1.416375 A    
C26   N2    1.365884 A    
O5    C3    1.281018 A    
C42   C44   1.529023 S    
H31   C51   1.113259 S    
C22   H6    1.083429 S    
C6    O11   1.350106 S    
C2    C16   1.460336 S    
C51   C52   1.592502 S    
H24   C45   1.113792 S    
C54   H36   1.112088 S    
C8    H8    1.083047 S    
C12   C34   1.413601 A    
C14   H3    1.085158 S    
C53   N3    1.490104 S    
C9    C10   1.387466 A    
O3    Zn1   2.009007 S    
C42   C46   1.553477 S    
C33   C34   1.421155 A    
C43   H19   1.113460 S    
C44   C47   1.553340 S    
C53   H33   1.111035 S    
C38   H11   1.078146 S    
C33   C36   1.426646 A    
C52   C57   1.480609 S    
C34   C35   1.420575 A    
C12   C13   1.406727 A    
O3    C2    1.292442 A    
C21   H7    1.078434 S    
H26   C48   1.111344 S    
C4    C17   1.459286 S    
C49   C50   1.577866 S    
C41   H15   1.113502 S    
C7    C11   1.397919 A    
C27   O10   1.349989 S    
C26   O12   1.349961 S    
C8    C16   1.404675 A    
C18   C33   1.419153 A    
C31   C55   1.442952 S    
C9    H1    1.082859 S    
C41   C46   1.553355 S    
O1    C1    1.280946 A    
C20   C24   1.413953 A    
C30   H12   1.084383 S    
C22   C23   1.396323 A    
C49   H27   1.112180 S    
C44   H22   1.113630 S    
C31   C32   1.405549 A    
C43   H21   1.113627 S    
Zn2   O8    2.009224 S    
C51   C56   1.480488 S    
C50   H28   1.112185 S    
N1    C6    1.364951 A    
N2    C32   1.426377 S    
C39   H13   1.083457 S    
C54   N4    1.489923 S    
C42   H16   1.113491 S    
C25   C26   1.398313 A    
C9    C16   1.404831 A    
O8    C4    1.291733 A    
C29   H4    1.083267 S    
H32   C52   1.113229 S    
Zn1   N4    2.005429 S    
N2    C27   1.366012 A    
C14   C36   1.392848 A    
C41   C43   1.528927 S    
C35   C40   1.412889 A    
C28   C29   1.387330 A    
C57   N7    1.156945 T    
Zn1   O5    2.001206 S    
C30   C31   1.392900 A    
C37   H10   1.083570 S    
C10   H2    1.083162 S    
C3    C47   1.448711 S    
C1    C46   1.446959 S    
O1    Zn1   2.002235 S    
C17   C30   1.403893 A    
O2    Zn2   2.001935 S    
C6    C15   1.397940 A    
C49   N3    1.489063 S    
O6    C3    1.281221 A    
O4    Zn2   2.011946 S    
C36   C58   1.446341 S    
H25   C48   1.111406 S    
C19   C35   1.413863 A    
C25   C39   1.396689 A    
C7    C8    1.390273 A    
O2    C1    1.280854 A    
C13   C14   1.395817 A    
C23   C27   1.397740 A    
C15   C37   1.395685 A    
C55   N5    1.157252 T    
C41   H17   1.113428 S    
C28   H5    1.083078 S    
C23   C24   1.407944 A    
C7    H9    1.083045 S    
C19   C38   1.413660 A    
C18   C20   1.417795 A    
C54   H34   1.111017 S    
Zn2   N3    2.005205 S    
C50   N4    1.489002 S    
C49   H29   1.112748 S    
C38   C39   1.387952 A    
C24   C25   1.407967 A    
C28   C32   1.397919 A    
Zn2   O6    2.001505 S    
C45   C48   1.531609 S    
C10   C11   1.396598 A    
C47   C48   1.547019 S    
C58   N8    1.157443 T    
