data_mof_unit_53740.cif
_audit_creation_date              2012-12-11T16:51:01-0500
_audit_creation_method            fapswitch 2.2
_symmetry_space_group_name_H-M    P1
_symmetry_Int_Tables_number       1
_space_group_crystal_system       triclinic
_cell_length_a                    6.935375
_cell_length_b                    28.852597
_cell_length_c                    32.125168
_cell_angle_alpha                 100.826058
_cell_angle_beta                  89.67069
_cell_angle_gamma                 90.578339
_cell_volume                      6313.57848985

loop_
_atom_site_label
_atom_site_type_symbol
_atom_type_description
_atom_site_fract_x
_atom_site_fract_y
_atom_site_fract_z
_atom_type_partial_charge
O1    O     O_R   0.494350 0.453170 0.452520 -0.542881
O2    O     O_R   0.820980 0.455850 0.538220 -0.542355
O3    O     O_R   0.994300 0.546830 0.547480 -0.508562
C1    C     C_R   0.651267 0.446182 0.552185 0.729631
O4    O     O_R   0.823860 0.447590 0.452270 -0.547083
O5    O     O_R   0.997200 0.538510 0.460920 -0.547051
C2    C     C_R   0.654540 0.434868 0.436520 0.684798
O6    O     O_R   0.491440 0.461490 0.539080 -0.516841
O7    O     O_3   0.661790 0.529840 0.502940 -0.357343
V1    V     V_3+5 0.935470 0.494460 0.499450 1.455314
O8    O     O_R   0.327090 0.544150 0.461780 -0.520375
C3    C     C_R   0.159017 0.554451 0.448301 0.718944
O9    O     O_R   0.324210 0.552410 0.547730 -0.544082
C4    C     C_R   0.155313 0.565487 0.563298 0.736786
V2    V     V_3+5 0.435840 0.505540 0.500550 1.464890
O10   O     O_3   0.159650 0.470160 0.497060 -0.368426
C5    C     C_R   0.221687 0.872206 0.887880 -0.156572
H1    H     H_    0.350099 0.881831 0.906676 0.123831
C6    C     C_R   0.233646 0.835935 0.852280 -0.139168
H2    H     H_    0.370847 0.818837 0.844316 0.110760
C7    C     C_R   0.071533 0.822586 0.826641 0.092998
C8    C     C_R   0.896284 0.845907 0.837732 -0.136844
H3    H     H_    0.768722 0.836109 0.818682 0.109716
C9    C     C_R   0.883361 0.881706 0.873784 -0.157265
H4    H     H_    0.746260 0.898948 0.881449 0.117976
C10   C     C_R   0.046373 0.895568 0.899156 -0.050781
C11   C     C_R   0.013196 0.791744 0.749184 -0.145752
H5    H     H_    0.945176 0.824725 0.746667 0.118676
C12   C     C_R   0.031263 0.756670 0.712794 -0.165732
H6    H     H_    0.976707 0.763543 0.683046 0.113278
C13   C     C_R   0.120494 0.713461 0.714601 0.115126
C14   C     C_R   0.189972 0.706262 0.753963 -0.099240
H7    H     H_    0.253427 0.672931 0.756945 0.155534
C15   C     C_R   0.175331 0.741732 0.790183 -0.166901
H8    H     H_    0.230579 0.735189 0.819990 0.124914
C16   C     C_R   0.086309 0.784813 0.788217 0.075117
C17   C     C_R   0.304854 0.649534 0.664697 0.230633
C18   C     C_R   0.308506 0.613934 0.627979 -0.256931
H9    H     H_    0.438846 0.593709 0.620169 0.175581
C19   C     C_R   0.146595 0.604061 0.601448 -0.187691
C20   C     C_R   0.979122 0.631389 0.611904 0.414311
C21   C     C_R   0.974294 0.666130 0.648915 -0.286583
H10   H     H_    0.842875 0.685790 0.656656 0.133429
C22   C     C_R   0.134669 0.675752 0.675698 0.021729
C23   C     C_R   0.073151 0.655780 0.281895 0.573952
N1    N     N_R   0.104659 0.675183 0.323784 -0.551044
C24   C     C_R   0.124011 0.723214 0.336501 0.567425
C25   C     C_R   0.115326 0.753410 0.306780 -0.027706
C26   C     C_R   0.082733 0.733927 0.263818 -0.012234
C27   C     C_R   0.060033 0.684758 0.251201 -0.031314
C28   C     C_R   0.138630 0.802556 0.319005 -0.144361
C29   C     C_R   0.130865 0.831846 0.288974 -0.142111
C30   C     C_R   0.098419 0.812792 0.245970 -0.030008
C31   C     C_R   0.073464 0.763677 0.233388 -0.022509
C32   C     C_R   0.040114 0.744230 0.190438 -0.060620
C33   C     C_R   0.016007 0.695108 0.178249 -0.139088
C34   C     C_R   0.026371 0.665743 0.208214 -0.136741
C35   C     C_R   0.091511 0.841643 0.215142 0.548729
N2    N     N_R   0.058774 0.822325 0.173322 -0.547551
C36   C     C_R   0.032377 0.774466 0.160716 0.607006
O11   O     O_2   0.057162 0.608543 0.269762 -0.520961
O12   O     O_2   0.150041 0.741873 0.377865 -0.528145
H11   H     H_    0.163926 0.818577 0.351815 0.169768
H12   H     H_    0.150402 0.869489 0.299610 0.169198
O13   O     O_2   0.119811 0.888604 0.226871 -0.530786
O14   O     O_2   0.997197 0.756161 0.119632 -0.504426
H13   H     H_    0.989992 0.679126 0.145459 0.172808
H14   H     H_    0.008002 0.628073 0.197544 0.171688
C37   C     C_R   0.189955 0.848641 0.109205 0.486210
C38   C     C_R   0.183728 0.879061 0.079783 -0.283982
H15   H     H_    0.290302 0.875426 0.054618 0.145112
C39   C     C_R   0.038775 0.913198 0.082276 -0.097313
C40   C     C_R   0.900706 0.916583 0.114828 -0.225582
H16   H     H_    0.785873 0.942020 0.117197 0.127902
C41   C     C_R   0.911233 0.887732 0.145196 -0.200295
H17   H     H_    0.805956 0.891791 0.170594 0.147281
C42   C     C_R   0.052801 0.852864 0.142303 0.292978
C43   C     C_R   0.287658 0.645364 0.379187 -0.144496
H18   H     H_    0.406707 0.668427 0.374406 0.135283
C44   C     C_R   0.303168 0.616765 0.410015 0.154349
C45   C     C_R   0.149625 0.586056 0.416376 -0.047055
C46   C     C_R   0.983007 0.585358 0.391352 -0.268649
H19   H     H_    0.863934 0.561808 0.394817 0.146742
C47   C     C_R   0.967783 0.614519 0.361261 -0.101937
H20   H     H_    0.836688 0.613581 0.342962 0.139504
C48   C     C_R   0.120072 0.644780 0.354805 0.350762
C49   C     C_R   0.556301 0.224508 0.838609 0.585594
N3    N     N_R   0.576581 0.176708 0.825726 -0.538458
C50   C     C_R   0.608639 0.157356 0.783910 0.616718
C51   C     C_R   0.619469 0.186280 0.753153 -0.036088
C52   C     C_R   0.598581 0.235409 0.765922 -0.016121
C53   C     C_R   0.567216 0.254815 0.809003 -0.032804
C54   C     C_R   0.650779 0.167323 0.710062 -0.139169
C55   C     C_R   0.660377 0.196706 0.680077 -0.138497
C56   C     C_R   0.639459 0.245807 0.692441 -0.030068
C57   C     C_R   0.608934 0.265203 0.735541 -0.014578
C58   C     C_R   0.588395 0.314321 0.748326 -0.029311
C59   C     C_R   0.557875 0.333307 0.791447 -0.138866
C60   C     C_R   0.547164 0.303919 0.821398 -0.138658
C61   C     C_R   0.646895 0.276054 0.662720 0.575401
N4    N     N_R   0.626352 0.323907 0.675569 -0.552782
C62   C     C_R   0.598757 0.343263 0.717591 0.572130
O15   O     O_2   0.524567 0.242657 0.879898 -0.520875
O16   O     O_2   0.631005 0.110314 0.772143 -0.522157
H21   H     H_    0.667499 0.129688 0.699322 0.169342
H22   H     H_    0.684120 0.180782 0.647169 0.170723
O17   O     O_2   0.671967 0.257649 0.621257 -0.521015
O18   O     O_2   0.582696 0.390441 0.729715 -0.522753
H23   H     H_    0.541594 0.370951 0.802210 0.172193
H24   H     H_    0.523059 0.319834 0.854295 0.171842
C63   C     C_R   0.469283 0.381196 0.638710 -0.125730
H25   H     H_    0.341373 0.378600 0.657684 0.126072
C64   C     C_R   0.472167 0.411745 0.609240 0.170709
C65   C     C_R   0.639874 0.414654 0.584150 -0.074974
C66   C     C_R   0.800790 0.387235 0.590197 -0.260503
H26   H     H_    0.931003 0.388524 0.571673 0.166121
C67   C     C_R   0.796501 0.357614 0.620026 -0.096603
H27   H     H_    0.923003 0.337311 0.624245 0.139113
C68   C     C_R   0.630757 0.354274 0.644466 0.345170
C69   C     C_R   0.405217 0.116806 0.858632 0.239419
C70   C     C_R   0.398248 0.087446 0.888926 -0.330453
H28   H     H_    0.274085 0.064500 0.889611 0.141954
C71   C     C_R   0.550769 0.086874 0.917527 -0.066931
C72   C     C_R   0.711537 0.117019 0.915712 0.155750
C73   C     C_R   0.717317 0.146489 0.885491 -0.222812
H29   H     H_    0.840244 0.169691 0.884391 0.140839
C74   C     C_R   0.566069 0.146392 0.856738 0.377535
C75   C     C_R   0.718815 0.114206 0.125443 0.421021
C76   C     C_R   0.725268 0.151954 0.160067 -0.224556
H30   H     H_    0.860493 0.159753 0.176741 0.124010
C77   C     C_R   0.561007 0.178735 0.173492 0.045137
C78   C     C_R   0.390064 0.168371 0.150134 -0.144369
H31   H     H_    0.259775 0.187939 0.159740 0.126194
C79   C     C_R   0.383983 0.132024 0.114422 -0.215917
H32   H     H_    0.249875 0.125433 0.097139 0.192664
C80   C     C_R   0.547365 0.104286 0.101409 -0.158151
C81   C     C_R   0.468833 0.259204 0.214072 -0.199652
H33   H     H_    0.383955 0.264862 0.187309 0.120834
C82   C     C_R   0.480913 0.295446 0.250074 0.202232
C83   C     C_R   0.595240 0.289454 0.284930 0.077777
C84   C     C_R   0.695255 0.247030 0.282844 -0.215168
H34   H     H_    0.782238 0.241366 0.309308 0.131124
C85   C     C_R   0.681793 0.211131 0.247104 -0.152551
H35   H     H_    0.758205 0.178613 0.247168 0.119410
C86   C     C_R   0.569477 0.216771 0.212083 0.081851
C87   C     C_R   0.792711 0.341653 0.340771 -0.149070
H36   H     H_    0.923172 0.326683 0.325345 0.108354
C88   C     C_R   0.807679 0.376478 0.377492 -0.154678
H37   H     H_    0.949650 0.387505 0.389531 0.119082
C89   C     C_R   0.641152 0.396984 0.398114 -0.052216
C90   C     C_R   0.459644 0.381485 0.381179 -0.166510
H38   H     H_    0.328000 0.396182 0.396204 0.121834
C91   C     C_R   0.444965 0.346745 0.344568 -0.089222
H39   H     H_    0.303215 0.335158 0.332735 0.117666
C92   C     C_R   0.611172 0.326727 0.323735 0.125564
O19   O     O_R   0.699170 0.038480 0.960880 -0.516509
O20   O     O_R   0.366800 0.052460 0.047690 -0.543763
O21   O     O_R   0.193520 0.961530 0.039110 -0.545309
C93   C     C_R   0.536100 0.065319 0.063490 0.717124
O22   O     O_R   0.369630 0.044100 0.961740 -0.546762
O23   O     O_R   0.196370 0.953120 0.952550 -0.544080
C94   C     C_R   0.539442 0.054612 0.948611 0.747346
O24   O     O_R   0.696320 0.046890 0.047450 -0.506609
O25   O     O_3   0.528890 0.970170 0.997080 -0.380431
V3    V     V_3+5 0.255190 0.005530 0.000540 1.435814
O26   O     O_R   0.866460 0.947530 0.952310 -0.545487
C95   C     C_R   0.035423 0.934503 0.936776 0.680871
O27   O     O_R   0.863630 0.955880 0.038270 -0.540049
C96   C     C_R   0.031693 0.945340 0.051293 0.722921
V4    V     V_3+5 0.754830 0.994440 0.999470 1.462027
O28   O     O_3   0.031000 0.029830 0.002920 -0.343798
O29   O     O_3   0.815402 0.623197 0.587168 -0.549940
C97   C     C_3   0.805387 0.657802 0.561451 0.095780
H40   H     H_    0.912031 0.649911 0.535096 0.115778
H41   H     H_    0.832872 0.694171 0.579602 0.106168
C98   C     C_3   0.604356 0.657215 0.542765 -0.673827
H42   H     H_    0.495555 0.664926 0.568556 0.210018
H43   H     H_    0.595030 0.684629 0.522834 0.168083
H44   H     H_    0.572435 0.622177 0.523006 0.253593
O30   O     O_3   0.326792 0.813613 0.104661 -0.533542
C99   C     C_3   0.486827 0.829374 0.130715 0.081328
H45   H     H_    0.461808 0.862283 0.154683 0.099772
H46   H     H_    0.607792 0.836250 0.109918 0.157874
C100  C     C_3   0.546324 0.790893 0.154451 -0.610194
H47   H     H_    0.594956 0.759224 0.131782 0.247306
H48   H     H_    0.664540 0.804189 0.176679 0.163844
H49   H     H_    0.424390 0.780869 0.173398 0.204645
N5    N     N_3   0.473580 0.620063 0.435313 -0.663062
H50   H     H_    0.591040 0.611854 0.414897 0.227076
H51   H     H_    0.490074 0.655202 0.450523 0.228607
N6    N     N_3   0.307027 0.440435 0.605605 -0.644589
H52   H     H_    0.192781 0.431719 0.624161 0.222666
H53   H     H_    0.345244 0.475386 0.618205 0.222914
N7    N     N_3   0.248522 0.116815 0.829831 -0.632956
H54   H     H_    0.123183 0.125612 0.847651 0.223057
H55   H     H_    0.230799 0.082468 0.812723 0.250552
N8    N     N_3   0.867026 0.118800 0.945144 -0.636652
H56   H     H_    0.994281 0.110656 0.927850 0.226726
H57   H     H_    0.879806 0.153439 0.961899 0.237979
O31   O     O_3   0.883595 0.087889 0.115275 -0.551098
C101  C     C_3   0.894461 0.054208 0.141961 0.094355
H58   H     H_    0.800103 0.023617 0.129163 0.109525
H59   H     H_    0.849974 0.068398 0.175347 0.107875
C102  C     C_3   0.101275 0.037540 0.143253 -0.709372
H60   H     H_    0.193933 0.066822 0.159743 0.215740
H61   H     H_    0.107619 0.007789 0.160665 0.191501
H62   H     H_    0.157095 0.025614 0.110683 0.229400
N9    N     N_3   0.381744 0.338842 0.250541 -0.672389
H63   H     H_    0.430240 0.353055 0.224687 0.243178
H64   H     H_    0.234772 0.331083 0.246261 0.226850
N10   N     N_3   0.474454 0.659615 0.690387 -0.675036
H65   H     H_    0.584260 0.635929 0.679097 0.245069
H66   H     H_    0.523659 0.693234 0.687504 0.225679

loop_
_geom_bond_atom_site_label_1
_geom_bond_atom_site_label_2
_ccdc_geom_bond_type
V3    O28   S    
N7    H55   S    
C32   C33   A    
C26   C27   A    
C54   C55   A    
C11   C12   A    
C67   H27   S    
C40   C41   A    
C101  H58   S    
C37   C42   A    
C56   C57   A    
C1    O6    A    
C75   C76   A    
N2    C42   S    
C24   O12   S    
C75   O31   S    
C65   C66   A    
C69   C74   A    
C71   C72   A    
C7    C16   S    
C97   H40   S    
C100  H47   S    
C76   C77   A    
C81   C82   A    
N4    C62   A    
C5    C10   A    
C81   C86   A    
O25   V3    S    
C6    C7    A    
C17   C18   A    
C88   C89   A    
C64   C65   A    
N3    C74   S    
C75   C80   A    
C37   O30   S    
O5    C3    A    
C18   H9    S    
C44   C45   A    
C43   C44   A    
C99   C100  S    
V4    O28   S    
C85   H35   S    
C33   C34   A    
N5    H51   S    
C15   H8    S    
C20   C21   A    
O19   V4    S    
N8    H57   S    
O24   V4    S    
C17   N10   S    
C54   H21   S    
C52   C57   A    
N1    C24   A    
C80   C93   S    
O25   V4    S    
C25   C28   A    
C55   H22   S    
C87   C92   A    
C63   H25   S    
C30   C31   A    
O31   C101  S    
C66   C67   A    
C90   H38   S    
C62   O18   S    
C38   H15   S    
O1    V2    S    
C91   C92   A    
O7    V1    S    
C15   C16   A    
C58   C62   A    
N3    C50   A    
C43   C48   A    
O27   V4    S    
N7    H54   S    
C36   O14   S    
N2    C36   A    
O20   C93   A    
C59   H23   S    
C32   C36   A    
C101  H59   S    
N8    H56   S    
C21   C22   A    
C58   C59   A    
C87   C88   A    
C99   H46   S    
C40   H16   S    
C83   C84   A    
C64   N6    S    
C20   O29   S    
C10   C95   S    
C72   C73   A    
C13   C22   S    
C53   C60   A    
C28   C29   A    
N4    C68   S    
C28   H11   S    
C9    H4    S    
C29   H12   S    
O20   V3    S    
C52   C53   A    
O4    C2    A    
C71   C94   S    
C67   C68   A    
C56   C61   A    
C78   H31   S    
C79   C80   A    
C35   N2    A    
C99   H45   S    
C60   H24   S    
C4    C19   S    
C72   N8    S    
C45   C46   A    
N6    H52   S    
N5    H50   S    
C14   C15   A    
O2    C1    A    
C41   H17   S    
N6    H53   S    
N10   H65   S    
C12   H6    S    
C2    C89   S    
C35   O13   S    
C24   C25   A    
C102  H62   S    
C82   C83   A    
C57   C58   A    
C5    H1    S    
C44   N5    S    
C55   C56   A    
C63   C64   A    
C29   C30   A    
C47   H20   S    
C41   C42   A    
N9    H63   S    
C70   H28   S    
O23   C95   A    
C97   H41   S    
C49   O15   S    
C63   C68   A    
N9    H64   S    
C19   C20   A    
N10   H66   S    
C102  H61   S    
C46   H19   S    
O6    V2    S    
O8    V2    S    
O9    V2    S    
C50   O16   S    
O26   C95   A    
C101  C102  S    
C93   O24   A    
C21   H10   S    
C34   H14   S    
C77   C78   A    
O2    V1    S    
C49   C53   A    
C69   C70   A    
C51   C54   A    
C87   H36   S    
C97   C98   S    
C1    C65   S    
C85   C86   A    
C31   C32   A    
O27   C96   A    
C61   O17   S    
O1    C2    A    
C27   C34   A    
C13   C14   A    
C9    C10   A    
C39   C40   A    
C98   H42   S    
O5    V1    S    
C38   C39   A    
C30   C35   A    
O21   C96   A    
O26   V4    S    
C79   H32   S    
O3    C4    A    
C11   C16   A    
C33   H13   S    
C81   H33   S    
C46   C47   A    
C7    C8    A    
C89   C90   A    
C100  H49   S    
C39   C96   S    
C98   H44   S    
C6    H2    S    
C84   C85   A    
C76   H30   S    
O4    V1    S    
C12   C13   A    
O3    V1    S    
V1    O10   S    
C84   H34   S    
C14   H7    S    
C18   C19   A    
C43   H18   S    
C51   C52   A    
C73   H29   S    
C23   C27   A    
C17   C22   A    
C25   C26   A    
V2    O10   S    
C23   O11   S    
O22   V3    S    
C5    C6    A    
C100  H48   S    
C3    C45   S    
C77   C86   S    
C8    C9    A    
C88   H37   S    
C90   C91   A    
O7    V2    S    
C37   C38   A    
C69   N7    S    
C91   H39   S    
C70   C71   A    
C82   N9    S    
C83   C92   S    
O19   C94   A    
O29   C97   S    
C23   N1    A    
C102  H60   S    
O21   V3    S    
C49   N3    A    
C78   C79   A    
C59   C60   A    
C11   H5    S    
C73   C74   A    
C8    H3    S    
C47   C48   A    
C61   N4    A    
C66   H26   S    
C50   C51   A    
O9    C4    A    
O23   V3    S    
O30   C99   S    
C26   C31   A    
O8    C3    A    
O22   C94   A    
C98   H43   S    
N1    C48   S    
