data_mof_unit_29183.cif
_audit_creation_date              2013-03-05T15:58:18-0500
_audit_creation_method            fapswitch 2.2
_symmetry_space_group_name_H-M    P1
_symmetry_Int_Tables_number       1
_space_group_crystal_system       triclinic
_cell_length_a                    12.596275
_cell_length_b                    13.166246
_cell_length_c                    15.45464
_cell_angle_alpha                 83.525807
_cell_angle_beta                  98.730416
_cell_angle_gamma                 96.765979
_cell_volume                      2503.9644587

loop_
_atom_site_label
_atom_site_type_symbol
_atom_site_description
_atom_site_fract_x
_atom_site_fract_y
_atom_site_fract_z
_atom_type_partial_charge
O1    O     O_R   0.374950 0.371210 0.521360 -0.611183
O2    O     O_R   0.542050 0.338030 0.492790 -0.616146
C1    C     C_R   0.445099 0.308162 0.513742 0.853521
O3    O     O_R   0.368720 0.526070 0.390200 -0.618631
O4    O     O_R   0.535820 0.492890 0.361630 -0.620665
C2    C     C_R   0.436348 0.515563 0.335864 0.867191
Zn1   Zn    Zn3+2 0.388420 0.522150 0.519080 0.939890
Zn2   Zn    Zn3+2 0.611580 0.477850 0.480920 0.928145
O5    O     O_R   0.457950 0.661970 0.507210 -0.614581
O6    O     O_R   0.625050 0.628790 0.478640 -0.631939
O7    O     O_R   0.464180 0.507110 0.638370 -0.613325
O8    O     O_R   0.631280 0.473930 0.609800 -0.641189
C3    C     C_R   0.556748 0.691551 0.490734 0.879025
C4    C     C_R   0.565493 0.490226 0.663781 0.866187
C5    C     C_R   0.404526 0.540896 0.241626 -0.060225
C6    C     C_R   0.608879 0.502429 0.755668 -0.076197
C7    C     C_R   0.276710 0.597539 0.117398 -0.195848
C8    C     C_R   0.301452 0.569037 0.207231 -0.197016
C9    C     C_R   0.482806 0.544162 0.186256 -0.259013
C10   C     C_R   0.461172 0.575886 0.096796 0.092114
C11   C     C_R   0.355178 0.599086 0.061665 0.168265
C12   C     C_R   0.540173 0.576822 0.040594 0.067885
C13   C     C_R   0.506332 0.581093 0.949100 0.070948
C14   C     C_R   0.402075 0.609966 0.915308 -0.220574
C15   C     C_R   0.328403 0.620779 0.971210 -0.221418
C16   C     C_R   0.651046 0.571162 0.072616 -0.227001
C17   C     C_R   0.723664 0.556945 0.016768 -0.222911
C18   C     C_R   0.686873 0.543504 0.928759 0.152708
C19   C     C_R   0.577334 0.554061 0.894851 0.095898
C20   C     C_R   0.757205 0.517063 0.874573 -0.143500
C21   C     C_R   0.718480 0.497256 0.788014 -0.127325
C22   C     C_R   0.539578 0.529377 0.809561 -0.256632
H1    H     H_    0.248664 0.641412 0.943284 0.168961
H2    H     H_    0.454693 0.527590 0.784911 0.164406
H3    H     H_    0.773913 0.477950 0.746745 0.174385
H4    H     H_    0.807753 0.551713 0.043459 0.148701
H5    H     H_    0.195948 0.616742 0.091307 0.143208
H6    H     H_    0.240090 0.568442 0.249414 0.158723
H7    H     H_    0.559888 0.517961 0.213451 0.161052
H8    H     H_    0.376270 0.626382 0.845743 0.150556
H9    H     H_    0.683984 0.579513 0.140419 0.150332
H10   H     H_    0.841586 0.510607 0.899417 0.158535
C23   C     C_R   0.730791 0.930389 0.550499 -0.163552
H11   H     H_    0.764842 0.781401 0.525728 0.184420
H12   H     H_    0.759555 0.115257 0.610393 0.154490
H13   H     H_    0.814843 0.954959 0.572275 0.151668
C24   C     C_R   0.594189 0.799249 0.496724 -0.073443
C25   C     C_R   0.301788 0.163504 0.508260 -0.186558
C26   C     C_R   0.269407 0.059599 0.504181 -0.142231
C27   C     C_R   0.346514 0.990675 0.511358 -0.188039
C28   C     C_R   0.458256 0.024796 0.526920 0.089103
C29   C     C_R   0.489556 0.127127 0.545414 0.082393
C30   C     C_R   0.540076 0.961075 0.524147 0.080695
C31   C     C_R   0.649866 0.994274 0.553019 0.156308
C32   C     C_R   0.676856 0.090131 0.584719 -0.240656
C33   C     C_R   0.597594 0.155774 0.581429 -0.195083
C34   C     C_R   0.515665 0.866045 0.490997 -0.259440
C35   C     C_R   0.702803 0.832380 0.522994 -0.144390
C36   C     C_R   0.411890 0.198228 0.526032 -0.114176
H14   H     H_    0.434771 0.840570 0.462307 0.153935
H15   H     H_    0.240784 0.216908 0.495218 0.154687
H16   H     H_    0.316358 0.911076 0.506503 0.133842
H17   H     H_    0.184364 0.032864 0.491694 0.144661
H18   H     H_    0.621818 0.228765 0.608166 0.173797
C37   C     C_R   0.140218 0.635765 0.628198 -0.242636
H19   H     H_    0.312421 0.655814 0.636164 0.136739
H20   H     H_    0.140845 0.691010 0.675040 0.192252
N1    N     N_R   0.239390 0.551900 0.544730 -0.101741
C38   C     C_R   0.757677 0.381017 0.395214 0.027604
C39   C     C_R   0.853216 0.354244 0.374433 -0.257766
C40   C     C_R   0.950866 0.397700 0.416088 -0.182287
C41   C     C_R   0.952922 0.468722 0.478940 0.022065
C42   C     C_R   0.853483 0.492796 0.497920 0.182089
C43   C     C_R   0.048995 0.517138 0.522763 -0.053838
C44   C     C_R   0.044467 0.584291 0.588331 0.059421
C45   C     C_R   0.944325 0.601437 0.610147 0.237412
C46   C     C_R   0.850762 0.560269 0.561133 -0.325236
C47   C     C_R   0.150423 0.502276 0.503245 -0.024417
C48   C     C_R   0.237620 0.617775 0.605419 -0.014721
N2    N     N_R   0.759950 0.448600 0.455730 -0.120811
H21   H     H_    0.162435 0.452626 0.455662 0.117945
H22   H     H_    0.681086 0.347481 0.363576 0.139658
H23   H     H_    0.022541 0.373352 0.398136 0.131121
H24   H     H_    0.851687 0.299898 0.326542 0.151011
H25   H     H_    0.776342 0.580409 0.575312 0.243034
N3    N     N_R   0.935939 0.656941 0.683604 0.196797
O9    O     O_R   0.857253 0.713710 0.679961 -0.427014
O10   O     O_R   0.992529 0.634374 0.759641 -0.424427

loop_
_geom_bond_atom_site_label_1
_geom_bond_atom_site_label_2
_geom_bond_distance
_ccdc_geom_bond_type
C5    C8    1.401782 A    
C32   C33   1.387215 A    
C37   C48   1.379746 A    
C9    C10   1.393717 A    
C30   C31   1.420182 A    
C6    C21   1.401942 A    
C5    C9    1.394359 A    
H19   C48   1.082095 S    
C16   C17   1.390375 A    
C26   H17   1.082762 S    
C13   C19   1.414003 A    
C18   C19   1.416691 A    
C19   C22   1.392526 A    
O4    C2    1.314337 A    
O7    C4    1.314253 A    
N3    O10   1.301620 A    
O5    C3    1.313352 A    
C38   H22   1.081626 S    
C23   C35   1.393253 A    
Zn1   N1    2.066087 S    
H11   C35   1.081734 S    
C37   H20   1.081148 S    
C13   C14   1.416517 A    
C33   H18   1.081472 S    
C39   C40   1.389826 A    
C39   H24   1.082597 S    
N1    C48   1.351600 A    
C2    C5    1.462115 S    
C46   H25   1.063540 S    
O3    Zn1   1.965013 S    
C7    C8    1.394336 A    
C40   H23   1.076642 S    
N1    C47   1.340752 A    
C43   C44   1.429446 A    
C28   C29   1.407074 A    
C14   C15   1.389288 A    
O3    C2    1.311907 A    
C3    C24   1.449295 S    
C30   C34   1.388736 A    
N3    O9    1.300894 A    
C34   H14   1.078538 S    
C7    C11   1.403208 A    
O1    C1    1.307732 A    
C22   H2    1.077674 S    
Zn1   O7    1.943403 S    
C44   C45   1.403272 A    
C29   C36   1.409521 A    
C24   C34   1.385797 A    
C23   C31   1.403415 A    
Zn2   O8    1.965013 S    
C27   C28   1.418941 A    
C7    H5    1.083747 S    
C45   C46   1.388390 A    
C9    H7    1.077378 S    
C41   C43   1.412909 A    
C25   C26   1.386385 A    
O8    C4    1.311806 A    
C12   C16   1.416801 A    
C27   H16   1.078676 S    
C21   H3    1.082835 S    
C45   N3    1.440721 S    
C25   C36   1.403980 A    
Zn1   O5    1.944826 S    
C11   C15   1.392518 A    
C31   C32   1.391467 A    
O1    Zn1   1.971298 S    
O2    Zn2   1.944827 S    
C10   C12   1.414889 A    
C41   C42   1.407649 A    
O6    C3    1.307330 A    
O4    Zn2   1.943403 S    
C17   H4    1.083960 S    
C6    C22   1.393535 A    
C37   C44   1.403412 A    
C18   C20   1.403902 A    
O2    C1    1.314929 A    
C8    H6    1.082990 S    
C40   C41   1.417767 A    
C24   C35   1.399139 A    
C47   H21   1.075410 S    
C25   H15   1.083425 S    
C20   C21   1.395028 A    
C14   H8    1.079945 S    
C42   N2    1.357434 A    
C4    C6    1.461606 S    
C38   C39   1.385083 A    
C23   H13   1.083751 S    
C10   C11   1.417496 A    
H12   C32   1.083952 S    
Zn2   O6    1.971296 S    
C26   C27   1.389762 A    
C43   C47   1.396706 A    
C17   C18   1.392739 A    
Zn2   N2    2.053525 S    
C42   C46   1.399225 A    
C12   C13   1.410325 A    
C20   H10   1.083707 S    
C38   N2    1.356776 A    
C28   C30   1.411797 A    
C29   C33   1.414395 A    
C16   H9    1.079596 S    
C15   H1    1.084049 S    
C1    C36   1.457926 S    
