data_mof_unit_5461.cif
_audit_creation_date              2012-12-11T15:46:39-0500
_audit_creation_method            fapswitch 2.2
_symmetry_space_group_name_H-M    P1
_symmetry_Int_Tables_number       1
_space_group_crystal_system       triclinic
_cell_length_a                    11.559345
_cell_length_b                    11.557171
_cell_length_c                    19.546878
_cell_angle_alpha                 90.623952
_cell_angle_beta                  90.103173
_cell_angle_gamma                 59.897336
_cell_volume                      2258.98290738

loop_
_atom_site_label
_atom_site_type_symbol
_atom_type_description
_atom_site_fract_x
_atom_site_fract_y
_atom_site_fract_z
_atom_type_partial_charge
C1    C     C_R   0.640453 0.117413 0.599225 0.546000
C2    C     C_1   0.652896 0.149844 0.668617 0.004144
C3    C     C_R   0.643959 0.697383 0.185491 0.016280
C4    C     C_R   0.612437 0.746184 0.598642 0.546634
C5    C     C_R   0.527810 0.722839 0.220839 0.017865
C6    C     C_R   0.522931 0.734606 0.290429 0.029906
C7    C     C_R   0.732609 0.730598 0.291138 -0.160489
C8    C     C_R   0.737814 0.719937 0.219628 -0.170177
C9    C     C_3   0.452553 0.647903 0.223202 -0.257898
C10   C     C_3   0.448451 0.661854 0.300000 -0.287098
C11   C     C_R   0.630495 0.724283 0.327129 0.020047
C12   C     C_1   0.641304 0.704090 0.667999 0.003854
C13   C     C_R   0.138751 0.201920 0.193094 0.029372
C14   C     C_R   0.117812 0.305764 0.237270 0.009546
C15   C     C_R   0.140887 0.286203 0.305934 0.015548
C16   C     C_R   0.241100 0.145376 0.598173 0.545226
C17   C     C_R   0.215101 0.052648 0.290168 -0.157732
C18   C     C_R   0.191953 0.072613 0.219619 -0.159075
C19   C     C_3   0.996799 0.439387 0.248183 -0.256292
C20   C     C_3   0.021518 0.417301 0.324271 -0.283250
C21   C     C_R   0.185180 0.161576 0.334264 0.017947
C22   C     C_R   0.687681 0.198964 0.199859 0.037356
C23   C     C_1   0.126699 0.198548 0.859306 0.004931
C24   C     C_R   0.800762 0.122527 0.240266 -0.013208
C25   C     C_R   0.791260 0.106050 0.308762 0.000775
C26   C     C_R   0.554610 0.262241 0.303452 -0.162284
C27   C     C_R   0.562714 0.278566 0.231948 0.229460
C28   C     C_R   0.645092 0.114077 0.403306 0.554086
C29   C     C_3   0.915056 0.982905 0.231071 -0.259816
C30   C     C_3   0.906048 0.965709 0.307281 -0.266238
C31   C     C_R   0.666667 0.164866 0.339956 -0.022763
C32   C     C_R   0.081746 0.231084 0.928621 0.548651
C33   C     C_R   0.683973 0.604172 0.929492 0.543706
C34   C     C_1   0.171482 0.170480 0.727688 -0.030548
C35   C     C_R   0.708441 0.206596 0.930166 0.548262
C36   C     C_R   0.082439 0.236461 0.125305 0.546958
C37   C     C_R   0.679690 0.617110 0.123555 0.534357
C38   C     C_R   0.710507 0.212995 0.128210 0.575643
C39   C     C_R   0.612735 0.747082 0.399877 0.543340
C40   C     C_R   0.242825 0.140390 0.401907 0.545125
C41   C     C_1   0.670355 0.646240 0.860136 0.005152
C42   C     C_1   0.654810 0.683758 0.728434 -0.030904
C43   C     C_1   0.663423 0.666560 0.799706 -0.030479
C44   C     C_3   0.331070 0.432098 0.224818 -0.133841
C45   C     C_1   0.150146 0.182183 0.798929 -0.030322
C46   C     C_1   0.195296 0.161234 0.667355 0.004188
C47   C     C_1   0.678721 0.191066 0.860811 0.005467
C48   C     C_1   0.658504 0.167312 0.729035 -0.030638
C49   C     C_1   0.665735 0.180795 0.800356 -0.030304
Cr1   Cr    Cr6+3 0.404720 0.198220 0.499960 1.023578
Cr2   Cr    Cr6+3 0.698290 0.897110 0.500380 1.022936
Cr3   Cr    Cr6+3 0.396970 0.904720 0.499610 1.024205
Cr4   Cr    Cr6+3 0.926290 0.152010 0.028150 1.022697
Cr5   Cr    Cr6+3 0.921440 0.451830 0.027490 1.026548
Cr6   Cr    Cr6+3 0.626370 0.446880 0.028730 1.054040
H1    H     H_    0.811794 0.735308 0.318109 0.125480
H2    H     H_    0.823000 0.712432 0.192621 0.119347
H3    H     H_    0.513655 0.541782 0.207051 0.211316
H4    H     H_    0.352259 0.704187 0.199145 0.132229
H5    H     H_    0.345924 0.726116 0.320685 0.131891
H6    H     H_    0.508631 0.564885 0.326534 0.138877
H7    H     H_    0.257415 0.952924 0.310034 0.133733
H8    H     H_    0.211082 0.988960 0.186597 0.119056
H9    H     H_    0.903725 0.441896 0.231160 0.155646
H10   H     H_    0.332045 0.502595 0.263479 0.100438
H11   H     H_    0.305317 0.362017 0.248828 0.141775
H12   H     H_    0.012971 0.520092 0.228719 0.126837
H13   H     H_    0.252055 0.491644 0.187079 0.146132
H14   H     H_    0.049419 0.487066 0.348795 0.135195
H15   H     H_    0.943095 0.406556 0.351541 0.138391
H16   H     H_    0.459686 0.315184 0.329794 0.131947
H17   H     H_    0.008699 0.980177 0.215753 0.148186
H18   H     H_    0.888303 0.919239 0.199412 0.139070
H19   H     H_    0.877305 0.890094 0.319237 0.149474
H20   H     H_    0.993718 0.955543 0.336020 0.135385
O1    O     O_R   0.267750 0.231960 0.575440 -0.505742
O2    O     O_R   0.596230 0.579400 0.952760 -0.505401
O3    O     O_R   0.639160 0.321170 0.958690 -0.491463
O4    O     O_R   0.527290 0.186640 0.570530 -0.494532
O5    O     O_R   0.821370 0.124220 0.104400 -0.533516
O6    O     O_R   0.037020 0.167050 0.097880 -0.510220
O7    O     O_R   0.056310 0.349620 0.102920 -0.511004
O8    O     O_R   0.797790 0.564880 0.097980 -0.510942
O9    O     O_R   0.596000 0.584270 0.104310 -0.520715
O10   O     O_R   0.638950 0.325690 0.099180 -0.454317
O11   O     O_3   0.824700 0.350240 0.028120 -0.264658
O12   O     O_R   0.685950 0.784660 0.430010 -0.510014
O13   O     O_R   0.728110 0.003450 0.576380 -0.505119
O14   O     O_R   0.682980 0.789190 0.570500 -0.493419
O15   O     O_R   0.499300 0.771880 0.575540 -0.504150
O16   O     O_R   0.285350 0.030870 0.569740 -0.494147
O17   O     O_R   0.270960 0.227070 0.423890 -0.516672
O18   O     O_R   0.530270 0.182120 0.430040 -0.510504
O19   O     O_R   0.731320 0.998570 0.424830 -0.518285
O20   O     O_3   0.454356 0.361184 0.190195 -0.559226
O21   O     O_R   0.502510 0.767000 0.423980 -0.517938
O22   O     O_R   0.288320 0.026340 0.429250 -0.509087
O23   O     O_3   0.499990 0.000020 0.499980 -0.254163
O24   O     O_R   0.821590 0.119350 0.952850 -0.505437
O25   O     O_R   0.037230 0.162540 0.957390 -0.494395
O26   O     O_R   0.056530 0.344750 0.951370 -0.501309
O27   O     O_R   0.798000 0.560370 0.957490 -0.494504

loop_
_geom_bond_atom_site_label_1
_geom_bond_atom_site_label_2
_ccdc_geom_bond_type
C25   C31   A    
C23   C45   T    
Cr5   O26   S    
C27   O20   S    
C19   C20   S    
C32   O26   A    
C39   O12   A    
C35   C47   S    
Cr1   O4    S    
C7    C8    A    
C47   C49   T    
Cr4   O24   S    
C7    C11   A    
C26   C27   A    
C13   C18   A    
C28   O19   A    
C1    C2    S    
C5    C6    A    
C30   H19   S    
C18   H8    S    
C29   H18   S    
C22   C38   S    
Cr3   O22   S    
Cr4   O6    S    
C9    H3    S    
C24   C29   S    
C12   C42   T    
C44   H11   S    
C36   O7    A    
C37   O9    A    
C19   H12   S    
Cr4   O11   S    
C34   C46   T    
C4    C12   S    
C9    C10   S    
C19   H9    S    
C29   H17   S    
C1    O13   A    
C26   C31   A    
C13   C14   A    
C26   H16   S    
C41   C43   T    
C20   H15   S    
C44   H10   S    
C7    H1    S    
C35   O24   A    
Cr5   O8    S    
C4    O15   A    
Cr4   O25   S    
C15   C20   S    
Cr1   O23   S    
C38   O10   A    
C33   O27   A    
C17   H7    S    
Cr4   O5    S    
C24   C25   A    
C13   C36   S    
C3    C8    A    
C16   C46   S    
C6    C11   A    
Cr5   O11   S    
Cr6   O3    S    
C2    C48   T    
C17   C21   A    
C32   O25   A    
C28   O18   A    
C9    H4    S    
Cr6   O10   S    
C10   H5    S    
C5    C9    S    
C29   C30   S    
Cr1   O1    S    
C8    H2    S    
C36   O6    A    
C17   C18   A    
C34   C45   S    
C40   O17   A    
C11   C39   S    
Cr1   O17   S    
C48   C49   S    
C22   C27   A    
C1    O4    A    
C22   C24   A    
C20   H14   S    
C44   H13   S    
C10   H6    S    
C42   C43   S    
Cr2   O12   S    
Cr5   O7    S    
C4    O14   A    
C25   C30   S    
Cr3   O15   S    
C16   O1    A    
C14   C19   S    
Cr5   O27   S    
C28   C31   S    
C3    C5    A    
Cr2   O13   S    
C6    C10   S    
Cr1   O18   S    
C35   O3    A    
C33   C41   S    
C23   C32   S    
Cr6   O11   S    
C40   O22   A    
C44   O20   S    
Cr2   O14   S    
C30   H20   S    
C33   O2    A    
C21   C40   S    
C38   O5    A    
Cr2   O23   S    
Cr6   O2    S    
Cr3   O23   S    
Cr3   O21   S    
C39   O21   A    
Cr2   O19   S    
C15   C21   A    
C3    C37   S    
C16   O16   A    
C14   C15   A    
C37   O8    A    
Cr3   O16   S    
Cr6   O9    S    
