data_mof_unit_9389.cif
_audit_creation_date              2012-10-26T19:40:41-0400
_audit_creation_method            fapswitch 2.2
_symmetry_space_group_name_H-M    P1
_symmetry_Int_Tables_number       1
_space_group_crystal_system       triclinic
_cell_length_a                    9.679785
_cell_length_b                    10.917086
_cell_length_c                    13.362036
_cell_angle_alpha                 90.40826
_cell_angle_beta                  73.500603
_cell_angle_gamma                 92.419916
_cell_volume                      1352.6652237

loop_
_atom_site_label
_atom_site_type_symbol
_atom_type_description
_atom_site_fract_x
_atom_site_fract_y
_atom_site_fract_z
_atom_type_partial_charge
C1    C     C_R   0.502970 0.734402 0.500288 0.573264
C2    C     C_R   0.393625 0.564998 0.806841 -0.036605
C3    C     C_2   0.607520 0.069757 0.453898 -0.145823
C4    C     C_R   0.426906 0.520278 0.697708 0.539800
C5    C     C_2   0.486521 0.131538 0.490456 0.217779
C6    C     C_2   0.602316 0.935842 0.435919 0.276277
C7    C     C_2   0.509121 0.865672 0.508622 -0.031566
C8    C     C_2   0.108144 0.541350 0.425435 -0.026526
C9    C     C_2   0.950048 0.562228 0.434332 0.392312
C10   C     C_R   0.496737 0.264825 0.499088 0.542605
C11   C     C_R   0.576289 0.497892 0.299857 0.567201
C12   C     C_R   0.457244 0.578154 0.971127 -0.022238
C13   C     C_R   0.798707 0.480269 0.018240 -0.085415
C14   C     C_R   0.619603 0.498707 0.185345 0.012809
C15   C     C_R   0.253230 0.598929 0.858982 -0.134571
C16   C     C_R   0.219150 0.633482 0.963599 0.092483
C17   C     C_R   0.316078 0.614597 0.021218 -0.083730
C18   C     C_3   0.847048 0.299797 0.182841 -0.113014
C19   C     C_3   0.257023 0.091242 0.599293 -0.114378
C20   C     C_3   0.736151 0.957292 0.262133 -0.123007
C21   C     C_3   0.010370 0.739864 0.333753 -0.071793
C22   C     C_3   0.672946 0.771404 0.723044 -0.100309
C23   C     C_R   0.501698 0.576629 0.860752 0.009829
C24   C     C_R   0.557763 0.546790 0.025521 0.003781
C25   C     C_R   0.701635 0.523840 0.968173 -0.038841
C26   C     C_R   0.749419 0.551902 0.862232 -0.100179
C27   C     C_R   0.652770 0.589576 0.810435 0.288635
C28   C     C_R   0.519227 0.533718 0.134353 -0.164825
C29   C     C_R   0.758374 0.466113 0.126445 0.298119
Cu1   Cu    Cu3+1 0.361370 0.499980 0.499980 0.933157
Cu2   Cu    Cu3+1 0.638630 0.500020 0.500020 1.069902
H1    H     H_    0.439076 0.903921 0.578935 0.064167
H2    H     H_    0.712446 0.117757 0.433744 0.092255
H3    H     H_    0.738025 0.267860 0.231518 0.096363
H4    H     H_    0.926469 0.269443 0.222174 0.144213
H5    H     H_    0.872435 0.255814 0.104653 0.100247
H6    H     H_    0.194759 0.174409 0.599907 0.156296
H7    H     H_    0.311892 0.096352 0.662280 0.087122
H8    H     H_    0.178127 0.012116 0.617940 0.134630
H9    H     H_    0.819024 0.027529 0.269596 0.094864
H10   H     H_    0.641544 0.001028 0.247814 0.124025
H11   H     H_    0.785298 0.901227 0.192604 0.177897
H12   H     H_    0.188597 0.565533 0.353038 0.141048
H13   H     H_    0.040162 0.782858 0.401026 0.102603
H14   H     H_    0.959460 0.810607 0.298930 0.197048
H15   H     H_    0.107396 0.713059 0.271793 0.105830
H16   H     H_    0.702862 0.817975 0.788841 0.112111
H17   H     H_    0.556243 0.780049 0.731343 0.101493
H18   H     H_    0.733642 0.819787 0.650064 0.143582
H19   H     H_    0.077284 0.488262 0.572373 0.199690
H20   H     H_    0.873898 0.436412 0.546723 0.165381
H21   H     H_    0.863255 0.550875 0.820601 0.123100
H22   H     H_    0.907693 0.460196 0.973706 0.136398
H23   H     H_    0.411361 0.550813 0.181149 0.123866
H24   H     H_    0.172288 0.603988 0.817598 0.142695
H25   H     H_    0.281325 0.636202 0.103159 0.124173
I1    I     I_    0.027010 0.723156 0.033760 -0.460558
N1    N     N_2   0.152660 0.501340 0.501130 -0.376711
N2    N     N_2   0.846520 0.501370 0.501160 -0.288905
O1    O     O_R   0.382960 0.678040 0.499980 -0.502727
O2    O     O_3   0.352913 0.072790 0.499054 -0.573615
O3    O     O_3   0.695693 0.879598 0.350542 -0.547640
O4    O     O_3   0.911541 0.638918 0.364650 -0.471272
O5    O     O_3   0.710567 0.647506 0.714822 -0.542140
O6    O     O_R   0.617100 0.678080 0.500020 -0.426440
O7    O     O_R   0.325800 0.499940 0.650950 -0.522744
O8    O     O_R   0.559930 0.499980 0.650990 -0.451653
O9    O     O_R   0.382900 0.321920 0.499980 -0.474654
O10   O     O_R   0.617040 0.321960 0.500020 -0.544433
O11   O     O_R   0.440070 0.500020 0.349010 -0.527697
O12   O     O_R   0.674200 0.500060 0.349050 -0.392868
O13   O     O_3   0.858956 0.428662 0.174070 -0.512173

loop_
_geom_bond_atom_site_label_1
_geom_bond_atom_site_label_2
_ccdc_geom_bond_type
C12   C17   A    
C8    C9    S    
C4    O8    A    
C22   H17   S    
C6    C7    D    
C19   H7    S    
C26   H21   S    
C21   H13   S    
C18   H4    S    
C12   C24   A    
C2    C4    S    
C17   H25   S    
C8    H12   S    
C16   I1    S    
C29   O13   S    
C8    N1    D    
C10   O9    A    
C6    O3    S    
Cu2   O12   S    
C20   H10   S    
C11   O11   A    
C5    O2    S    
C5    C10   S    
C9    O4    S    
C4    O7    A    
C2    C15   A    
C18   H3    S    
C12   C23   A    
C13   C25   A    
C26   C27   A    
Cu1   O7    S    
C19   H8    S    
C19   O2    S    
C22   H18   S    
Cu1   N1    S    
C13   C29   A    
Cu1   O11   S    
C22   H16   S    
C13   H22   S    
C23   C27   A    
Cu2   O8    S    
C20   O3    S    
Cu1   Cu2   S    
C20   H9    S    
C11   C14   S    
C11   O12   A    
C21   O4    S    
H20   N2    S    
C27   O5    S    
C3    H2    S    
C14   C29   A    
C22   O5    S    
C15   C16   A    
H19   N1    S    
C10   O10   A    
C3    C5    D    
C20   H11   S    
Cu2   O10   S    
C24   C25   A    
C21   H15   S    
C1    O1    A    
Cu2   N2    S    
C2    C23   A    
Cu2   O6    S    
C28   H23   S    
C16   C17   A    
C7    H1    S    
C19   H6    S    
C14   C28   A    
C25   C26   A    
C1    C7    S    
C18   H5    S    
C1    O6    A    
C3    C6    S    
Cu1   O9    S    
C24   C28   A    
Cu1   O1    S    
C21   H14   S    
C9    N2    D    
C18   O13   S    
C15   H24   S    
