data_mof_unit_34770.cif
_audit_creation_date              2012-12-10T18:10:17-0500
_audit_creation_method            fapswitch 2.2
_symmetry_space_group_name_H-M    P1
_symmetry_Int_Tables_number       1
_space_group_crystal_system       triclinic
_cell_length_a                    10.75571
_cell_length_b                    9.463388
_cell_length_c                    15.845821
_cell_angle_alpha                 89.656848
_cell_angle_beta                  89.018946
_cell_angle_gamma                 89.718232
_cell_volume                      1612.59007852

loop_
_atom_site_label
_atom_site_type_symbol
_atom_type_description
_atom_site_fract_x
_atom_site_fract_y
_atom_site_fract_z
_atom_type_partial_charge
C1    C     C_R   0.259780 0.500148 0.501914 0.825271
C2    C     C_3   0.624828 0.437569 0.950586 -0.349154
C3    C     C_3   0.624893 0.441004 0.048182 -0.609843
C4    C     C_1   0.502156 0.499528 0.824880 0.017456
C5    C     C_1   0.501463 0.501487 0.175096 0.010930
C6    C     C_1   0.501574 0.501193 0.250700 -0.192500
C7    C     C_3   0.069740 0.637174 0.542416 -0.464747
C8    C     C_3   0.071220 0.373828 0.555835 -0.432116
C9    C     C_3   0.927795 0.646444 0.533164 0.350150
C10   C     C_3   0.927494 0.380020 0.562687 0.311152
C11   C     C_3   0.074483 0.488174 0.411059 -0.524697
C12   C     C_3   0.121614 0.499747 0.502529 -0.037347
C13   C     C_3   0.878290 0.499436 0.502400 -0.103992
C14   C     C_R   0.500723 0.500368 0.340359 0.845668
C15   C     C_3   0.927982 0.470320 0.409686 0.800606
C16   C     C_3   0.621511 0.082735 0.527897 -0.265792
C17   C     C_3   0.619353 0.916031 0.531869 -0.222351
C18   C     C_3   0.398773 0.082357 0.557460 0.484294
C19   C     C_3   0.397070 0.913839 0.556731 0.465968
C20   C     C_3   0.479509 0.084481 0.416020 -0.330599
C21   C     C_3   0.481477 0.917417 0.415895 -0.337267
C22   C     C_R   0.739742 0.499764 0.502645 0.923217
C23   C     C_R   0.500342 0.499705 0.659700 0.851263
C24   C     C_3   0.485508 0.655712 0.048537 0.328769
C25   C     C_3   0.392940 0.405936 0.050507 0.325013
C26   C     C_3   0.390510 0.411076 0.952038 0.235965
C27   C     C_3   0.486657 0.655451 0.949901 0.218568
C28   C     C_1   0.501514 0.499257 0.749304 -0.171726
C29   C     C_3   0.499834 0.501672 0.082776 0.066809
C30   C     C_3   0.501509 0.500773 0.917214 0.062815
Cu1   Cu    Cu3+1 0.499860 0.642410 0.500040 0.963212
Cu2   Cu    Cu3+1 0.499860 0.357590 0.500040 0.953703
H1    H     H_    0.906321 0.726550 0.483478 0.103784
H2    H     H_    0.890396 0.276450 0.541058 0.105059
H3    H     H_    0.651162 0.128983 0.587992 0.142526
H4    H     H_    0.637555 0.877922 0.596831 0.188055
H5    H     H_    0.695675 0.114989 0.481933 0.179645
H6    H     H_    0.697452 0.876355 0.491700 0.167205
H7    H     H_    0.389410 0.123388 0.391089 0.142607
H8    H     H_    0.393136 0.877687 0.389507 0.154308
H9    H     H_    0.309701 0.111333 0.526816 0.021454
H10   H     H_    0.307978 0.880786 0.527401 0.014405
H11   H     H_    0.415783 0.294813 0.069854 0.103568
H12   H     H_    0.568612 0.715019 0.070723 0.112613
H13   H     H_    0.112119 0.732995 0.513089 0.144760
H14   H     H_    0.100076 0.272093 0.526485 0.143225
H15   H     H_    0.092083 0.635374 0.610390 0.202902
H16   H     H_    0.112682 0.375743 0.619723 0.199122
N1    N     N_3   0.500250 0.143650 0.501830 -0.157885
N2    N     N_3   0.500250 0.856350 0.501830 -0.160617
O1    O     O_R   0.317570 0.620260 0.500050 -0.599354
O2    O     O_R   0.317570 0.379740 0.500050 -0.583818
O3    O     O_R   0.499890 0.620310 0.379470 -0.584865
O4    O     O_R   0.499890 0.379690 0.379470 -0.591916
O5    O     O_R   0.682190 0.620260 0.500020 -0.574245
O6    O     O_R   0.682190 0.379740 0.500020 -0.586880
O7    O     O_R   0.499870 0.620210 0.620600 -0.519069
O8    O     O_R   0.499870 0.379790 0.620600 -0.545656
H17   H     H_    0.394406 0.696192 0.928435 0.093651
H18   H     H_    0.303611 0.466317 0.931606 0.107428
H19   H     H_    0.100005 0.587938 0.377564 0.177911
H20   H     H_    0.128475 0.405994 0.377050 0.151397
O9    O     O_3   0.875448 0.577407 0.357173 -0.628275
C31   C     C_3   0.889827 0.548208 0.270295 -0.288718
H21   H     H_    0.830816 0.457902 0.251727 0.198261
H22   H     H_    0.988649 0.530064 0.252001 0.150900
H23   H     H_    0.857407 0.641707 0.234159 0.171426
O10   O     O_3   0.879342 0.334421 0.386857 -0.595227
C32   C     C_3   0.961810 0.239971 0.345804 -0.422676
H24   H     H_    0.031212 0.197445 0.390453 0.160291
H25   H     H_    0.006489 0.287680 0.288909 0.159416
H26   H     H_    0.907278 0.148491 0.323862 0.194792
O11   O     O_3   0.384703 0.150030 0.637650 -0.570267
C33   C     C_3   0.465972 0.107644 0.702925 -0.178628
H27   H     H_    0.539679 0.031928 0.685258 0.134463
H28   H     H_    0.410046 0.060616 0.755089 0.169269
H29   H     H_    0.511832 0.200861 0.730027 0.177917
O12   O     O_3   0.404845 0.856885 0.639322 -0.567748
C34   C     C_3   0.286573 0.835274 0.677021 -0.353062
H30   H     H_    0.256296 0.726772 0.663369 0.178103
H31   H     H_    0.215866 0.914839 0.657460 0.136846
H32   H     H_    0.294969 0.842404 0.746497 0.162773
H33   H     H_    0.552492 0.123079 0.371041 0.195550
H34   H     H_    0.557179 0.880826 0.372428 0.191557
O13   O     O_3   0.372540 0.715814 0.079799 -0.539063
C35   C     C_3   0.387766 0.860443 0.097903 -0.341741
H35   H     H_    0.424282 0.919877 0.042147 0.168034
H36   H     H_    0.449850 0.874088 0.152651 0.155800
H37   H     H_    0.295711 0.906134 0.115206 0.187728
O14   O     O_3   0.275918 0.452674 0.083287 -0.536394
C36   C     C_3   0.223143 0.351600 0.138921 -0.345859
H38   H     H_    0.131943 0.391990 0.161964 0.181182
H39   H     H_    0.282742 0.333987 0.194673 0.156548
H40   H     H_    0.206505 0.249991 0.106236 0.141692
O15   O     O_3   0.399405 0.271492 0.919584 -0.595806
C37   C     C_3   0.280703 0.218938 0.900500 -0.372362
H41   H     H_    0.243877 0.273029 0.843600 0.184012
H42   H     H_    0.214266 0.230229 0.954578 0.174978
H43   H     H_    0.289211 0.104615 0.886446 0.175306
O16   O     O_3   0.588149 0.739054 0.920030 -0.577317
C38   C     C_3   0.548382 0.844630 0.863184 -0.334960
H44   H     H_    0.481863 0.918897 0.894235 0.159385
H45   H     H_    0.506248 0.797276 0.806515 0.195789
H46   H     H_    0.630432 0.906486 0.841646 0.187860
H47   H     H_    0.703783 0.506701 0.069644 0.201131
H48   H     H_    0.640233 0.332195 0.073136 0.197276
H49   H     H_    0.705752 0.498063 0.925122 0.221030
H50   H     H_    0.636665 0.326697 0.928724 0.201687
O17   O     O_3   0.869156 0.685210 0.610927 -0.505475
C39   C     C_3   0.894253 0.827534 0.631444 -0.340282
H51   H     H_    0.828856 0.860668 0.682557 0.182101
H52   H     H_    0.881349 0.901188 0.577333 0.114788
H53   H     H_    0.989639 0.838407 0.656062 0.156813
O18   O     O_3   0.889105 0.408633 0.647158 -0.513520
C40   C     C_3   0.880247 0.282671 0.695021 -0.342937
H54   H     H_    0.966885 0.218217 0.690619 0.144077
H55   H     H_    0.799458 0.219465 0.675119 0.138132
H56   H     H_    0.864856 0.310687 0.762279 0.193390

loop_
_geom_bond_atom_site_label_1
_geom_bond_atom_site_label_2
_ccdc_geom_bond_type
C23   O8    A    
C38   H44   S    
C32   H26   S    
O11   C33   S    
O15   C37   S    
C24   C27   S    
Cu2   O8    S    
C11   H20   S    
C25   H11   S    
O18   C40   S    
O13   C35   S    
C3    H47   S    
C25   O14   S    
C33   H28   S    
C7    H13   S    
C16   H3    S    
C5    C6    T    
C35   H36   S    
C36   H39   S    
C40   H54   S    
C37   H43   S    
C2    H49   S    
C25   C29   S    
C32   H25   S    
C18   C19   S    
C3    C29   S    
C9    C13   S    
C24   C29   S    
Cu2   O2    S    
C39   H51   S    
C11   C15   S    
O10   C32   S    
C40   H55   S    
C33   H29   S    
C37   H42   S    
C17   H4    S    
C24   O13   S    
C10   O18   S    
C19   H10   S    
C16   H5    S    
C38   H45   S    
C27   C30   S    
C9    H1    S    
C1    C12   S    
Cu2   O4    S    
C21   N2    S    
C4    C28   T    
C5    C29   S    
C3    H48   S    
C9    O17   S    
C7    C12   S    
C27   O16   S    
C33   H27   S    
C31   H23   S    
C16   N1    S    
C18   H9    S    
C36   H38   S    
C34   H31   S    
C20   H7    S    
O12   C34   S    
C16   C17   S    
C22   O6    A    
C25   C26   S    
C35   H37   S    
C34   H30   S    
C31   H22   S    
C19   O12   S    
C8    H16   S    
C20   N1    S    
C6    C14   S    
Cu1   Cu2   S    
C21   H34   S    
C8    C12   S    
C40   H56   S    
C37   H41   S    
C10   H2    S    
C23   C28   S    
Cu1   O3    S    
C1    O1    A    
C39   H53   S    
C14   O4    A    
C26   C30   S    
C38   H46   S    
C13   C15   S    
C24   H12   S    
Cu1   N2    S    
C26   O15   S    
C23   O7    A    
C35   H35   S    
Cu1   O1    S    
C11   H19   S    
C10   C13   S    
C17   N2    S    
C34   H32   S    
C11   C12   S    
C22   O5    A    
C18   O11   S    
C2    C30   S    
C31   H21   S    
Cu1   O7    S    
C2    C3    S    
C27   H17   S    
O17   C39   S    
C36   H40   S    
C19   N2    S    
O14   C36   S    
C21   H8    S    
C15   O10   S    
C2    H50   S    
O16   C38   S    
C13   C22   S    
C17   H6    S    
C32   H24   S    
C1    O2    A    
C39   H52   S    
Cu2   N1    S    
O9    C31   S    
C7    C9    S    
C14   O3    A    
C20   C21   S    
C8    C10   S    
C20   H33   S    
C15   O9    S    
C8    H14   S    
Cu1   O5    S    
C26   H18   S    
Cu2   O6    S    
C4    C30   S    
C18   N1    S    
C7    H15   S    
