data_mof_unit_61969.cif
_audit_creation_date              2012-10-26T17:26:24-0400
_audit_creation_method            fapswitch 2.2
_symmetry_space_group_name_H-M    P1
_symmetry_Int_Tables_number       1
_space_group_crystal_system       triclinic
_cell_length_a                    30.420691
_cell_length_b                    30.420709
_cell_length_c                    18.359877
_cell_angle_alpha                 90.047622
_cell_angle_beta                  90.047595
_cell_angle_gamma                 90.000708
_cell_volume                      16990.5670698

loop_
_atom_site_label
_atom_site_type_symbol
_atom_type_description
_atom_site_fract_x
_atom_site_fract_y
_atom_site_fract_z
_atom_type_partial_charge
C1    C     C_R   0.225831 0.000013 0.500100 0.006066
C2    C     C_R   0.972209 0.202850 0.452142 -0.104543
C3    C     C_R   0.960060 0.656611 0.501765 -0.127753
C4    C     C_R   0.656759 0.960293 0.505314 -0.127551
C5    C     C_R   0.960058 0.343387 0.498169 -0.127695
C6    C     C_R   0.344067 0.026288 0.450558 -0.125088
C7    C     C_R   0.039767 0.656726 0.499166 -0.127887
C8    C     C_R   0.843274 0.460232 0.000830 -0.127887
C9    C     C_R   0.539708 0.843241 0.994700 -0.127551
C10   C     C_R   0.156613 0.539942 0.001821 -0.127695
C11   C     C_R   0.473713 0.155933 0.049445 -0.125088
C12   C     C_R   0.156726 0.460234 0.999111 -0.127826
C13   C     C_R   0.797359 0.968890 0.458831 -0.103978
C14   C     C_R   0.460281 0.843256 0.005415 -0.127579
C15   C     C_R   0.843388 0.539940 0.998238 -0.127753
C16   C     C_R   0.526282 0.155869 0.950487 -0.124851
C17   C     C_R   0.367114 1.000000 0.500020 0.026515
C18   C     C_R   0.999947 0.366610 0.499672 0.017752
C19   C     C_R   0.633451 0.000003 0.499964 0.017532
C20   C     C_R   0.999949 0.633389 0.500328 0.017760
C21   C     C_R   0.866610 0.500051 0.999672 0.017760
C22   C     C_R   0.499997 0.866549 0.000036 0.017533
C23   C     C_R   0.133390 0.500053 0.000328 0.017751
C24   C     C_R   0.026934 0.796901 0.452345 -0.104735
C25   C     C_R   0.500000 0.132886 0.999980 0.026516
C26   C     C_R   0.274695 0.000010 0.500076 0.031845
C27   C     C_R   0.999799 0.274369 0.499313 0.030479
C28   C     C_R   0.725801 0.000013 0.499891 0.030928
C29   C     C_R   0.999801 0.725630 0.500687 0.030494
C30   C     C_R   0.774370 0.500198 0.999313 0.030494
C31   C     C_R   0.499987 0.774199 0.000110 0.030931
C32   C     C_R   0.225631 0.500201 0.000687 0.030478
C33   C     C_R   0.499990 0.225305 0.999924 0.031846
C34   C     C_3   0.134145 0.079978 0.454211 -0.404600
C35   C     C_R   0.797391 0.031155 0.540939 -0.104065
C36   C     C_3   0.940480 0.133770 0.400550 -0.384056
C37   C     C_3   0.866654 0.933590 0.414348 -0.386671
C38   C     C_3   0.057185 0.865591 0.397524 -0.385922
C39   C     C_3   0.866718 0.066459 0.585467 -0.386621
C40   C     C_3   0.057213 0.134408 0.602588 -0.385835
C41   C     C_3   0.134187 0.920047 0.545979 -0.404658
C42   C     C_3   0.940508 0.866226 0.599333 -0.384147
C43   C     C_3   0.633774 0.559496 0.900674 -0.384147
C44   C     C_3   0.433546 0.633283 0.914521 -0.386619
C45   C     C_3   0.365592 0.442782 0.897420 -0.385837
C46   C     C_R   0.026946 0.203099 0.547708 -0.104686
C47   C     C_3   0.579951 0.365812 0.954012 -0.404658
C48   C     C_3   0.366230 0.559525 0.099441 -0.384057
C49   C     C_3   0.566405 0.633346 0.085664 -0.386670
C50   C     C_3   0.634408 0.442812 0.102471 -0.385922
C51   C     C_3   0.420024 0.365855 0.045800 -0.404601
C52   C     C_R   0.202397 0.962217 0.520279 -0.104575
C53   C     C_R   0.972225 0.797148 0.547805 -0.104595
C54   C     C_R   0.702852 0.527777 0.952198 -0.104595
C55   C     C_R   0.468848 0.702609 0.959055 -0.104065
C56   C     C_R   0.296901 0.473051 0.952296 -0.104686
C57   C     C_R   0.999720 0.226007 0.499581 0.003386
C58   C     C_R   0.537782 0.297602 0.979716 -0.104575
C59   C     C_R   0.297150 0.527794 0.047854 -0.104543
C60   C     C_R   0.531107 0.702641 0.041176 -0.103978
C61   C     C_R   0.703099 0.473064 0.047652 -0.104735
C62   C     C_R   0.462189 0.297622 0.020074 -0.104496
C63   C     C_R   0.156416 0.038082 0.478376 -0.019538
C64   C     C_R   0.971752 0.156888 0.451746 -0.022636
C65   C     C_R   0.843335 0.968466 0.458282 -0.023395
C66   C     C_R   0.027129 0.842848 0.450976 -0.023934
C67   C     C_R   0.843366 0.031579 0.541520 -0.023356
C68   C     C_R   0.774261 0.000021 0.499882 0.003810
C69   C     C_R   0.027143 0.157152 0.549078 -0.023959
C70   C     C_R   0.156436 0.961944 0.521819 -0.019528
C71   C     C_R   0.971766 0.843110 0.548198 -0.022611
C72   C     C_R   0.656889 0.528236 0.951804 -0.022611
C73   C     C_R   0.468423 0.656634 0.958474 -0.023356
C74   C     C_R   0.342848 0.472855 0.950926 -0.023960
C75   C     C_R   0.538055 0.343564 0.978177 -0.019528
C76   C     C_R   0.343112 0.528251 0.048249 -0.022636
C77   C     C_R   0.531531 0.656665 0.041724 -0.023395
C78   C     C_R   0.657152 0.472869 0.049022 -0.023935
C79   C     C_R   0.999722 0.773992 0.500420 0.003379
C80   C     C_R   0.461919 0.343584 0.021628 -0.019537
C81   C     C_R   0.133076 0.000011 0.500086 0.061534
C82   C     C_R   0.999615 0.133550 0.500271 0.043453
C83   C     C_R   0.866678 0.000019 0.499917 0.047313
C84   C     C_R   0.999615 0.866449 0.499728 0.043445
C85   C     C_R   0.633551 0.500385 0.000271 0.043447
C86   C     C_R   0.499981 0.633322 0.000083 0.047310
C87   C     C_R   0.366450 0.500385 0.999729 0.043456
C88   C     C_R   0.499989 0.366924 0.999914 0.061533
C89   C     C_R   0.415087 1.000000 0.500000 0.544594
C90   C     C_R   0.726007 0.500278 0.999580 0.003379
C91   C     C_R   0.999994 0.414913 0.499915 0.548813
C92   C     C_R   0.585107 0.000000 0.499995 0.548450
C93   C     C_R   0.999994 0.585087 0.500085 0.548789
C94   C     C_R   0.914913 0.500005 0.999915 0.548789
C95   C     C_R   0.499999 0.914893 0.000005 0.548451
C96   C     C_R   0.085087 0.500006 0.000085 0.548813
C97   C     C_R   0.500000 0.084913 1.000000 0.544595
C98   C     C_R   0.500004 0.999986 0.360224 0.558909
C99   C     C_R   0.999985 0.500011 0.360224 0.561265
C100  C     C_R   0.499984 0.000015 0.639776 0.558863
C101  C     C_R   0.499979 0.725739 0.000118 0.003811
C102  C     C_R   0.000014 0.499989 0.639776 0.561264
C103  C     C_R   0.000011 0.499985 0.860224 0.561264
C104  C     C_R   0.499985 0.000016 0.860224 0.558863
C105  C     C_R   0.999989 0.500015 0.139776 0.561264
C106  C     C_R   0.500014 0.999996 0.139776 0.558909
C107  C     C_R   0.999850 0.914892 0.499929 0.542727
C108  C     C_R   0.084939 0.000001 0.500027 0.542595
C109  C     C_R   0.999850 0.085107 0.500071 0.542708
C110  C     C_R   0.914978 0.000004 0.499974 0.548968
C111  C     C_R   0.499999 0.415061 0.999973 0.542594
C112  C     C_R   0.273993 0.500280 0.000419 0.003385
C113  C     C_R   0.585108 0.500150 0.000071 0.542728
C114  C     C_R   0.499996 0.585022 0.000026 0.548967
C115  C     C_R   0.414893 0.500150 0.999929 0.542710
C116  C     C_1   0.500025 0.999965 0.282661 -0.050975
C117  C     C_1   0.999961 0.500032 0.282661 -0.049844
C118  C     C_1   0.499964 0.000041 0.717339 -0.051034
C119  C     C_1   0.000039 0.499968 0.717339 -0.049844
C120  C     C_1   0.000032 0.499961 0.782661 -0.049844
C121  C     C_1   0.499959 0.000036 0.782661 -0.051034
C122  C     C_1   0.999968 0.500039 0.217339 -0.049844
C123  C     C_R   0.499987 0.274169 0.999901 0.006066
C124  C     C_1   0.500035 0.999975 0.217339 -0.050975
C125  C     C_R   0.298316 0.974296 0.550477 -0.116162
C126  C     C_R   0.039676 0.297505 0.500780 -0.120793
C127  C     C_R   0.702530 0.039707 0.494441 -0.120279
C128  C     C_R   0.960003 0.702374 0.501996 -0.120847
C129  C     C_R   0.702546 0.960313 0.505371 -0.120371
C130  C     C_R   0.960000 0.297624 0.497937 -0.120786
C131  C     C_R   0.298250 0.025718 0.449645 -0.116289
C132  C     C_R   0.039677 0.702495 0.499287 -0.120856
C133  C     C_R   0.797505 0.460322 0.000709 -0.120856
C134  C     C_R   0.202378 0.037812 0.479931 -0.104496
C135  C     C_R   0.539687 0.797453 0.994643 -0.120370
C136  C     C_R   0.202376 0.540000 0.002053 -0.120786
C137  C     C_R   0.474284 0.201750 0.050358 -0.116288
C138  C     C_R   0.202495 0.460324 0.999231 -0.120793
C139  C     C_R   0.460292 0.797470 0.005546 -0.120279
C140  C     C_R   0.797625 0.539997 0.998007 -0.120847
C141  C     C_R   0.525702 0.201684 0.949520 -0.116161
C142  C     C_R   0.344131 0.973716 0.549510 -0.124851
C143  C     C_R   0.039766 0.343274 0.500899 -0.127826
C144  C     C_R   0.656744 0.039718 0.494571 -0.127580
Cu1   Cu    Cu3+1 0.500000 0.044060 0.500000 0.936865
Cu2   Cu    Cu3+1 0.000000 0.000000 0.572510 0.893888
Cu3   Cu    Cu3+1 0.500000 0.500000 0.927490 0.893887
Cu4   Cu    Cu3+1 0.500000 0.500000 0.072510 0.893892
Cu5   Cu    Cu3+1 0.955940 0.500000 0.500000 0.934681
Cu6   Cu    Cu3+1 0.500000 0.955940 0.500000 0.938504
Cu7   Cu    Cu3+1 0.044060 0.500000 0.500000 0.935104
Cu8   Cu    Cu3+1 0.000000 0.544060 0.000000 0.934680
Cu9   Cu    Cu3+1 0.455940 0.000000 0.000000 0.936866
Cu10  Cu    Cu3+1 1.000000 0.455940 0.000000 0.935103
Cu11  Cu    Cu3+1 0.544060 0.000000 0.000000 0.938504
Cu12  Cu    Cu3+1 0.000000 0.000000 0.427490 0.893893
H1    H     H_    0.281582 0.954984 0.591410 0.103009
H2    H     H_    0.570675 0.780208 0.989437 0.105074
H3    H     H_    0.219621 0.571151 0.002350 0.105566
H4    H     H_    0.454970 0.218537 0.091274 0.102743
H5    H     H_    0.219845 0.429231 0.998938 0.105696
H6    H     H_    0.429301 0.780239 0.010774 0.105255
H7    H     H_    0.780381 0.571148 0.997759 0.105468
H8    H     H_    0.545013 0.218418 0.908585 0.103009
H9    H     H_    0.361676 0.953569 0.588536 0.116938
H10   H     H_    0.071014 0.360316 0.501898 0.130495
H11   H     H_    0.639644 0.070820 0.490060 0.130286
H12   H     H_    0.070769 0.280155 0.501080 0.105695
H13   H     H_    0.928858 0.639483 0.502558 0.130479
H14   H     H_    0.639671 0.929188 0.509851 0.130280
H15   H     H_    0.928856 0.360515 0.497322 0.130543
H16   H     H_    0.361561 0.046434 0.411514 0.116206
H17   H     H_    0.071015 0.639684 0.498222 0.130427
H18   H     H_    0.860316 0.428985 0.001772 0.130427
H19   H     H_    0.570813 0.860329 0.990174 0.130281
H20   H     H_    0.139485 0.571144 0.002659 0.130543
H21   H     H_    0.453569 0.138439 0.088491 0.116204
H22   H     H_    0.139684 0.428986 0.998121 0.130495
H23   H     H_    0.719761 0.070697 0.489201 0.105257
H24   H     H_    0.429179 0.860356 0.009915 0.130286
H25   H     H_    0.860517 0.571142 0.997448 0.130479
H26   H     H_    0.546428 0.138324 0.911459 0.116937
H27   H     H_    0.219743 0.067711 0.465957 0.108693
H28   H     H_    0.951354 0.220811 0.414648 0.109979
H29   H     H_    0.779387 0.945137 0.426394 0.109595
H30   H     H_    0.047609 0.778732 0.414855 0.110183
H31   H     H_    0.779446 0.054907 0.573368 0.109421
H32   H     H_    0.047633 0.221268 0.585237 0.110270
H33   H     H_    0.219776 0.932318 0.534257 0.108597
H34   H     H_    0.928852 0.719619 0.502247 0.105468
H35   H     H_    0.951381 0.779187 0.585259 0.109890
H36   H     H_    0.720813 0.548621 0.914746 0.109889
H37   H     H_    0.445098 0.720554 0.926622 0.109420
H38   H     H_    0.278732 0.452363 0.914771 0.110271
H39   H     H_    0.567680 0.280224 0.965735 0.108596
H40   H     H_    0.279189 0.548651 0.085344 0.109980
H41   H     H_    0.554858 0.720612 0.073617 0.109594
H42   H     H_    0.721267 0.452388 0.085140 0.110182
H43   H     H_    0.432291 0.280257 0.034051 0.108692
H44   H     H_    0.097815 0.078170 0.455277 0.151885
H45   H     H_    0.719792 0.929327 0.510588 0.105076
H46   H     H_    0.144371 0.107440 0.490332 0.120015
H47   H     H_    0.144270 0.087796 0.397594 0.133790
H48   H     H_    0.920085 0.109769 0.431010 0.135547
H49   H     H_    0.917781 0.157209 0.373382 0.112024
H50   H     H_    0.959201 0.116539 0.357263 0.160266
H51   H     H_    0.890130 0.915375 0.449438 0.131433
H52   H     H_    0.843262 0.909340 0.390959 0.113955
H53   H     H_    0.884655 0.948976 0.368440 0.159604
H54   H     H_    0.077655 0.890446 0.425820 0.138953
H55   H     H_    0.079808 0.842082 0.370346 0.111661
H56   H     H_    0.928849 0.280379 0.497632 0.105564
H57   H     H_    0.037412 0.881806 0.354425 0.159547
H58   H     H_    0.890183 0.084657 0.550401 0.131498
H59   H     H_    0.843344 0.090722 0.608803 0.113960
H60   H     H_    0.884733 0.051079 0.631414 0.159585
H61   H     H_    0.077678 0.109557 0.574330 0.138949
H62   H     H_    0.079841 0.157918 0.629815 0.111870
H63   H     H_    0.037453 0.118190 0.645643 0.159590
H64   H     H_    0.097857 0.921854 0.544903 0.151876
H65   H     H_    0.144382 0.892585 0.509862 0.119879
H66   H     H_    0.144363 0.912230 0.602599 0.133807
H67   H     H_    0.281463 0.045033 0.408731 0.102744
H68   H     H_    0.920106 0.890228 0.568833 0.135531
H69   H     H_    0.917814 0.842785 0.626449 0.111813
H70   H     H_    0.959239 0.883454 0.642661 0.160225
H71   H     H_    0.609773 0.579898 0.931176 0.135527
H72   H     H_    0.657214 0.582189 0.873557 0.111814
H73   H     H_    0.616544 0.540766 0.857344 0.160227
H74   H     H_    0.415346 0.609816 0.949584 0.131502
H75   H     H_    0.409284 0.656656 0.891182 0.113958
H76   H     H_    0.448929 0.615268 0.868576 0.159585
H77   H     H_    0.390443 0.422318 0.925680 0.138947
H78   H     H_    0.070770 0.719845 0.499041 0.105596
H79   H     H_    0.342082 0.420152 0.870195 0.111871
H80   H     H_    0.381810 0.462541 0.854362 0.159591
H81   H     H_    0.578145 0.402143 0.955088 0.151879
H82   H     H_    0.607414 0.355617 0.990124 0.119878
H83   H     H_    0.587765 0.355637 0.897390 0.133808
H84   H     H_    0.390231 0.579919 0.068977 0.135544
H85   H     H_    0.342791 0.582226 0.126606 0.112026
H86   H     H_    0.383461 0.540807 0.142730 0.160266
H87   H     H_    0.584621 0.609871 0.050577 0.131436
H88   H     H_    0.590653 0.656738 0.109057 0.113954
H89   H     H_    0.780155 0.429229 0.000953 0.105596
H90   H     H_    0.551016 0.615346 0.131569 0.159604
H91   H     H_    0.609554 0.422342 0.074172 0.138952
H92   H     H_    0.657917 0.420188 0.129646 0.111662
H93   H     H_    0.618194 0.462583 0.145571 0.159548
H94   H     H_    0.421831 0.402185 0.044732 0.151888
H95   H     H_    0.392560 0.355628 0.009684 0.120014
H96   H     H_    0.412209 0.355731 0.102418 0.133791
O1    O     O_R   0.435730 0.037210 0.500000 -0.509138
O2    O     O_R   0.462790 0.935730 0.000000 -0.514686
O3    O     O_R   0.064270 0.462790 0.000000 -0.514659
O4    O     O_R   0.537210 0.064270 0.000000 -0.509133
O5    O     O_R   0.064270 0.537210 0.000000 -0.514821
O6    O     O_R   0.537210 0.935730 0.000000 -0.514503
O7    O     O_R   0.935730 0.462790 0.000000 -0.514690
O8    O     O_R   0.462790 0.064270 0.000000 -0.509138
O9    O     O_R   0.500010 0.037210 0.394200 -0.505838
O10   O     O_R   0.962790 0.500010 0.394200 -0.502899
O11   O     O_R   0.499990 0.962790 0.394200 -0.501334
O12   O     O_R   0.962790 0.435730 0.500000 -0.514820
O13   O     O_R   0.037210 0.499990 0.394200 -0.502823
O14   O     O_R   0.499990 0.037210 0.605800 -0.502124
O15   O     O_R   0.037210 0.500010 0.605800 -0.502831
O16   O     O_R   0.500010 0.962790 0.605800 -0.505093
O17   O     O_R   0.962790 0.499990 0.605800 -0.502892
O18   O     O_R   0.000010 0.537210 0.894200 -0.502892
O19   O     O_R   0.462790 0.000010 0.894200 -0.502125
O20   O     O_R   0.999990 0.462790 0.894200 -0.502830
O21   O     O_R   0.537210 0.999990 0.894200 -0.505093
O22   O     O_R   0.999990 0.537210 0.105800 -0.502899
O23   O     O_R   0.564270 0.962790 0.500000 -0.514503
O24   O     O_R   0.537210 0.000010 0.105800 -0.501334
O25   O     O_R   0.000010 0.462790 0.105800 -0.502823
O26   O     O_R   0.462790 0.999990 0.105800 -0.505838
O27   O     O_R   0.999990 0.935750 0.438770 -0.514119
O28   O     O_R   0.064250 0.999990 0.438770 -0.508413
O29   O     O_R   0.000010 0.064250 0.438770 -0.514729
O30   O     O_R   0.935750 0.000010 0.438770 -0.513113
O31   O     O_R   0.000010 0.935750 0.561230 -0.514737
O32   O     O_R   0.935750 0.999990 0.561230 -0.513181
O33   O     O_R   0.999990 0.064250 0.561230 -0.514108
O34   O     O_R   0.037210 0.564270 0.500000 -0.514690
O35   O     O_R   0.064250 0.000010 0.561230 -0.508368
O36   O     O_R   0.499990 0.435750 0.938770 -0.508368
O37   O     O_R   0.564250 0.499990 0.938770 -0.514737
O38   O     O_R   0.500010 0.564250 0.938770 -0.513182
O39   O     O_R   0.435750 0.500010 0.938770 -0.514107
O40   O     O_R   0.500010 0.435750 0.061230 -0.508414
O41   O     O_R   0.435750 0.499990 0.061230 -0.514729
O42   O     O_R   0.499990 0.564250 0.061230 -0.513114
O43   O     O_R   0.564250 0.500010 0.061230 -0.514119
O44   O     O_R   0.564270 0.037210 0.500000 -0.514685
O45   O     O_R   0.037210 0.435730 0.500000 -0.514659
O46   O     O_R   0.435730 0.962790 0.500000 -0.509133
O47   O     O_R   0.962790 0.564270 0.500000 -0.514852
O48   O     O_R   0.935730 0.537210 0.000000 -0.514852

loop_
_geom_bond_atom_site_label_1
_geom_bond_atom_site_label_2
_ccdc_geom_bond_type
Cu3   O39   S    
C140  H7    S    
C12   C23   A    
Cu6   O46   S    
C105  O22   A    
C31   C101  S    
C93   O34   A    
C16   H26   S    
C29   C132  A    
C113  O37   A    
C58   H39   S    
C51   C80   S    
C136  H3    S    
C33   C137  A    
C96   O5    A    
Cu1   O14   S    
C106  O26   A    
C32   C112  S    
C87   C115  S    
C49   H90   S    
Cu6   O11   S    
C81   C108  S    
Cu9   O19   S    
Cu10  O20   S    
Cu10  O3    S    
C13   H29   S    
C103  O18   A    
C17   C89   S    
Cu12  O27   S    
C27   C57   S    
Cu11  O6    S    
C3    H13   S    
C5    C18   A    
Cu9   O26   S    
C143  H10   S    
C47   H82   S    
C109  O29   A    
C36   H50   S    
C7    C132  A    
C97   O4    A    
C5    C130  A    
C37   H52   S    
C125  C142  A    
C18   C91   S    
C53   C71   A    
C41   H64   S    
Cu3   O37   S    
C16   C25   A    
C137  H4    S    
C139  H6    S    
Cu11  O24   S    
C39   H59   S    
C104  O19   A    
C80   C88   A    
Cu12  O29   S    
C100  O14   A    
C125  H1    S    
C52   H33   S    
C34   H44   S    
C106  C124  S    
C93   O47   A    
C94   O48   A    
C36   C64   S    
C14   H24   S    
C102  C119  S    
C12   H22   S    
C67   C83   A    
C102  O17   A    
C48   C76   S    
Cu3   Cu4   S    
Cu7   O45   S    
C45   H80   S    
C72   C85   A    
C2    C57   A    
C6    H16   S    
Cu4   O41   S    
Cu9   O2    S    
C54   H36   S    
C62   C80   A    
C18   C143  A    
C28   C68   S    
C62   H43   S    
C54   C90   A    
Cu5   Cu7   S    
C27   C126  A    
C8    H18   S    
C110  O32   A    
C11   C25   A    
C84   C107  S    
C19   C92   S    
C88   C111  S    
Cu8   O5    S    
C37   C65   S    
C111  O36   A    
C11   H21   S    
C74   C87   A    
C34   H47   S    
C128  H34   S    
C41   H66   S    
C28   C127  A    
C36   H49   S    
C129  H45   S    
C42   H68   S    
C49   H87   S    
C42   H70   S    
C114  O38   A    
C144  H11   S    
C82   C109  S    
C48   H86   S    
C3    C128  A    
C100  O16   A    
C33   C141  A    
C45   C74   S    
C117  C122  T    
C32   C138  A    
C99   C117  S    
Cu11  O4    S    
C24   C79   A    
C35   C67   A    
C64   C82   A    
C83   C110  S    
C38   H54   S    
C51   H96   S    
C76   C87   A    
C56   H38   S    
C9    C135  A    
C78   C85   A    
C25   C97   S    
C102  O15   A    
Cu1   O9    S    
C1    C26   S    
C12   C138  A    
Cu6   O16   S    
Cu2   O32   S    
C43   H72   S    
C6    C17   A    
Cu10  O25   S    
C110  O30   A    
C127  H23   S    
C14   C22   A    
C85   C113  S    
C16   C141  A    
C47   C75   S    
Cu2   O33   S    
Cu12  O30   S    
C34   H46   S    
C49   C77   S    
C105  C122  S    
C9    H19   S    
Cu10  O7    S    
C55   C73   A    
C126  C143  A    
C141  H8    S    
C27   C130  A    
C131  H67   S    
C59   C76   A    
C26   C131  A    
C1    C134  A    
C97   O8    A    
C133  H89   S    
C13   C68   A    
C113  O43   A    
C95   O6    A    
C19   C144  A    
C40   H61   S    
C115  O41   A    
C103  C120  S    
C30   C90   S    
C61   C90   A    
C58   C123  A    
C44   H75   S    
C45   H77   S    
Cu12  O28   S    
C126  H12   S    
C50   H92   S    
Cu4   O40   S    
C24   H30   S    
Cu4   O43   S    
C51   H94   S    
C47   H81   S    
Cu9   Cu11  S    
C24   C66   A    
C37   H51   S    
Cu1   O1    S    
C50   C78   S    
C48   H84   S    
C89   O46   A    
C56   C74   A    
C63   C134  A    
C106  O24   A    
Cu6   O23   S    
C31   C135  A    
C32   C136  A    
Cu5   O47   S    
C111  O40   A    
C26   C125  A    
C29   C79   S    
C59   C112  A    
C3    C20   A    
C2    H28   S    
C92   O23   A    
C53   H35   S    
C95   O2    A    
C4    H14   S    
C60   H41   S    
Cu7   O15   S    
C114  O42   A    
C40   H63   S    
C115  O39   A    
C100  C118  S    
C38   H57   S    
C50   H91   S    
Cu5   O10   S    
C15   C140  A    
C116  C124  T    
C107  O31   A    
C45   H79   S    
C6    C131  A    
Cu1   O44   S    
C61   H42   S    
C119  C120  T    
C43   H73   S    
C4    C129  A    
C59   H40   S    
Cu4   O42   S    
C92   O44   A    
C11   C137  A    
Cu5   O17   S    
C15   H25   S    
C42   C71   S    
C47   H83   S    
C69   C82   A    
C138  H5    S    
C127  C144  A    
C44   C73   S    
Cu8   O48   S    
C1    C52   A    
C35   H31   S    
C7    C20   A    
C17   C142  A    
Cu9   O8    S    
C104  O21   A    
C41   H65   S    
C91   O12   A    
C41   C70   S    
Cu3   O38   S    
C20   C93   S    
C43   C72   S    
C105  O25   A    
C22   C95   S    
C130  H56   S    
C134  H27   S    
Cu11  O21   S    
C107  O27   A    
C13   C65   A    
C39   H60   S    
C63   C81   A    
C53   C79   A    
C10   C136  A    
C9    C22   A    
C65   C83   A    
C21   C94   S    
C91   O45   A    
C23   C96   S    
C28   C129  A    
C70   C81   A    
C44   H74   S    
C46   C69   A    
C4    C19   A    
C98   O11   A    
Cu7   O13   S    
C38   C66   S    
C99   O10   A    
Cu8   O18   S    
Cu2   O35   S    
C38   H55   S    
C51   H95   S    
Cu5   O12   S    
C109  O33   A    
C135  H2    S    
C89   O1    A    
C62   C123  A    
C43   H71   S    
C58   C75   A    
C10   H20   S    
C60   C77   A    
C30   C140  A    
C40   C69   S    
C2    C64   A    
C104  C121  S    
C118  C121  T    
C98   C116  S    
C94   O7    A    
C61   C78   A    
C30   C133  A    
C8    C21   A    
C5    H15   S    
Cu2   Cu12  S    
C37   H53   S    
C50   H93   S    
Cu3   O36   S    
C55   H37   S    
Cu8   Cu10  S    
C77   C86   A    
C46   C57   A    
C31   C139  A    
C60   C101  A    
Cu7   O34   S    
C49   H88   S    
C71   C84   A    
C42   H69   S    
C99   O13   A    
C39   H58   S    
C40   H62   S    
C8    C133  A    
C39   C67   S    
Cu1   Cu6   S    
C96   O3    A    
C48   H85   S    
C10   C23   A    
C55   C101  A    
C86   C114  S    
C103  O20   A    
C44   H76   S    
C108  O35   A    
Cu8   O22   S    
C142  H9    S    
C98   O9    A    
C35   C68   A    
C7    H17   S    
C34   C63   S    
C73   C86   A    
C52   C70   A    
C66   C84   A    
C75   C88   A    
C15   C21   A    
C54   C72   A    
C14   C139  A    
C29   C128  A    
C33   C123  S    
C36   H48   S    
C46   H32   S    
C108  O28   A    
C132  H78   S    
C56   C112  A    
Cu2   O31   S    
