data_mof_unit_8556.cif
_audit_creation_date              2012-12-11T15:27:41-0500
_audit_creation_method            fapswitch 2.2
_symmetry_space_group_name_H-M    P1
_symmetry_Int_Tables_number       1
_space_group_crystal_system       triclinic
_cell_length_a                    23.173178
_cell_length_b                    7.299127
_cell_length_c                    15.120779
_cell_angle_alpha                 89.999726
_cell_angle_beta                  108.070389
_cell_angle_gamma                 89.999684
_cell_volume                      2431.4385011

loop_
_atom_site_label
_atom_site_type_symbol
_atom_type_description
_atom_site_fract_x
_atom_site_fract_y
_atom_site_fract_z
_atom_type_partial_charge
O1    O     O_R   0.711000 0.648610 0.341170 -0.530534
O2    O     O_R   0.289000 0.351390 0.658830 -0.530533
O3    O     O_R   0.789000 0.148610 0.158830 -0.530532
O4    O     O_R   0.211000 0.851390 0.841170 -0.530529
O5    O     O_R   0.829650 0.322030 0.336650 -0.535060
O6    O     O_R   0.170350 0.677970 0.663350 -0.535062
O7    O     O_R   0.670350 0.822030 0.163350 -0.535057
O8    O     O_R   0.329650 0.177970 0.836650 -0.535060
C1    C     C_R   0.854275 0.485807 0.356769 0.723093
C2    C     C_R   0.145725 0.514192 0.643231 0.723098
C3    C     C_R   0.645725 0.985809 0.143231 0.723098
C4    C     C_R   0.354275 0.014191 0.856769 0.723090
O9    O     O_R   0.713950 0.319280 0.352070 -0.536338
O10   O     O_R   0.286050 0.680720 0.647930 -0.536338
O11   O     O_R   0.786050 0.819280 0.147930 -0.536335
O12   O     O_R   0.213950 0.180720 0.852070 -0.536335
O13   O     O_R   0.672470 0.142870 0.174360 -0.536515
O14   O     O_R   0.327530 0.857130 0.825640 -0.536514
O15   O     O_R   0.827530 0.642870 0.325640 -0.536516
O16   O     O_R   0.172470 0.357130 0.674360 -0.536512
C5    C     C_R   0.701707 0.487630 0.375997 0.712166
C6    C     C_R   0.298293 0.512370 0.624003 0.712166
C7    C     C_R   0.798294 0.987630 0.124004 0.712168
C8    C     C_R   0.201708 0.012369 0.875998 0.712163
O17   O     O_3   0.736530 0.478650 0.191680 -0.377052
O18   O     O_3   0.263470 0.521350 0.808320 -0.377053
O19   O     O_3   0.763470 0.978650 0.308320 -0.377057
O20   O     O_3   0.236530 0.021350 0.691680 -0.377055
V1    V     V_3+5 0.752500 0.206170 0.260820 1.504717
V2    V     V_3+5 0.247500 0.793830 0.739180 1.504728
V3    V     V_3+5 0.747500 0.706170 0.239180 1.504724
V4    V     V_3+5 0.252500 0.293830 0.760820 1.504732
C9    C     C_R   0.827649 0.997392 0.051557 -0.137377
C10   C     C_R   0.172360 0.002603 0.948452 -0.137390
C11   C     C_R   0.672357 0.497394 0.448449 -0.137376
C12   C     C_R   0.327644 0.502607 0.551553 -0.137374
C13   C     C_R   0.822125 0.044725 0.890947 0.531502
C14   C     C_R   0.177899 0.955313 0.109072 0.531511
C15   C     C_R   0.677887 0.544759 0.609059 0.531487
C16   C     C_R   0.322115 0.455245 0.390943 0.531481
C17   C     C_R   0.794173 0.040391 0.960479 -0.173527
C18   C     C_R   0.205847 0.959678 0.039533 -0.173512
C19   C     C_R   0.705837 0.540393 0.539523 -0.173526
C20   C     C_R   0.294165 0.459606 0.460478 -0.173516
C21   C     C_R   0.890287 0.976981 0.075512 -0.096755
C22   C     C_R   0.109720 0.022932 0.924502 -0.096764
C23   C     C_R   0.609719 0.476994 0.424500 -0.096769
C24   C     C_R   0.390281 0.523012 0.575503 -0.096762
C25   C     C_R   0.920991 0.002118 0.009053 0.023093
C26   C     C_R   0.079022 0.997783 0.990969 0.023100
C27   C     C_R   0.579017 0.502165 0.490959 0.023095
C28   C     C_R   0.420985 0.497847 0.509044 0.023097
C29   C     C_R   0.885562 0.008847 0.913634 -0.118408
C30   C     C_R   0.114456 0.991097 0.086388 -0.118453
C31   C     C_R   0.614448 0.508921 0.586377 -0.118450
C32   C     C_R   0.385554 0.491090 0.413626 -0.118454
C33   C     C_R   0.985665 0.011341 0.034881 -0.057949
C34   C     C_R   0.014349 0.988526 0.965145 -0.057916
C35   C     C_R   0.514343 0.511392 0.465132 -0.057961
C36   C     C_R   0.485659 0.488624 0.534872 -0.057944
C37   C     C_R   0.977951 0.947525 0.872570 0.292507
C38   C     C_R   0.022063 0.052319 0.127458 0.292501
C39   C     C_R   0.522058 0.447694 0.627454 0.292495
C40   C     C_R   0.477943 0.552318 0.372549 0.292485
C41   C     C_R   0.914093 0.965934 0.846095 0.348637
C42   C     C_R   0.085921 0.033948 0.153931 0.348685
C43   C     C_R   0.585916 0.466085 0.653924 0.348693
C44   C     C_R   0.414086 0.533930 0.346079 0.348723
H1    H     H_    0.085926 0.063406 0.853842 0.152032
H2    H     H_    0.914073 0.936458 0.146167 0.152011
H3    H     H_    0.414069 0.563551 0.646155 0.152009
H4    H     H_    0.585932 0.436455 0.353848 0.151994
H5    H     H_    0.254029 0.931842 0.056768 0.174020
H6    H     H_    0.745996 0.068303 0.943243 0.174033
H7    H     H_    0.245987 0.431712 0.443245 0.174029
H8    H     H_    0.754015 0.568284 0.556754 0.174034
C45   C     C_1   0.416763 0.006947 0.918724 -0.146779
C46   C     C_1   0.583237 0.993053 0.081276 -0.146780
C47   C     C_1   0.083237 0.506951 0.581275 -0.146785
C48   C     C_1   0.916763 0.493049 0.418724 -0.146788
C49   C     C_1   0.469146 0.002386 0.969959 0.042114
C50   C     C_1   0.530854 0.997614 0.030041 0.042115
C51   C     C_1   0.030854 0.502388 0.530040 0.042098
C52   C     C_1   0.969146 0.497612 0.469959 0.042098
Cl1   Cl    Cl    0.870774 0.888940 0.733786 -0.526651
Cl2   Cl    Cl    0.129227 0.110897 0.266256 -0.526637
Cl3   Cl    Cl    0.629226 0.389160 0.766252 -0.526622
Cl4   Cl    Cl    0.370778 0.610865 0.233753 -0.526583
Cl5   Cl    Cl    0.776268 0.121389 0.780878 -0.428639
Cl6   Cl    Cl    0.223780 0.878751 0.219146 -0.428614
Cl7   Cl    Cl    0.723756 0.621399 0.719123 -0.428597
Cl8   Cl    Cl    0.276249 0.378599 0.280877 -0.428640
O21   O     O_3   0.004929 0.868335 0.812236 -0.633822
H9    H     H_    0.982482 0.904412 0.747652 0.331494
O22   O     O_3   0.995086 0.131464 0.187804 -0.633795
H10   H     H_    0.017510 0.095232 0.252374 0.331462
O23   O     O_3   0.495086 0.368575 0.687812 -0.633789
H11   H     H_    0.517505 0.404867 0.752374 0.331450
O24   O     O_3   0.504913 0.631428 0.312186 -0.633766
H12   H     H_    0.482505 0.595051 0.247632 0.331424

loop_
_geom_bond_atom_site_label_1
_geom_bond_atom_site_label_2
_ccdc_geom_bond_type
O17   V3    S    
O1    C5    A    
O21   H9    S    
O19   V1    S    
C9    C21   A    
O3    C7    A    
O22   H10   S    
C10   C18   A    
C48   C52   T    
O15   V3    S    
O23   H11   S    
C25   C33   A    
C33   C38   A    
O7    C3    A    
C35   C40   A    
C26   C30   A    
C36   C39   A    
C40   C44   A    
O9    V1    S    
C42   Cl2   S    
C14   C18   A    
O4    C8    A    
C37   O21   S    
O1    V3    S    
O13   V1    S    
O2    V4    S    
O3    V1    S    
C22   H1    S    
C28   C36   A    
C17   H6    S    
C1    O15   A    
C40   O24   S    
C15   C31   A    
C51   C52   S    
C2    O16   A    
C7    C9    S    
O2    C6    A    
C10   C22   A    
C21   C25   A    
C11   C19   A    
C16   C20   A    
C13   C29   A    
C34   C37   A    
O11   C7    A    
C11   C23   A    
C35   C36   A    
O12   C8    A    
C38   O22   S    
O10   V2    S    
C15   Cl7   S    
C49   C50   S    
O5    V1    S    
C39   C43   A    
O7    V3    S    
C38   C42   A    
O8    V4    S    
O18   V4    S    
C23   C27   A    
C16   C32   A    
C32   C44   A    
C8    C10   S    
C1    C48   S    
C26   C34   A    
C20   H7    S    
O5    C1    A    
C3    C46   S    
C46   C50   T    
C31   C43   A    
O24   H12   S    
C14   C30   A    
C45   C49   T    
O8    C4    A    
C4    C45   S    
O9    C5    A    
C16   Cl8   S    
O11   V3    S    
O14   V2    S    
O6    V2    S    
C44   Cl4   S    
C12   C20   A    
C27   C35   A    
C24   H3    S    
C29   C41   A    
O16   V4    S    
C19   H8    S    
C22   C26   A    
C3    O13   A    
C18   H5    S    
C21   H2    S    
O6    C2    A    
C15   C19   A    
C2    C47   S    
C41   Cl1   S    
C30   C42   A    
O12   V4    S    
C6    C12   S    
C14   Cl6   S    
C43   Cl3   S    
C13   Cl5   S    
C9    C17   A    
O10   C6    A    
O20   V2    S    
C5    C11   S    
C39   O23   S    
C47   C51   T    
C33   C34   A    
C25   C29   A    
C12   C24   A    
C27   C31   A    
C13   C17   A    
C23   H4    S    
C37   C41   A    
C24   C28   A    
C4    O14   A    
O4    V2    S    
C28   C32   A    
