data_mof_unit_24584.cif
_audit_creation_date              2012-10-26T20:19:17-0400
_audit_creation_method            fapswitch 2.2
_symmetry_space_group_name_H-M    P1
_symmetry_Int_Tables_number       1
_space_group_crystal_system       triclinic
_cell_length_a                    15.015769
_cell_length_b                    13.060918
_cell_length_c                    11.724865
_cell_angle_alpha                 99.709233
_cell_angle_beta                  95.0772
_cell_angle_gamma                 89.414358
_cell_volume                      2257.62132076

loop_
_atom_site_label
_atom_site_type_symbol
_atom_type_description
_atom_site_fract_x
_atom_site_fract_y
_atom_site_fract_z
_atom_type_partial_charge
C1    C     C_R   0.499697 0.299495 0.479234 0.570292
C2    C     C_R   0.546980 0.870860 0.630961 -0.176235
C3    C     C_R   0.533001 0.137122 0.560445 0.123608
C4    C     C_R   0.467006 0.862879 0.439555 0.123621
C5    C     C_R   0.522790 0.028832 0.550918 0.028937
C6    C     C_R   0.477214 0.971170 0.449085 0.028938
C7    C     C_R   0.416058 0.402330 0.018850 0.108237
C8    C     C_R   0.583949 0.597666 0.981148 0.108235
C9    C     C_R   0.421767 0.414297 0.142090 0.313019
C10   C     C_R   0.578243 0.585693 0.857907 0.313035
C11   C     C_R   0.535988 0.540851 0.158434 0.006192
C12   C     C_R   0.500304 0.700505 0.520767 0.570289
C13   C     C_R   0.464004 0.459159 0.841567 0.006224
C14   C     C_R   0.530343 0.535166 0.035413 -0.045995
C15   C     C_R   0.469657 0.464836 0.964586 -0.045958
C16   C     C_R   0.329052 0.499506 0.499385 0.574017
C17   C     C_R   0.670948 0.500493 0.500615 0.574021
C18   C     C_R   0.813105 0.597537 0.517227 0.112927
C19   C     C_R   0.186894 0.402461 0.482777 0.112926
C20   C     C_R   0.767243 0.502566 0.501578 0.008332
C21   C     C_R   0.232757 0.497432 0.498423 0.008329
C22   C     C_R   0.812240 0.408348 0.484830 -0.166236
C23   C     C_R   0.043816 0.309929 0.467398 -0.126173
C24   C     C_R   0.187759 0.591651 0.515170 -0.166240
C25   C     C_R   0.905201 0.405938 0.485214 0.038343
C26   C     C_R   0.094799 0.594061 0.514785 0.038345
C27   C     C_R   0.953102 0.500763 0.500861 -0.008947
C28   C     C_R   0.046897 0.499236 0.499143 -0.008946
C29   C     C_R   0.907204 0.597050 0.517733 -0.006261
C30   C     C_R   0.092795 0.402949 0.482271 -0.006260
C31   C     C_R   0.951044 0.310583 0.469263 0.139888
C32   C     C_R   0.048954 0.689416 0.530729 0.139892
C33   C     C_3   0.736944 0.732127 0.427925 -0.300312
C34   C     C_R   0.956183 0.690070 0.532600 -0.126174
C35   C     C_3   0.263055 0.267872 0.572081 -0.300311
C36   C     C_3   0.390884 0.228225 0.912585 -0.328170
C37   C     C_3   0.609151 0.771779 0.087364 -0.328131
C38   C     C_3   0.895332 0.177942 0.563790 -0.330874
C39   C     C_3   0.104680 0.822021 0.436163 -0.330868
C40   C     C_3   0.326331 0.790652 0.345569 -0.295189
C41   C     C_3   0.673685 0.209334 0.654417 -0.295190
C42   C     C_3   0.730547 0.607185 0.813916 -0.269552
C43   C     C_3   0.269471 0.392769 0.186090 -0.269552
C44   C     C_R   0.502998 0.813290 0.531209 0.025786
C45   C     C_R   0.497004 0.186711 0.468793 0.025785
C46   C     C_R   0.442473 0.023060 0.359448 -0.162482
C47   C     C_R   0.557527 0.976942 0.640557 -0.162482
C48   C     C_R   0.453018 0.129141 0.369044 -0.176236
Cu1   Cu    Cu3+1 0.506660 0.507730 0.615930 0.969717
Cu2   Cu    Cu3+1 0.493340 0.492270 0.384070 0.969716
H1    H     H_    0.076695 0.235336 0.456304 0.108523
H2    H     H_    0.306297 0.198878 0.551945 0.143489
H3    H     H_    0.313598 0.357687 0.888886 0.236808
H4    H     H_    0.439724 0.233884 0.848291 0.139354
H5    H     H_    0.336300 0.174382 0.870569 0.140900
H6    H     H_    0.424367 0.195810 0.986924 0.145506
H7    H     H_    0.686378 0.642298 0.111152 0.236809
H8    H     H_    0.560082 0.766108 0.151369 0.139378
H9    H     H_    0.575937 0.804303 0.012944 0.145493
H10   H     H_    0.663704 0.825530 0.129701 0.140845
H11   H     H_    0.773830 0.336921 0.470759 0.135004
H12   H     H_    0.923303 0.764662 0.543690 0.108519
H13   H     H_    0.226170 0.663078 0.529240 0.135002
H14   H     H_    0.928666 0.157387 0.394357 0.243344
H15   H     H_    0.962047 0.158618 0.603497 0.135554
H16   H     H_    0.852831 0.107015 0.547057 0.134534
H17   H     H_    0.863410 0.238138 0.625563 0.149177
H18   H     H_    0.071318 0.842628 0.605584 0.243339
H19   H     H_    0.037968 0.841312 0.396416 0.135561
H20   H     H_    0.136627 0.761817 0.374426 0.149173
H21   H     H_    0.147165 0.892960 0.452881 0.134527
H22   H     H_    0.437456 0.818699 0.260207 0.232132
H23   H     H_    0.788680 0.747866 0.600891 0.233462
H24   H     H_    0.292004 0.866489 0.346604 0.123015
H25   H     H_    0.314186 0.759364 0.425147 0.153780
H26   H     H_    0.298095 0.735058 0.268962 0.135698
H27   H     H_    0.562559 0.181310 0.739791 0.232148
H28   H     H_    0.708005 0.133495 0.653389 0.123018
H29   H     H_    0.701927 0.264931 0.731019 0.135700
H30   H     H_    0.685830 0.240613 0.574835 0.153779
H31   H     H_    0.575935 0.833273 0.700838 0.129526
H32   H     H_    0.424057 0.166729 0.299171 0.129541
H33   H     H_    0.405662 0.983286 0.281512 0.114287
H34   H     H_    0.796680 0.755469 0.388781 0.126737
H35   H     H_    0.594333 0.016716 0.718496 0.114285
H36   H     H_    0.418231 0.405958 0.785502 0.133784
H37   H     H_    0.581746 0.594067 0.214502 0.133801
H38   H     H_    0.633453 0.720882 0.827918 0.228977
H39   H     H_    0.761882 0.630080 0.903759 0.140329
H40   H     H_    0.769557 0.644048 0.755823 0.142796
H41   H     H_    0.734763 0.521450 0.788806 0.155602
H42   H     H_    0.366577 0.279090 0.172053 0.229005
H43   H     H_    0.238131 0.369870 0.096248 0.140301
H44   H     H_    0.265244 0.478502 0.211201 0.155609
H45   H     H_    0.693701 0.801120 0.448062 0.143491
H46   H     H_    0.230471 0.355897 0.244186 0.142802
H47   H     H_    0.698453 0.672779 0.364186 0.165784
H48   H     H_    0.211319 0.252131 0.399116 0.233458
H49   H     H_    0.203319 0.244532 0.611226 0.126743
H50   H     H_    0.301547 0.327221 0.635818 0.165780
N1    N     N_R   0.516670 0.519360 0.790130 -0.236986
N2    N     N_2   0.578914 0.197098 0.661089 -0.499165
N3    N     N_2   0.638413 0.641589 0.803945 -0.430753
N4    N     N_2   0.361609 0.358380 0.196048 -0.430759
N5    N     N_R   0.483330 0.480640 0.209870 -0.236981
N6    N     N_2   0.763410 0.691873 0.533430 -0.520236
N7    N     N_2   0.236590 0.308126 0.466576 -0.520240
N8    N     N_2   0.353919 0.329280 0.952114 -0.548033
N9    N     N_2   0.646097 0.670703 0.047890 -0.548025
N10   N     N_2   0.904301 0.214430 0.455579 -0.529277
N11   N     N_2   0.095694 0.785569 0.544390 -0.529271
N12   N     N_2   0.421100 0.802903 0.338905 -0.499159
O1    O     O_R   0.504720 0.354460 0.582000 -0.479515
O2    O     O_R   0.495280 0.645540 0.418000 -0.479511
O3    O     O_R   0.493480 0.341410 0.386200 -0.494949
O4    O     O_R   0.506520 0.658590 0.613800 -0.494961
O5    O     O_R   0.375880 0.506510 0.597910 -0.519011
O6    O     O_R   0.624120 0.493490 0.402090 -0.519010
O7    O     O_R   0.364640 0.493450 0.402110 -0.473129
O8    O     O_R   0.635360 0.506550 0.597890 -0.473112

loop_
_geom_bond_atom_site_label_1
_geom_bond_atom_site_label_2
_ccdc_geom_bond_type
C25   C31   A    
Cu1   O1    S    
H22   N12   S    
C26   C32   A    
C16   C21   S    
C32   N11   S    
C36   N8    S    
C42   N3    S    
C17   C20   S    
C41   H30   S    
C40   N12   S    
C5    C47   A    
C40   H24   S    
C47   H35   S    
C10   N3    S    
C19   C21   A    
C24   C26   A    
C42   H41   S    
Cu1   N1    S    
C5    C6    A    
C11   C14   A    
Cu1   O8    S    
C27   C29   A    
C9    N5    A    
C34   H12   S    
C43   H44   S    
C41   N2    S    
Cu2   O3    S    
C43   N4    S    
C17   O8    A    
C23   H1    S    
C39   H20   S    
Cu1   O5    S    
C38   H16   S    
C11   H37   S    
C22   C25   A    
C13   H36   S    
C11   N5    A    
Cu2   N5    S    
C38   N10   S    
C37   N9    S    
C37   H8    S    
C39   N11   S    
C4    N12   S    
H27   N2    S    
C1    O1    A    
C35   H49   S    
C33   H45   S    
C12   O2    A    
H7    N9    S    
Cu2   O7    S    
C23   C30   A    
C35   N7    S    
C4    C6    A    
C16   O7    A    
C2    C44   A    
C41   H28   S    
C4    C44   A    
C29   C34   A    
C3    C45   A    
H48   N7    S    
C40   H26   S    
C42   H40   S    
H18   N11   S    
C32   C34   A    
C18   N6    S    
C36   H6    S    
H14   N10   S    
C38   H15   S    
C43   H46   S    
C39   H19   S    
C18   C29   A    
C37   H9    S    
C17   O6    A    
C7    N8    S    
C3    N2    S    
C20   C22   A    
C24   H13   S    
C13   C15   A    
C13   N1    A    
C35   H50   S    
C27   C28   A    
H38   N3    S    
C45   C48   A    
C7    C9    A    
C8    C14   A    
C6    C46   A    
Cu2   O6    S    
C10   N1    A    
C33   N6    S    
C3    C5    A    
C41   H29   S    
C2    C47   A    
C25   C27   A    
C26   C28   A    
C40   H25   S    
C42   H39   S    
C28   C30   A    
C12   C44   S    
C36   H5    S    
C8    N9    S    
C22   H11   S    
H3    N8    S    
C1    C45   S    
H23   N6    S    
C9    N4    S    
C7    C15   A    
C43   H43   S    
C31   N10   S    
C48   H32   S    
C18   C20   A    
C33   H34   S    
C37   H10   S    
C36   H4    S    
H42   N4    S    
C46   H33   S    
C46   C48   A    
Cu1   O4    S    
C38   H17   S    
C8    C10   A    
Cu1   Cu2   S    
C21   C24   A    
C35   H2    S    
C39   H21   S    
C14   C15   A    
C2    H31   S    
C1    O3    A    
C33   H47   S    
Cu2   O2    S    
C16   O5    A    
C19   C30   A    
C23   C31   A    
C12   O4    A    
C19   N7    S    
