data_mof_unit_58869.cif
_audit_creation_date              2012-12-10T21:42:41-0500
_audit_creation_method            fapswitch 2.2
_symmetry_space_group_name_H-M    P1
_symmetry_Int_Tables_number       1
_space_group_crystal_system       triclinic
_cell_length_a                    10.994737
_cell_length_b                    16.304202
_cell_length_c                    16.679535
_cell_angle_alpha                 86.305519
_cell_angle_beta                  92.411107
_cell_angle_gamma                 92.462051
_cell_volume                      2978.69531024

loop_
_atom_site_label
_atom_site_type_symbol
_atom_type_description
_atom_site_fract_x
_atom_site_fract_y
_atom_site_fract_z
_atom_type_partial_charge
C1    C     C_R   0.498105 0.488124 0.652489 1.045244
C2    C     C_R   0.500608 0.511816 0.346936 1.067055
C3    C     C_R   0.126224 0.498687 0.493271 -0.267546
C4    C     C_R   0.872055 0.500104 0.496135 -0.288655
C5    C     C_R   0.056541 0.423467 0.502562 -0.000443
C6    C     C_R   0.939877 0.573960 0.476425 -0.052321
C7    C     C_R   0.483899 0.478036 0.737908 -0.383410
C8    C     C_R   0.511644 0.519915 0.260254 -0.360967
C9    C     C_R   0.370542 0.493015 0.768654 0.387482
C10   C     C_R   0.608470 0.482073 0.226686 0.506000
C11   C     C_R   0.354934 0.481334 0.851202 -0.046235
C12   C     C_R   0.623037 0.492505 0.143691 -0.107167
C13   C     C_R   0.454201 0.458715 0.902189 0.011378
C14   C     C_R   0.525676 0.520429 0.094067 0.041965
C15   C     C_R   0.564667 0.436569 0.870278 0.444511
C16   C     C_R   0.422243 0.550598 0.127299 0.419628
C17   C     C_R   0.581071 0.449277 0.787335 0.325610
C18   C     C_R   0.423211 0.560555 0.210859 0.292216
C19   C     C_R   0.476882 0.768286 0.445555 0.056358
C20   C     C_R   0.525879 0.235610 0.555994 0.049506
C21   C     C_R   0.477266 0.854958 0.449446 0.485858
C22   C     C_R   0.519786 0.148177 0.557040 0.363308
C23   C     C_R   0.739849 0.499999 0.499653 1.021883
C24   C     C_R   0.259646 0.499844 0.497862 0.970148
C25   C     C_R   0.521564 0.891238 0.520152 0.155111
C26   C     C_R   0.477985 0.109059 0.487017 0.125281
C27   C     C_R   0.562700 0.839142 0.584359 -0.057879
C28   C     C_R   0.439444 0.159098 0.420105 -0.000415
C29   C     C_R   0.561539 0.752988 0.577989 0.115545
C30   C     C_R   0.441494 0.244957 0.422977 0.132475
C31   C     C_R   0.773433 0.732236 0.340238 -0.115324
C32   C     C_R   0.133985 0.201731 0.552486 -0.118878
C33   C     C_R   0.821828 0.657408 0.370752 0.386259
C34   C     C_R   0.119033 0.285617 0.562510 0.482729
C35   C     C_R   0.881071 0.651978 0.447866 -0.060791
C36   C     C_R   0.105928 0.341031 0.494500 -0.063254
C37   C     C_R   0.895687 0.722830 0.492770 0.435507
C38   C     C_R   0.114541 0.312931 0.416569 0.339325
C39   C     C_R   0.847447 0.797371 0.461296 -0.122660
C40   C     C_R   0.131096 0.228722 0.406999 -0.063982
C41   C     C_R   0.786378 0.801963 0.385565 0.474284
C42   C     C_R   0.138141 0.173069 0.474900 0.428514
C43   C     C_R   0.066862 0.573612 0.479351 0.480767
C44   C     C_R   0.930941 0.425143 0.510753 0.461666
N1    N     N_2   0.446503 0.466821 0.985198 -0.126538
N2    N     N_2   0.530404 0.513020 0.010893 -0.080370
N3    N     N_R   0.515300 0.716920 0.509720 -0.151011
N4    N     N_R   0.484700 0.283080 0.490280 -0.153185
N5    N     N_2   0.533231 0.978718 0.528507 -0.061374
N6    N     N_2   0.468223 0.021434 0.480451 -0.105233
O1    O     O_R   0.494530 0.422540 0.612660 -0.613622
O2    O     O_R   0.505470 0.577460 0.387340 -0.638497
O3    O     O_R   0.504350 0.561840 0.618900 -0.648264
O4    O     O_R   0.495650 0.438160 0.381100 -0.638397
O5    O     O_R   0.678330 0.430350 0.496870 -0.561586
O6    O     O_R   0.321670 0.569650 0.503130 -0.568678
O7    O     O_R   0.688150 0.569660 0.503110 -0.661364
O8    O     O_R   0.311850 0.430340 0.496890 -0.652516
Zn1   Zn    Zn3+2 0.493440 0.406980 0.495830 0.963280
Zn2   Zn    Zn3+2 0.506560 0.593020 0.504170 0.949538
O9    O     O_3   0.736347 0.874958 0.356668 -0.530811
C45   C     C_3   0.822298 0.919987 0.309167 -0.249125
H1    H     H_    0.910457 0.930249 0.342942 0.129108
H2    H     H_    0.837549 0.888960 0.253222 0.150677
H3    H     H_    0.786030 0.981235 0.291340 0.180820
O10   O     O_3   0.158768 0.091148 0.466199 -0.599234
C46   C     C_3   0.047002 0.049670 0.447761 -0.324816
H4    H     H_    0.002681 0.075431 0.391091 0.166161
H5    H     H_    0.983480 0.050309 0.497831 0.172199
H6    H     H_    0.065665 0.984744 0.438771 0.177615
O11   O     O_3   0.694680 0.445739 0.754327 -0.600105
C47   C     C_3   0.741907 0.366619 0.766933 -0.146101
H7    H     H_    0.670438 0.316361 0.772335 0.104651
H8    H     H_    0.804792 0.364191 0.820743 0.203892
H9    H     H_    0.796540 0.355139 0.714664 0.209617
O12   O     O_3   0.332197 0.600838 0.245946 -0.629571
C48   C     C_3   0.320063 0.680939 0.209027 -0.282935
H10   H     H_    0.257622 0.680112 0.155179 0.215356
H11   H     H_    0.409413 0.711836 0.194030 0.171484
H12   H     H_    0.276666 0.719540 0.250940 0.151643
N7    N     N_3   0.580313 0.274920 0.623355 -0.361586
H13   H     H_    0.528481 0.258552 0.673390 0.163381
H14   H     H_    0.667665 0.252885 0.634636 0.213176
N8    N     N_3   0.442974 0.736344 0.370542 -0.433462
H15   H     H_    0.383004 0.686544 0.381391 0.246598
H16   H     H_    0.521327 0.717409 0.345897 0.240502
O13   O     O_3   0.564423 0.103124 0.624194 -0.586583
C49   C     C_3   0.466615 0.078774 0.673590 -0.294108
H17   H     H_    0.401045 0.035816 0.643351 0.177839
H18   H     H_    0.418662 0.132571 0.692583 0.126714
H19   H     H_    0.503470 0.045442 0.728785 0.193484
O14   O     O_3   0.451838 0.904137 0.380352 -0.553392
C50   C     C_3   0.324691 0.903740 0.364493 -0.309906
H20   H     H_    0.273366 0.913860 0.418984 0.167093
H21   H     H_    0.291759 0.846557 0.337106 0.156717
H22   H     H_    0.304322 0.954081 0.318816 0.179876
N9    N     N_3   0.605984 0.874620 0.657313 -0.412777
H23   H     H_    0.552046 0.850189 0.703917 0.187396
H24   H     H_    0.695473 0.857480 0.670448 0.194164
N10   N     N_3   0.399333 0.123474 0.346722 -0.429288
H25   H     H_    0.322827 0.085229 0.358368 0.252188
H26   H     H_    0.468500 0.087736 0.328278 0.213690
N11   N     N_3   0.617207 0.705731 0.643376 -0.480264
H27   H     H_    0.550642 0.683735 0.682979 0.205246
H28   H     H_    0.665366 0.658888 0.621546 0.235822
N12   N     N_3   0.397012 0.290665 0.353013 -0.434245
H29   H     H_    0.470629 0.313800 0.320117 0.208403
H30   H     H_    0.343066 0.337006 0.369874 0.262247
N13   N     N_3   0.714803 0.739154 0.261680 -0.412256
H31   H     H_    0.655195 0.688244 0.254486 0.213681
H32   H     H_    0.781364 0.737414 0.219061 0.176209
N14   N     N_3   0.139011 0.145309 0.621892 -0.416416
H33   H     H_    0.063891 0.104035 0.618707 0.209143
H34   H     H_    0.217640 0.111952 0.620002 0.193952
O15   O     O_3   0.806575 0.588670 0.326260 -0.573990
C51   C     C_3   0.906737 0.584557 0.276610 -0.315244
H35   H     H_    0.987088 0.561372 0.311982 0.166470
H36   H     H_    0.931241 0.644363 0.244220 0.128942
H37   H     H_    0.882976 0.540084 0.230420 0.223293
O16   O     O_3   0.101194 0.311672 0.638255 -0.559764
C52   C     C_3   0.215810 0.324275 0.677511 -0.204296
H38   H     H_    0.267331 0.266880 0.685094 0.130713
H39   H     H_    0.201477 0.344709 0.738429 0.199526
H40   H     H_    0.270623 0.373228 0.644745 0.199316
O17   O     O_3   0.975904 0.723997 0.559095 -0.563145
C53   C     C_3   0.916912 0.692174 0.628203 -0.288301
H41   H     H_    0.986274 0.684418 0.678021 0.184733
H42   H     H_    0.872268 0.630603 0.620158 0.170551
H43   H     H_    0.851464 0.736513 0.646791 0.159788
O18   O     O_3   0.119479 0.368950 0.350557 -0.610646
C54   C     C_3   0.002776 0.375936 0.313232 -0.329990
H44   H     H_    0.951154 0.316084 0.309755 0.134775
H45   H     H_    0.013252 0.402260 0.250798 0.187059
H46   H     H_    0.949309 0.419015 0.344750 0.204230
N15   N     N_3   0.864432 0.870332 0.504520 -0.410200
H47   H     H_    0.957751 0.880531 0.516268 0.206027
H48   H     H_    0.823488 0.859655 0.559687 0.204580
N16   N     N_3   0.137729 0.198211 0.328524 -0.415053
H49   H     H_    0.196053 0.236621 0.293822 0.242959
H50   H     H_    0.051220 0.199645 0.300326 0.159790
O19   O     O_3   0.132919 0.647875 0.473965 -0.539543
C55   C     C_3   0.146295 0.673869 0.392649 -0.318319
H51   H     H_    0.059876 0.690516 0.361271 0.128315
H52   H     H_    0.190992 0.626956 0.359942 0.199726
H53   H     H_    0.201217 0.731923 0.390899 0.177269
O20   O     O_3   0.867804 0.354791 0.541273 -0.574116
C56   C     C_3   0.831203 0.302862 0.479038 -0.236560
H54   H     H_    0.745115 0.269753 0.495040 0.188933
H55   H     H_    0.813526 0.336756 0.420260 0.155505
H56   H     H_    0.897631 0.254745 0.473624 0.122946
O21   O     O_3   0.689670 0.437487 0.276467 -0.556900
C57   C     C_3   0.693996 0.355963 0.252186 -0.336489
H57   H     H_    0.612044 0.334916 0.216146 0.141179
H58   H     H_    0.700543 0.313163 0.306314 0.161751
H59   H     H_    0.776373 0.349777 0.217283 0.176613
O22   O     O_3   0.273058 0.513366 0.716854 -0.608250
C58   C     C_3   0.258547 0.599020 0.714628 -0.200211
H60   H     H_    0.191805 0.615745 0.665170 0.211053
H61   H     H_    0.344871 0.634566 0.701964 0.150122
H62   H     H_    0.221750 0.617459 0.771497 0.159638
N17   N     N_3   0.734344 0.470515 0.110516 -0.444297
H63   H     H_    0.767653 0.520680 0.074520 0.209144
H64   H     H_    0.715476 0.421379 0.074399 0.236075
N18   N     N_3   0.239337 0.496062 0.882849 -0.411004
H65   H     H_    0.211420 0.443884 0.918166 0.188393
H66   H     H_    0.250958 0.545554 0.919573 0.230785
O23   O     O_3   0.660250 0.409820 0.920431 -0.584062
C59   C     C_3   0.630973 0.329138 0.951967 -0.408299
H67   H     H_    0.596860 0.287848 0.904578 0.148125
H68   H     H_    0.563203 0.329513 0.999474 0.186799
H69   H     H_    0.714864 0.302577 0.980114 0.188650
O24   O     O_3   0.323906 0.572643 0.077109 -0.601380
C60   C     C_3   0.224707 0.516618 0.092679 -0.330315
H70   H     H_    0.189743 0.521771 0.153603 0.206845
H71   H     H_    0.249112 0.452094 0.084989 0.161800
H72   H     H_    0.148838 0.531441 0.048958 0.176324

loop_
_geom_bond_atom_site_label_1
_geom_bond_atom_site_label_2
_ccdc_geom_bond_type
C13   N1    S    
O13   C49   S    
C53   H41   S    
O5    Zn1   S    
C27   C29   A    
C56   H54   S    
C41   O9    S    
C24   O6    A    
C54   H46   S    
N14   H34   S    
N7    H13   S    
N15   H47   S    
C14   N2    S    
C39   N15   S    
C48   H10   S    
O24   C60   S    
C3    C43   A    
N18   H66   S    
C58   H60   S    
C29   N3    A    
C38   O18   S    
C30   N4    A    
O22   C58   S    
C35   C37   A    
N8    H16   S    
C26   N6    S    
C19   N3    A    
C60   H72   S    
N12   H29   S    
O15   C51   S    
C5    C36   S    
C6    C35   S    
C29   N11   S    
C7    C9    A    
C1    O3    A    
C11   N18   S    
C52   H40   S    
C45   H2    S    
O2    Zn2   S    
N7    H14   S    
N3    Zn2   S    
C59   H69   S    
C27   N9    S    
C9    O22   S    
C7    C17   A    
C40   N16   S    
C44   O20   S    
O21   C57   S    
C31   C33   A    
C32   N14   S    
C34   C36   A    
C28   N10   S    
C60   H71   S    
O10   C46   S    
C12   N17   S    
C58   H61   S    
C20   N7    S    
C30   N12   S    
C55   H53   S    
C15   O23   S    
C3    C24   S    
C47   H9    S    
C15   C17   A    
C10   C12   A    
N14   H33   S    
N17   H64   S    
O3    Zn2   S    
N9    H23   S    
C37   O17   S    
O4    Zn1   S    
C48   H11   S    
C34   O16   S    
C33   O15   S    
C46   H4    S    
C56   H56   S    
N8    H15   S    
C47   H8    S    
C2    O4    A    
O23   C59   S    
C4    C23   S    
C47   H7    S    
O7    Zn2   S    
C4    C44   A    
C53   H43   S    
C54   H45   S    
O8    Zn1   S    
C60   H70   S    
C8    C18   A    
O6    Zn2   S    
C46   H5    S    
C32   C34   A    
C45   H1    S    
C10   O21   S    
C1    O1    A    
C16   O24   S    
C57   H59   S    
N10   H26   S    
C31   N13   S    
N11   H28   S    
C50   H20   S    
C22   O13   S    
O12   C48   S    
C53   H42   S    
C9    C11   A    
C52   H38   S    
C20   N4    A    
C2    O2    A    
C23   O7    A    
C4    C6    A    
C59   H67   S    
C5    C44   A    
C49   H18   S    
C17   O11   S    
C50   H22   S    
C6    C43   A    
C13   C15   A    
O17   C53   S    
C14   C16   A    
C43   O19   S    
O1    Zn1   S    
C54   H44   S    
O16   C52   S    
N4    Zn1   S    
O20   C56   S    
C57   H58   S    
C48   H12   S    
N15   H48   S    
C21   C25   A    
N18   H65   S    
N9    H24   S    
C31   C41   A    
C45   H3    S    
C19   C21   A    
C1    C7    S    
C8    C10   A    
C2    C8    S    
C20   C22   A    
C40   C42   A    
C3    C5    A    
C23   O5    A    
N16   H50   S    
C58   H62   S    
C25   C27   A    
C56   H55   S    
C26   C28   A    
C51   H37   S    
C46   H6    S    
C16   C18   A    
N13   H32   S    
O18   C54   S    
C12   C14   A    
C28   C30   A    
C37   C39   A    
N17   H63   S    
O19   C55   S    
C36   C38   A    
C38   C40   A    
C11   C13   A    
C50   H21   S    
C49   H19   S    
N12   H30   S    
C59   H68   S    
O14   C50   S    
C33   C35   A    
C51   H36   S    
C51   H35   S    
C55   H52   S    
O9    C45   S    
C25   N5    S    
C52   H39   S    
N16   H49   S    
N1    N2    D    
O11   C47   S    
C49   H17   S    
C39   C41   A    
C24   O8    A    
N5    N6    D    
C22   C26   A    
N11   H27   S    
C42   O10   S    
C32   C42   A    
C55   H51   S    
N10   H25   S    
C57   H57   S    
N13   H31   S    
C19   N8    S    
C18   O12   S    
C21   O14   S    
