data_mof_unit_65066.cif
_audit_creation_date              2012-12-10T17:09:35-0500
_audit_creation_method            fapswitch 2.2
_symmetry_space_group_name_H-M    P1
_symmetry_Int_Tables_number       1
_space_group_crystal_system       triclinic
_cell_length_a                    18.342602
_cell_length_b                    18.342601
_cell_length_c                    27.698639
_cell_angle_alpha                 89.999987
_cell_angle_beta                  90.0
_cell_angle_gamma                 90.015267
_cell_volume                      9319.23528443

loop_
_atom_site_label
_atom_site_type_symbol
_atom_type_description
_atom_site_fract_x
_atom_site_fract_y
_atom_site_fract_z
_atom_type_partial_charge
C1    C     C_R   0.500000 1.000000 0.870837 0.503968
C2    C     C_1   0.500000 1.000000 0.775496 -0.018191
C3    C     C_R   0.300614 0.807117 0.496782 0.036618
C4    C     C_R   0.277770 0.775559 0.040243 -0.133452
C5    C     C_R   0.266195 0.319505 0.001062 -0.137518
C6    C     C_R   0.722229 0.224442 0.040243 -0.133452
C7    C     C_R   0.733805 0.680495 0.001064 -0.137518
C8    C     C_R   0.319505 0.266195 0.001062 -0.137518
C9    C     C_R   0.224441 0.722230 0.040243 -0.133452
C10   C     C_R   0.680495 0.733805 0.001064 -0.137518
C11   C     C_R   0.775558 0.277770 0.040243 -0.133452
C12   C     C_R   0.777770 0.275559 0.540243 -0.133452
C13   C     C_1   0.500000 1.000000 0.275496 -0.018191
C14   C     C_R   0.766195 0.819505 0.501063 -0.137518
C15   C     C_R   0.222230 0.724441 0.540242 -0.133452
C16   C     C_R   0.233805 0.180495 0.501063 -0.137518
C17   C     C_R   0.819505 0.766195 0.501063 -0.137518
C18   C     C_R   0.724441 0.222230 0.540243 -0.133452
C19   C     C_R   0.180495 0.233805 0.501063 -0.137518
C20   C     C_R   0.275559 0.777770 0.540242 -0.133452
C21   C     C_1   0.500000 1.000000 0.180986 0.022079
C22   C     C_1   1.000000 0.500000 0.180986 0.022079
C23   C     C_1   1.000000 0.500000 0.680986 0.022079
C24   C     C_1   1.000000 0.500000 0.275496 -0.018191
C25   C     C_1   0.500000 1.000000 0.680986 0.022079
C26   C     C_1   0.000000 0.500000 0.819024 0.025975
C27   C     C_1   0.500000 1.000000 0.819024 0.025975
C28   C     C_1   0.500000 1.000000 0.319024 0.025975
C29   C     C_1   1.000000 0.500000 0.319024 0.025975
C30   C     C_R   0.500000 1.000000 0.129169 0.506017
C31   C     C_R   0.000000 0.500000 0.129169 0.506017
C32   C     C_R   1.000000 0.500000 0.629169 0.506017
C33   C     C_R   0.000000 0.500000 0.870837 0.503968
C34   C     C_R   0.500000 1.000000 0.629169 0.506017
C35   C     C_R   0.641035 0.860742 0.000810 0.495543
C36   C     C_R   0.140896 0.639391 0.999244 0.493271
C37   C     C_R   0.358965 0.139258 0.000810 0.495543
C38   C     C_R   0.859104 0.360609 0.999244 0.493271
C39   C     C_R   0.639391 0.140896 0.999244 0.493271
C40   C     C_R   0.139258 0.358965 0.000810 0.495543
C41   C     C_R   0.360609 0.859104 0.999244 0.493271
C42   C     C_R   0.860742 0.641035 0.000810 0.495543
C43   C     C_R   0.141034 0.360742 0.500810 0.495543
C44   C     C_R   1.000000 0.500000 0.370837 0.503968
C45   C     C_R   0.640896 0.139391 0.499244 0.493271
C46   C     C_R   0.858965 0.639258 0.500810 0.495543
C47   C     C_R   0.359104 0.860609 0.499244 0.493271
C48   C     C_R   0.139391 0.640896 0.499244 0.493271
C49   C     C_R   0.639258 0.858965 0.500810 0.495543
C50   C     C_R   0.860609 0.359104 0.499244 0.493271
C51   C     C_R   0.360742 0.141035 0.500810 0.495543
C52   C     C_R   0.318694 0.788860 0.908033 -0.115803
C53   C     C_R   0.097979 0.205502 0.014871 -0.117680
C54   C     C_R   0.681307 0.211139 0.908033 -0.115803
C55   C     C_R   0.500000 1.000000 0.370837 0.503968
C56   C     C_R   0.902022 0.794499 0.014868 -0.117680
C57   C     C_R   0.205502 0.097979 0.014871 -0.117680
C58   C     C_R   0.211140 0.681306 0.908033 -0.115804
C59   C     C_R   0.794499 0.902022 0.014868 -0.117680
C60   C     C_R   0.788861 0.318693 0.908033 -0.115803
C61   C     C_R   0.818694 0.288860 0.408033 -0.115803
C62   C     C_R   0.597978 0.705501 0.514868 -0.117680
C63   C     C_R   0.181306 0.711140 0.408033 -0.115803
C64   C     C_R   0.402022 0.294499 0.514869 -0.117680
C65   C     C_R   0.705501 0.597978 0.514868 -0.117680
C66   C     C_1   0.500000 1.000000 0.224516 -0.020719
C67   C     C_R   0.711140 0.181306 0.408033 -0.115803
C68   C     C_R   0.294499 0.402022 0.514869 -0.117680
C69   C     C_R   0.288860 0.818694 0.408033 -0.115803
C70   C     C_R   0.297351 0.756283 0.864812 0.127479
C71   C     C_R   0.078808 0.132425 0.020409 0.137279
C72   C     C_R   0.702650 0.243716 0.864812 0.127480
C73   C     C_R   0.921193 0.867576 0.020404 0.137278
C74   C     C_R   0.132425 0.078808 0.020409 0.137279
C75   C     C_R   0.243717 0.702649 0.864812 0.127479
C76   C     C_R   0.867576 0.921193 0.020404 0.137279
C77   C     C_1   0.000000 0.500000 0.224516 -0.020719
C78   C     C_R   0.756284 0.297350 0.864812 0.127479
C79   C     C_R   0.797351 0.256283 0.364812 0.127479
C80   C     C_R   0.578807 0.632424 0.520405 0.137279
C81   C     C_R   0.202649 0.743717 0.364812 0.127480
C82   C     C_R   0.421193 0.367576 0.520406 0.137279
C83   C     C_R   0.632424 0.578807 0.520405 0.137279
C84   C     C_R   0.743717 0.202649 0.364812 0.127479
C85   C     C_R   0.367576 0.421193 0.520406 0.137279
C86   C     C_R   0.256283 0.797351 0.364812 0.127480
C87   C     C_R   0.230756 0.714575 0.952262 -0.005466
C88   C     C_1   1.000000 0.500000 0.724516 -0.020719
C89   C     C_R   0.226267 0.171602 0.008151 -0.007096
C90   C     C_R   0.769244 0.285425 0.952262 -0.005465
C91   C     C_R   0.773733 0.828399 0.008150 -0.007096
C92   C     C_R   0.171602 0.226267 0.008151 -0.007096
C93   C     C_R   0.285425 0.769244 0.952262 -0.005465
C94   C     C_R   0.828399 0.773733 0.008150 -0.007096
C95   C     C_R   0.714575 0.230756 0.952262 -0.005466
C96   C     C_R   0.730756 0.214575 0.452262 -0.005466
C97   C     C_R   0.726267 0.671601 0.508150 -0.007096
C98   C     C_R   0.269244 0.785425 0.452262 -0.005465
C99   C     C_1   0.500000 1.000000 0.724516 -0.020719
C100  C     C_R   0.273733 0.328398 0.508150 -0.007095
C101  C     C_R   0.671601 0.726267 0.508150 -0.007095
C102  C     C_R   0.785425 0.269244 0.452262 -0.005465
C103  C     C_R   0.328398 0.273733 0.508150 -0.007095
C104  C     C_R   0.214575 0.730756 0.452262 -0.005466
C105  C     C_R   0.307118 0.800614 0.996782 0.036619
C106  C     C_R   0.192591 0.300318 0.003288 0.036790
C107  C     C_R   0.692882 0.199386 0.996782 0.036618
C108  C     C_R   0.807410 0.699682 0.003288 0.036790
C109  C     C_R   0.300318 0.192591 0.003288 0.036790
C110  C     C_1   0.000000 0.500000 0.775496 -0.018191
C111  C     C_R   0.199386 0.692882 0.996782 0.036619
C112  C     C_R   0.699682 0.807409 0.003288 0.036790
C113  C     C_R   0.800614 0.307117 0.996782 0.036618
C114  C     C_R   0.807118 0.300614 0.496782 0.036619
C115  C     C_R   0.692590 0.800318 0.503288 0.036790
C116  C     C_R   0.192882 0.699386 0.496782 0.036619
C117  C     C_R   0.307409 0.199682 0.503288 0.036790
C118  C     C_R   0.800318 0.692590 0.503288 0.036790
C119  C     C_R   0.699386 0.192883 0.496782 0.036619
C120  C     C_R   0.199682 0.307409 0.503288 0.036790
F1    F     F_    0.329937 0.776010 0.822839 -0.164816
F2    F     F_    0.507879 0.613795 0.526713 -0.152534
F3    F     F_    0.170063 0.723990 0.322840 -0.164816
F4    F     F_    0.492120 0.386205 0.526714 -0.152534
F5    F     F_    0.613795 0.507879 0.526713 -0.152534
F6    F     F_    0.723990 0.170064 0.322840 -0.164816
F7    F     F_    0.386205 0.492121 0.526714 -0.152534
F8    F     F_    0.276010 0.829936 0.322840 -0.164816
F9    F     F_    0.007880 0.113796 0.026718 -0.152535
F10   F     F_    0.670065 0.223989 0.822839 -0.164816
F11   F     F_    0.992121 0.886206 0.026711 -0.152534
F12   F     F_    0.113796 0.007880 0.026718 -0.152535
F13   F     F_    0.223990 0.670063 0.822839 -0.164816
F14   F     F_    0.886206 0.992121 0.026712 -0.152534
F15   F     F_    0.776011 0.329935 0.822839 -0.164816
F16   F     F_    0.829936 0.276010 0.322840 -0.164816
H1    H     H_    0.295075 0.798718 0.074376 0.137125
H2    H     H_    0.782425 0.876159 0.498109 0.132971
H3    H     H_    0.204925 0.701282 0.574376 0.137125
H4    H     H_    0.217575 0.123841 0.498109 0.132971
H5    H     H_    0.876159 0.782425 0.498109 0.132971
H6    H     H_    0.701282 0.204924 0.574376 0.137125
H7    H     H_    0.123841 0.217575 0.498109 0.132971
H8    H     H_    0.298718 0.795075 0.574376 0.137125
H9    H     H_    0.362486 0.828170 0.906312 0.144786
H10   H     H_    0.054610 0.245203 0.017030 0.146436
H11   H     H_    0.637514 0.171829 0.906312 0.144787
H12   H     H_    0.282425 0.376159 0.998107 0.132970
H13   H     H_    0.945390 0.754798 0.017027 0.146438
H14   H     H_    0.245203 0.054610 0.017030 0.146436
H15   H     H_    0.171830 0.637514 0.906312 0.144786
H16   H     H_    0.754798 0.945390 0.017027 0.146438
H17   H     H_    0.828171 0.362486 0.906312 0.144787
H18   H     H_    0.862486 0.328170 0.406312 0.144786
H19   H     H_    0.554610 0.745202 0.517028 0.146438
H20   H     H_    0.137514 0.671830 0.406312 0.144786
H21   H     H_    0.445390 0.254798 0.517028 0.146437
H22   H     H_    0.745202 0.554610 0.517028 0.146438
H23   H     H_    0.704924 0.201283 0.074376 0.137126
H24   H     H_    0.671830 0.137514 0.406312 0.144786
H25   H     H_    0.254798 0.445390 0.517028 0.146438
H26   H     H_    0.328170 0.862486 0.406312 0.144786
H27   H     H_    0.717575 0.623841 0.998110 0.132971
H28   H     H_    0.376159 0.282425 0.998107 0.132970
H29   H     H_    0.201282 0.704924 0.074376 0.137125
H30   H     H_    0.623841 0.717575 0.998110 0.132971
H31   H     H_    0.798717 0.295076 0.074376 0.137126
H32   H     H_    0.795075 0.298718 0.574376 0.137125
O1    O     O_3   0.500000 1.000000 0.000010 -0.443262
O2    O     O_R   0.500000 0.939270 0.393730 -0.534035
O3    O     O_R   0.060730 0.500000 0.393730 -0.534035
O4    O     O_R   0.500000 0.060730 0.393730 -0.534035
O5    O     O_R   0.500000 0.939240 0.106280 -0.532393
O6    O     O_R   0.060760 0.500000 0.106280 -0.532393
O7    O     O_R   0.500000 0.060760 0.106280 -0.532393
O8    O     O_R   0.939240 0.500000 0.106280 -0.532393
O9    O     O_R   1.000000 0.439240 0.606280 -0.532393
O10   O     O_R   0.560760 1.000000 0.606280 -0.532393
O11   O     O_R   1.000000 0.560760 0.606280 -0.532393
O12   O     O_3   1.000000 0.500000 0.000010 -0.443262
O13   O     O_R   0.439240 1.000000 0.606280 -0.532393
O14   O     O_R   0.646170 0.914530 0.972140 -0.541909
O15   O     O_R   0.085470 0.646170 0.972140 -0.546137
O16   O     O_R   0.353830 0.085470 0.972140 -0.541908
O17   O     O_R   0.914530 0.353830 0.972140 -0.546137
O18   O     O_R   0.646170 0.085470 0.972140 -0.546137
O19   O     O_R   0.085470 0.353830 0.972140 -0.541908
O20   O     O_R   0.353830 0.914530 0.972140 -0.546137
O21   O     O_R   0.914530 0.646170 0.972140 -0.541909
O22   O     O_R   0.146170 0.414530 0.472140 -0.541909
O23   O     O_3   1.000000 0.500000 0.500010 -0.443262
O24   O     O_R   0.585470 0.146170 0.472140 -0.546137
O25   O     O_R   0.853830 0.585470 0.472140 -0.541908
O26   O     O_R   0.414530 0.853830 0.472140 -0.546137
O27   O     O_R   0.146170 0.585470 0.472140 -0.546137
O28   O     O_R   0.585470 0.853830 0.472140 -0.541908
O29   O     O_R   0.853830 0.414530 0.472140 -0.546137
O30   O     O_R   0.414530 0.146170 0.472140 -0.541909
O31   O     O_R   0.414540 0.146130 0.027870 -0.538039
O32   O     O_R   0.853870 0.414540 0.027870 -0.539631
O33   O     O_R   0.585460 0.853870 0.027870 -0.538039
O34   O     O_3   0.500000 1.000000 0.500010 -0.443262
O35   O     O_R   0.146130 0.585460 0.027870 -0.539631
O36   O     O_R   0.414540 0.853870 0.027870 -0.539631
O37   O     O_R   0.853870 0.585460 0.027870 -0.538039
O38   O     O_R   0.585460 0.146130 0.027870 -0.539631
O39   O     O_R   0.146130 0.414540 0.027870 -0.538039
O40   O     O_R   0.914540 0.646130 0.527870 -0.538039
O41   O     O_R   0.353870 0.914540 0.527870 -0.539631
O42   O     O_R   0.085460 0.353870 0.527870 -0.538039
O43   O     O_R   0.646130 0.085460 0.527870 -0.539631
O44   O     O_R   0.914540 0.353870 0.527870 -0.539631
O45   O     O_R   0.439270 1.000000 0.893730 -0.534035
O46   O     O_R   0.353870 0.085460 0.527870 -0.538039
O47   O     O_R   0.085460 0.646130 0.527870 -0.539631
O48   O     O_R   0.646130 0.914540 0.527870 -0.538040
O49   O     O_R   1.000000 0.439270 0.893730 -0.534035
O50   O     O_R   0.560730 1.000000 0.893730 -0.534035
O51   O     O_R   1.000000 0.560730 0.893730 -0.534035
O52   O     O_R   0.939270 0.500000 0.393730 -0.534035
Zn1   Zn    Zn3+2 0.500000 0.913210 0.039810 0.946581
Zn2   Zn    Zn3+2 1.000000 0.586760 0.960200 0.943694
Zn3   Zn    Zn3+2 0.413240 1.000000 0.960200 0.943694
Zn4   Zn    Zn3+2 1.000000 0.413240 0.960200 0.943694
Zn5   Zn    Zn3+2 0.086760 0.500000 0.460200 0.943694
Zn6   Zn    Zn3+2 0.500000 0.086760 0.460200 0.943694
Zn7   Zn    Zn3+2 0.913240 0.500000 0.460200 0.943694
Zn8   Zn    Zn3+2 0.500000 0.913240 0.460200 0.943694
Zn9   Zn    Zn3+2 0.086790 0.500000 0.039810 0.946581
Zn10  Zn    Zn3+2 0.500000 0.086790 0.039810 0.946581
Zn11  Zn    Zn3+2 0.913210 0.500000 0.039810 0.946581
Zn12  Zn    Zn3+2 1.000000 0.413210 0.539810 0.946581
Zn13  Zn    Zn3+2 0.586790 1.000000 0.539810 0.946581
Zn14  Zn    Zn3+2 1.000000 0.586790 0.539810 0.946581
Zn15  Zn    Zn3+2 0.413210 1.000000 0.539810 0.946581
Zn16  Zn    Zn3+2 0.586760 1.000000 0.960200 0.943694

loop_
_geom_bond_atom_site_label_1
_geom_bond_atom_site_label_2
_ccdc_geom_bond_type
C9    C111  A    
C64   C103  A    
O28   Zn8   S    
O12   Zn11  S    
C52   H9    S    
C68   C85   A    
O1    Zn16  S    
C74   F12   S    
C21   C66   T    
O16   Zn3   S    
O22   Zn5   S    
C20   H8    S    
C47   O26   A    
O46   Zn15  S    
C44   O52   A    
O33   Zn1   S    
C65   H22   S    
O5    Zn1   S    
C58   C87   A    
O9    Zn12  S    
C68   C100  A    
C6    H23   S    
C90   C95   A    
O34   Zn6   S    
C40   O19   A    
C16   H4    S    
C59   H16   S    
O1    Zn10  S    
C35   O14   A    
C39   C107  S    
C79   F16   S    
C49   O48   A    
C94   C108  A    
C45   O43   A    
C57   C89   A    
C81   F3    S    
C82   C85   A    
C62   C80   A    
O31   Zn10  S    
C63   H20   S    
C96   C102  A    
O11   Zn14  S    
C79   C84   A    
O44   Zn12  S    
C65   C83   A    
O38   Zn10  S    
O19   Zn4   S    
C14   C115  A    
C39   O38   A    
C89   C109  A    
C21   C30   S    
C62   H19   S    
C46   C118  S    
C42   O37   A    
C17   H5    S    
C90   C113  A    
O26   Zn8   S    
C97   C118  A    
C43   O42   A    
C60   H17   S    
C72   C78   A    
C45   O24   A    
C71   C74   A    
C93   C105  A    
C4    H1    S    
C104  C116  A    
C39   O18   A    
O4    Zn6   S    
C50   O29   A    
O1    Zn1   S    
O3    Zn5   S    
C43   O22   A    
O23   Zn12  S    
O17   Zn4   S    
C64   H21   S    
C19   H7    S    
C6    C107  A    
C13   C28   T    
C10   C112  A    
C2    C27   T    
C100  C120  A    
C36   O35   A    
C1    C27   S    
C78   F15   S    
C26   C110  T    
C55   O2    A    
C37   C109  S    
C81   C86   A    
O14   Zn16  S    
C43   C120  S    
C48   C116  S    
C62   C101  A    
C88   C110  S    
C69   C98   A    
C45   C119  S    
O49   Zn4   S    
O24   Zn6   S    
O34   Zn15  S    
C40   O39   A    
C50   O44   A    
C67   C84   A    
O23   Zn5   S    
O7    Zn10  S    
C61   H18   S    
C11   H31   S    
O48   Zn13  S    
C14   C17   A    
C30   O7    A    
C103  C117  A    
O47   Zn14  S    
C83   F5    S    
C80   C83   A    
C82   F4    S    
C28   C55   S    
C25   C99   T    
C58   C75   A    
C41   C105  S    
O36   Zn1   S    
O18   Zn16  S    
C13   C66   S    
C33   O51   A    
C84   F6    S    
C15   C20   A    
O12   Zn9   S    
O51   Zn2   S    
C22   C31   S    
O27   Zn5   S    
C59   C76   A    
C86   F8    S    
O23   Zn14  S    
C14   H2    S    
C18   H6    S    
C69   H26   S    
O25   Zn7   S    
C8    H28   S    
C6    C11   A    
O35   Zn9   S    
C38   C113  S    
C76   F14   S    
O21   Zn2   S    
C35   O33   A    
C80   F2    S    
C68   H25   S    
O8    Zn11  S    
C7    H27   S    
C100  C103  A    
O43   Zn13  S    
C41   O20   A    
C89   C92   A    
C91   C112  A    
C56   C94   A    
O41   Zn15  S    
C12   H32   S    
C102  C114  A    
C51   O30   A    
C37   O16   A    
C71   F9    S    
O13   Zn15  S    
C26   C33   S    
C4    C9    A    
C10   H30   S    
C60   C78   A    
C57   H14   S    
C36   C111  S    
C54   C72   A    
C52   C93   A    
C32   O11   A    
C36   O15   A    
C59   C91   A    
C41   O36   A    
O12   Zn2   S    
C64   C82   A    
C54   C95   A    
C1    O50   A    
C95   C107  A    
C17   C118  A    
C12   C114  A    
O29   Zn7   S    
C51   O46   A    
C92   C106  A    
C49   C115  S    
C63   C81   A    
C2    C99   S    
C96   C119  A    
C33   O49   A    
C23   C88   T    
C47   O41   A    
C48   O27   A    
C1    O45   A    
C67   C96   A    
C101  C115  A    
C73   C76   A    
C38   O32   A    
C32   O9    A    
C34   O10   A    
C5    C8    A    
C31   O8    A    
C53   C71   A    
O40   Zn14  S    
C55   O4    A    
C58   H15   S    
C46   O25   A    
C40   C106  S    
C46   O40   A    
O23   Zn7   S    
C56   C73   A    
C30   O5    A    
C7    C108  A    
C5    C106  A    
C73   F11   S    
O39   Zn9   S    
C22   C77   T    
C63   C104  A    
C19   C120  A    
O10   Zn13  S    
O34   Zn8   S    
C75   F13   S    
C72   F10   S    
C49   O28   A    
C60   C90   A    
C38   O17   A    
C4    C105  A    
C25   C34   S    
C15   H3    S    
C23   C32   S    
C9    H29   S    
C61   C102  A    
C42   O21   A    
C44   O3    A    
O50   Zn16  S    
C29   C44   S    
O37   Zn11  S    
C3    C20   A    
C8    C109  A    
O2    Zn8   S    
C91   C94   A    
C34   O13   A    
O45   Zn3   S    
C70   F1    S    
O1    Zn3   S    
C61   C79   A    
O15   Zn2   S    
C98   C104  A    
C87   C93   A    
C85   F7    S    
C3    C47   S    
C53   H10   S    
C51   C117  S    
O12   Zn4   S    
C53   C92   A    
C37   O31   A    
C11   C113  A    
O6    Zn9   S    
C97   C101  A    
C48   O47   A    
C52   C70   A    
O32   Zn11  S    
C35   C112  S    
C65   C97   A    
O20   Zn3   S    
C24   C77   S    
C24   C29   T    
C87   C111  A    
O52   Zn7   S    
C7    C10   A    
C12   C18   A    
C70   C75   A    
C5    H12   S    
O42   Zn12  S    
C15   C116  A    
C67   H24   S    
C50   C114  S    
C56   H13   S    
C16   C117  A    
C42   C108  S    
C18   C119  A    
C31   O6    A    
C3    C98   A    
C69   C86   A    
O30   Zn6   S    
C54   H11   S    
O34   Zn13  S    
C57   C74   A    
C16   C19   A    
