data_mof_unit_42037.cif
_audit_creation_date              2012-12-10T17:46:16-0500
_audit_creation_method            fapswitch 2.2
_symmetry_space_group_name_H-M    P1
_symmetry_Int_Tables_number       1
_space_group_crystal_system       triclinic
_cell_length_a                    14.136765
_cell_length_b                    10.63682
_cell_length_c                    9.964013
_cell_angle_alpha                 91.382201
_cell_angle_beta                  91.074071
_cell_angle_gamma                 92.238595
_cell_volume                      1496.42110962

loop_
_atom_site_label
_atom_site_type_symbol
_atom_type_description
_atom_site_fract_x
_atom_site_fract_y
_atom_site_fract_z
_atom_type_partial_charge
C1    C     C_R   0.498338 0.260652 0.497703 0.876795
C2    C     C_R   0.423716 0.056483 0.465334 -0.210596
C3    C     C_R   0.426921 0.928136 0.470338 -0.174113
C4    C     C_R   0.329381 0.499775 0.498936 0.904174
C5    C     C_R   0.510635 0.873460 0.510284 -0.078139
C6    C     C_R   0.349528 0.382458 0.134308 -0.119099
C7    C     C_R   0.263775 0.357640 0.067019 -0.219191
C8    C     C_R   0.259369 0.366587 0.928589 -0.230399
C9    C     C_R   0.344179 0.381234 0.859092 0.015769
C10   C     C_R   0.423925 0.443432 0.925581 0.093194
C11   C     C_R   0.425071 0.443592 0.069631 0.167564
C12   C     C_1   0.772050 0.496216 0.501925 -0.176445
C13   C     C_R   0.573533 0.550554 0.074587 -0.093461
C14   C     C_R   0.574107 0.548733 0.932060 -0.029229
C15   C     C_R   0.508247 0.739727 0.502687 0.836574
C16   C     C_R   0.670621 0.499987 0.500873 0.864313
C17   C     C_1   0.227798 0.497897 0.496943 -0.163637
C18   C     C_1   0.142449 0.496062 0.496998 -0.002230
C19   C     C_1   0.042481 0.494299 0.498294 0.012651
C20   C     C_1   0.957175 0.493609 0.499765 0.010468
C21   C     C_1   0.857282 0.494173 0.501299 -0.014454
C22   C     C_2   0.357167 0.270610 0.771359 0.968379
C23   C     C_R   0.678917 0.148900 0.518873 -0.145186
C24   C     C_2   0.677492 0.799886 0.701126 0.924590
C25   C     C_R   0.764051 0.095924 0.552413 -0.117700
C26   C     C_R   0.764067 0.973381 0.597031 -0.196326
C27   C     C_R   0.679246 0.900221 0.601193 -0.145162
C28   C     C_R   0.594517 0.947081 0.544052 0.046869
C29   C     C_R   0.593417 0.075912 0.517584 0.107984
C30   C     C_R   0.505983 0.128985 0.491214 -0.083783
H1    H     H_    0.357384 0.099460 0.441329 0.171053
H2    H     H_    0.680597 0.246340 0.491254 0.119375
H3    H     H_    0.798225 0.724365 0.637472 0.294656
H4    H     H_    0.203414 0.319667 0.120196 0.167334
H5    H     H_    0.195616 0.329505 0.877086 0.176140
H6    H     H_    0.829313 0.152703 0.552477 0.148700
H7    H     H_    0.829404 0.940005 0.639085 0.148714
H8    H     H_    0.363442 0.871032 0.445557 0.150752
H9    H     H_    0.633664 0.592457 0.130254 0.155423
H10   H     H_    0.356476 0.347447 0.233577 0.191751
H11   H     H_    0.420324 0.104410 0.749667 0.351098
H12   H     H_    0.635685 0.586181 0.882152 0.207670
N1    N     N_R   0.499190 0.498800 0.142780 -0.114658
N2    N     N_R   0.499160 0.498720 0.857170 -0.119734
O1    O     O_R   0.500000 0.316780 0.614690 -0.589300
O2    O     O_R   0.423292 0.182923 0.809427 -0.782103
O3    O     O_2   0.616703 0.799885 0.786478 -0.570129
O4    O     O_R   0.749999 0.714767 0.710695 -0.800554
O5    O     O_R   0.499990 0.316750 0.385360 -0.629420
O6    O     O_R   0.373720 0.500010 0.614690 -0.600649
O7    O     O_R   0.373710 0.499990 0.385360 -0.625624
O8    O     O_R   0.500010 0.683250 0.614640 -0.570015
O9    O     O_R   0.500000 0.683220 0.385310 -0.597020
O10   O     O_R   0.626290 0.500010 0.614640 -0.574859
O11   O     O_R   0.626280 0.499990 0.385310 -0.611199
O12   O     O_2   0.304237 0.248754 0.674336 -0.679586
Zn1   Zn    Zn3+2 0.500010 0.500020 0.653130 1.006322
Zn2   Zn    Zn3+2 0.499990 0.499980 0.346870 0.945685

loop_
_geom_bond_atom_site_label_1
_geom_bond_atom_site_label_2
_ccdc_geom_bond_type
C8    C9    A    
O9    Zn2   S    
C26   H7    S    
C11   N1    A    
C6    C7    A    
C5    C28   A    
C9    C10   A    
C19   C20   T    
C24   C27   S    
C2    C30   A    
N2    Zn1   S    
C14   H12   S    
O1    Zn1   S    
C23   H2    S    
C17   C18   T    
C16   O11   A    
C7    C8    A    
O7    Zn2   S    
C15   O8    A    
C24   O3    D    
C1    O1    A    
C26   C27   A    
C29   C30   A    
H11   O2    S    
C4    C17   S    
C23   C29   A    
C28   C29   A    
C22   O2    S    
C2    C3    A    
C16   O10   A    
C23   C25   A    
C7    H4    S    
C6    H10   S    
C9    C22   S    
C5    C15   S    
C13   H9    S    
C10   C11   A    
C25   H6    S    
C10   N2    A    
C24   O4    S    
C15   O9    A    
C13   N1    A    
C20   C21   S    
C14   N2    A    
C18   C19   S    
O8    Zn1   S    
O11   Zn2   S    
C6    C11   A    
H3    O4    S    
C1    C30   S    
C22   O12   D    
C4    O7    A    
N1    Zn2   S    
C3    C5    A    
C25   C26   A    
C13   C14   A    
O6    Zn1   S    
C1    O5    A    
C12   C21   T    
O10   Zn1   S    
O5    Zn2   S    
C12   C16   S    
C3    H8    S    
C4    O6    A    
C2    H1    S    
C27   C28   A    
C8    H5    S    
