data_mof_unit_30056.cif
_audit_creation_date              2012-10-26T20:39:14-0400
_audit_creation_method            fapswitch 2.2
_symmetry_space_group_name_H-M    P1
_symmetry_Int_Tables_number       1
_space_group_crystal_system       triclinic
_cell_length_a                    14.331361
_cell_length_b                    13.041182
_cell_length_c                    11.734711
_cell_angle_alpha                 100.576981
_cell_angle_beta                  93.633633
_cell_angle_gamma                 90.416574
_cell_volume                      2151.19498783

loop_
_atom_site_label
_atom_site_type_symbol
_atom_type_description
_atom_site_fract_x
_atom_site_fract_y
_atom_site_fract_z
_atom_type_partial_charge
C1    C     C_R   0.502316 0.298718 0.477805 0.545203
C2    C     C_R   0.446592 0.481879 0.847104 0.011016
C3    C     C_R   0.542259 0.518389 0.030837 -0.025685
C4    C     C_R   0.458021 0.477866 0.967968 -0.028043
C5    C     C_R   0.331080 0.500061 0.500170 0.541257
C6    C     C_R   0.668923 0.500029 0.499847 0.545688
C7    C     C_1   0.228813 0.500325 0.500436 -0.050325
C8    C     C_1   0.771219 0.500013 0.499638 -0.047358
C9    C     C_1   0.143396 0.500419 0.500406 -0.053361
C10   C     C_1   0.856650 0.500088 0.499725 -0.050614
C11   C     C_1   0.042749 0.500365 0.500200 -0.012528
C12   C     C_R   0.491540 0.700589 0.522453 0.549786
C13   C     C_1   0.957306 0.500245 0.499970 -0.011699
C14   C     C_R   0.476449 0.814670 0.537554 -0.011946
C15   C     C_R   0.499876 0.183895 0.463741 -0.021655
C16   C     C_R   0.442324 0.017142 0.355022 -0.146626
C17   C     C_R   0.510755 0.984070 0.654742 -0.139912
C18   C     C_R   0.461132 0.122035 0.359420 -0.042682
C19   C     C_R   0.483554 0.879709 0.648284 -0.029723
C20   C     C_R   0.527764 0.135204 0.558876 -0.037682
C21   C     C_R   0.451475 0.860903 0.441009 -0.038873
C22   C     C_R   0.406398 0.797561 0.334125 0.050763
C23   C     C_R   0.504062 0.029313 0.554494 0.007544
C24   C     C_R   0.454464 0.779005 0.232632 -0.079393
C25   C     C_R   0.411509 0.722330 0.130832 -0.101213
C26   C     C_R   0.320120 0.683458 0.129600 -0.103766
C27   C     C_R   0.272331 0.700048 0.231350 -0.111051
C28   C     C_R   0.315445 0.756885 0.333874 -0.074999
C29   C     C_R   0.597868 0.186985 0.650254 0.047954
C30   C     C_R   0.693145 0.181096 0.628885 -0.091653
C31   C     C_R   0.760807 0.225138 0.715370 -0.111874
C32   C     C_R   0.733714 0.275466 0.823451 -0.112980
C33   C     C_R   0.638924 0.283426 0.844442 -0.110008
C34   C     C_R   0.464667 0.969134 0.449905 0.006160
C35   C     C_R   0.571112 0.238893 0.758361 -0.060847
C36   C     C_R   0.415450 0.860099 0.732332 0.029481
C37   C     C_R   0.428715 0.782903 0.800260 -0.060287
C38   C     C_R   0.353025 0.747092 0.852402 -0.104086
C39   C     C_R   0.267053 0.796404 0.849969 -0.101458
C40   C     C_R   0.255517 0.879749 0.791368 -0.117640
C41   C     C_R   0.328617 0.910161 0.730863 -0.106314
C42   C     C_R   0.451442 0.156697 0.246367 0.063656
C43   C     C_R   0.532411 0.169359 0.188626 -0.061727
C44   C     C_R   0.525656 0.174603 0.070704 -0.116859
C45   C     C_R   0.387961 0.436438 0.028812 -0.051561
C46   C     C_R   0.438213 0.167553 0.009888 -0.098956
C47   C     C_R   0.357017 0.158906 0.067677 -0.112482
C48   C     C_R   0.363450 0.153286 0.185650 -0.105429
C49   C     C_R   0.295595 0.394094 0.972744 0.002908
C50   C     C_R   0.289356 0.316956 0.871347 -0.105187
C51   C     C_R   0.202486 0.276289 0.821913 -0.113878
C52   C     C_R   0.120639 0.311192 0.873646 -0.101588
C53   C     C_R   0.125644 0.386333 0.975332 -0.111781
C54   C     C_R   0.212429 0.427107 0.025019 -0.110573
C55   C     C_R   0.703683 0.601502 0.027051 0.001295
C56   C     C_R   0.612365 0.559347 0.970181 -0.066063
C57   C     C_R   0.787384 0.557447 0.986695 -0.102279
C58   C     C_R   0.873702 0.597479 0.038896 -0.110332
C59   C     C_R   0.877232 0.682673 0.130781 -0.098241
C60   C     C_R   0.794459 0.728558 0.169718 -0.106671
C61   C     C_R   0.708109 0.688715 0.117466 -0.104656
C62   C     C_R   0.404301 0.438496 0.149407 0.069106
C63   C     C_R   0.596780 0.558214 0.850183 0.033905
C64   C     C_R   0.553196 0.517738 0.152383 0.036604
Cu1   Cu    Cu3+1 0.506360 0.507730 0.615930 0.920526
Cu2   Cu    Cu3+1 0.493640 0.492270 0.384070 0.937931
H1    H     H_    0.411687 0.973046 0.274053 0.129759
H2    H     H_    0.201887 0.669360 0.230643 0.095406
H3    H     H_    0.277972 0.770224 0.412419 0.097206
H4    H     H_    0.714910 0.141273 0.545755 0.098264
H5    H     H_    0.834234 0.219513 0.698938 0.101997
H6    H     H_    0.786225 0.307890 0.890984 0.098659
H7    H     H_    0.618139 0.323345 0.927757 0.115614
H8    H     H_    0.498088 0.244957 0.775124 0.091395
H9    H     H_    0.495864 0.746895 0.808486 0.137065
H10   H     H_    0.360219 0.679040 0.891699 0.102316
H11   H     H_    0.209223 0.769222 0.892273 0.107744
H12   H     H_    0.522347 0.032947 0.739727 0.116415
H13   H     H_    0.188836 0.917948 0.788774 0.103926
H14   H     H_    0.316384 0.970181 0.679178 0.106576
H15   H     H_    0.600892 0.168923 0.233283 0.100026
H16   H     H_    0.588532 0.179658 0.025684 0.103545
H17   H     H_    0.433526 0.166549 0.917613 0.095857
H18   H     H_    0.289340 0.153040 0.020236 0.123483
H19   H     H_    0.300540 0.140808 0.228187 0.102162
H20   H     H_    0.351478 0.287763 0.830322 0.086510
H21   H     H_    0.198730 0.217302 0.743661 0.102227
H22   H     H_    0.053402 0.279584 0.835351 0.100790
H23   H     H_    0.382534 0.455314 0.797286 0.138294
H24   H     H_    0.062249 0.412734 0.016048 0.099278
H25   H     H_    0.214481 0.484434 0.104492 0.096120
H26   H     H_    0.785783 0.492456 0.914623 0.104493
H27   H     H_    0.937841 0.562726 0.007776 0.099204
H28   H     H_    0.944076 0.713621 0.171145 0.102241
H29   H     H_    0.797184 0.795266 0.240062 0.104469
H30   H     H_    0.644794 0.725647 0.147204 0.094030
H31   H     H_    0.616279 0.548420 0.202336 0.137461
H32   H     H_    0.650528 0.589028 0.804508 0.135682
H33   H     H_    0.351629 0.406468 0.195612 0.135135
H34   H     H_    0.524240 0.810976 0.232612 0.091449
H35   H     H_    0.450189 0.708962 0.053814 0.105779
H36   H     H_    0.286365 0.640062 0.050245 0.102183
N1    N     N_R   0.515930 0.519350 0.790130 -0.241815
N2    N     N_R   0.484070 0.480650 0.209870 -0.230279
O1    O     O_R   0.504510 0.354460 0.582000 -0.484626
O2    O     O_R   0.495490 0.645540 0.418000 -0.480548
O3    O     O_R   0.493770 0.341410 0.386200 -0.489192
O4    O     O_R   0.506230 0.658590 0.613800 -0.505984
O5    O     O_R   0.381420 0.506530 0.597920 -0.487573
O6    O     O_R   0.618580 0.493470 0.402080 -0.489681
O7    O     O_R   0.370680 0.493470 0.402120 -0.493238
O8    O     O_R   0.629320 0.506530 0.597880 -0.486064

loop_
_geom_bond_atom_site_label_1
_geom_bond_atom_site_label_2
_ccdc_geom_bond_type
C15   C18   A    
C55   C56   S    
C35   H8    S    
C57   H26   S    
C28   H3    S    
Cu2   O3    S    
C41   H14   S    
C61   H30   S    
C32   H6    S    
C38   H10   S    
C53   C54   A    
C26   C27   A    
C29   C30   A    
C39   H11   S    
C14   C21   A    
C36   C37   A    
C58   H27   S    
C63   H32   S    
C44   H16   S    
C19   C36   S    
C18   C42   S    
C30   C31   A    
C49   C54   A    
C45   C62   A    
C42   C48   A    
C64   N2    A    
C27   H2    S    
C16   C34   A    
C47   C48   A    
C1    C15   S    
C59   H28   S    
Cu2   O7    S    
Cu1   O4    S    
C20   C29   S    
C31   H5    S    
C37   H9    S    
C59   C60   A    
C22   C28   A    
C21   C22   S    
C6    O6    A    
C36   C41   A    
Cu2   O2    S    
Cu1   O1    S    
C30   H4    S    
C44   C46   A    
C62   N2    A    
C4    C45   A    
C15   C20   A    
C40   H13   S    
C51   C52   A    
Cu2   N2    S    
C52   H22   S    
C24   C25   A    
C63   N1    A    
C51   H21   S    
C39   C40   A    
C5    C7    S    
C17   C19   A    
C6    C8    S    
C21   C34   A    
C5    O7    A    
C25   C26   A    
C3    C64   A    
C62   H33   S    
C60   C61   A    
C2    H23   S    
C2    C4    A    
C43   C44   A    
Cu1   O8    S    
C37   C38   A    
C3    C56   A    
C31   C32   A    
C20   C23   A    
C45   C49   S    
C23   C34   A    
C50   C51   A    
C56   C63   A    
C16   H1    S    
C17   C23   A    
C47   H18   S    
Cu2   O6    S    
C9    C11   S    
Cu1   O5    S    
C1    O3    A    
C33   H7    S    
C64   H31   S    
C12   C14   S    
C49   C50   A    
C55   C57   A    
C43   H15   S    
C22   C24   A    
C42   C43   A    
Cu1   N1    S    
C3    C4    A    
C53   H24   S    
C52   C53   A    
C12   O4    A    
C7    C9    T    
C46   C47   A    
C40   C41   A    
C24   H34   S    
C6    O8    A    
C14   C19   A    
C16   C18   A    
C10   C13   S    
C29   C35   A    
C32   C33   A    
C58   C59   A    
C54   H25   S    
C26   H36   S    
C12   O2    A    
C11   C13   T    
C25   H35   S    
C57   C58   A    
C38   C39   A    
C5    O5    A    
C2    N1    A    
C55   C61   A    
C17   H12   S    
C33   C35   A    
C50   H20   S    
C46   H17   S    
C60   H29   S    
C8    C10   T    
Cu1   Cu2   S    
C27   C28   A    
C48   H19   S    
C1    O1    A    
