data_mof_unit_67155.cif
_audit_creation_date              2013-03-05T15:58:58-0500
_audit_creation_method            fapswitch 2.2
_symmetry_space_group_name_H-M    P1
_symmetry_Int_Tables_number       1
_space_group_crystal_system       triclinic
_cell_length_a                    8.191143
_cell_length_b                    13.176383
_cell_length_c                    15.063647
_cell_angle_alpha                 96.124417
_cell_angle_beta                  98.200014
_cell_angle_gamma                 99.497201
_cell_volume                      1572.95151718

loop_
_atom_site_label
_atom_site_type_symbol
_atom_site_description
_atom_site_fract_x
_atom_site_fract_y
_atom_site_fract_z
_atom_type_partial_charge
P1    P     P_3+3 0.998730 0.403530 0.291970 0.472025
O1    O     O_2   0.827880 0.435260 0.277750 -0.369082
O2    O     O_3   0.100280 0.438960 0.391170 -0.432468
O3    O     O_3   0.625580 0.634130 0.333250 -0.395578
O4    O     O_2   0.721208 0.561304 0.181873 -0.349661
O5    O     O_3   0.942890 0.268159 0.273020 -0.516999
O6    O     O_3   0.647046 0.745136 0.184130 -0.452352
H1    H     H_    0.704626 0.839619 0.306435 0.140237
C1    C     C_3   0.584703 0.915897 0.203951 -0.896518
H2    H     H_    0.708773 0.957750 0.195796 0.269769
H3    H     H_    0.506047 0.895929 0.136198 0.291575
P2    P     P_3+3 0.687380 0.751030 0.571310 0.511588
P3    P     P_3+3 0.096888 0.820718 0.364462 0.483536
O7    O     O_2   0.857130 0.766340 0.543890 -0.362883
O8    O     O_3   0.056550 0.691050 0.379010 -0.339117
O9    O     O_2   0.960045 0.863492 0.408690 -0.358252
O10   O     O_3   0.708620 0.793134 0.689295 -0.580668
O11   O     O_3   0.019355 0.822203 0.250024 -0.519850
C2    C     C_3   0.148713 0.847121 0.200029 0.791882
H4    H     H_    0.271995 0.847581 0.238882 -0.128922
C3    C     C_3   0.150300 0.956363 0.173271 -0.769750
H5    H     H_    0.253882 0.975843 0.134762 0.222805
C4    C     C_3   0.277104 0.772849 0.651683 0.296780
H6    H     H_    0.351953 0.726941 0.613059 0.100611
H7    H     H_    0.156969 0.773252 0.607729 0.139409
C5    C     C_3   0.373887 0.884489 0.678075 -0.641522
H8    H     H_    0.500403 0.888354 0.663861 0.148931
H9    H     H_    0.323778 0.938497 0.635728 0.243710
Ba1   Ba    Ba6+2 0.843750 0.550210 0.455600 1.630799
C6    C     C_3   0.936906 0.230889 0.356233 0.473847
H10   H     H_    0.841630 0.262730 0.390058 0.078909
H11   H     H_    0.059503 0.253303 0.400700 0.113472
C7    C     C_3   0.893329 0.113270 0.340512 -0.987041
H12   H     H_    0.755855 0.089137 0.321517 0.266814
H13   H     H_    0.936312 0.080220 0.402239 0.226771
H14   H     H_    0.956545 0.082024 0.286467 0.275837
C8    C     C_3   0.832918 0.761067 0.748281 0.329244
H15   H     H_    0.941194 0.749125 0.714677 0.072061
C9    C     C_3   0.887068 0.845971 0.832964 -0.652544
H16   H     H_    0.791153 0.842062 0.878284 0.238171
H17   H     H_    0.892968 0.924481 0.815109 0.272415
P4    P     P_3+3 0.190990 0.596560 0.708040 0.492612
O12   O     O_2   0.361830 0.564780 0.722310 -0.318439
O13   O     O_3   0.089430 0.561130 0.608830 -0.415868
O14   O     O_3   0.564130 0.365960 0.666760 -0.300006
O15   O     O_3   0.245273 0.730547 0.730038 -0.556246
P5    P     P_3+3 0.094443 0.176201 0.618161 0.575416
O16   O     O_3   0.601940 0.368240 0.453770 -0.375249
O17   O     O_3   0.133170 0.309040 0.621000 -0.416878
O18   O     O_2   0.222860 0.134190 0.565758 -0.284528
O19   O     O_3   0.155467 0.147533 0.726510 -0.404892
Ba2   Ba    Ba6+2 0.346090 0.449880 0.544410 1.619575
P6    P     P_3+3 0.591293 0.621699 0.215650 0.512002
C10   C     C_3   0.604391 0.818549 0.247112 0.499692
H18   H     H_    0.487887 0.788257 0.272143 0.004670
H19   H     H_    0.526229 0.967904 0.247479 0.216435
O20   O     O_3   0.587780 0.631850 0.546230 -0.352568
C11   C     C_3   0.365278 0.260164 0.268836 0.261184
H20   H     H_    0.237284 0.212831 0.249390 0.115148
H21   H     H_    0.356725 0.332619 0.311814 0.049842
C12   C     C_3   0.429821 0.290891 0.183709 -0.071697
H22   H     H_    0.333135 0.322909 0.142211 0.118686
H23   H     H_    0.541790 0.353151 0.202604 0.122601
P7    P     P_3+3 0.509044 0.233943 0.428184 0.444748
O21   O     O_2   0.332590 0.233690 0.456160 -0.395084
O22   O     O_3   0.470975 0.199268 0.310965 -0.560157
H24   H     H_    0.178030 0.012711 0.236059 0.149291
C13   C     C_3   0.119020 0.222557 0.789901 0.441038
H25   H     H_    0.209494 0.296209 0.793481 0.133207
H26   H     H_    0.989693 0.237602 0.771949 -0.050936
C14   C     C_3   0.135825 0.181046 0.880707 -0.637991
H27   H     H_    0.021127 0.124393 0.883808 0.205939
H28   H     H_    0.241738 0.139133 0.887544 0.279305
P8    P     P_3+3 0.603075 0.378059 0.785156 0.516305
C15   C     C_3   0.650503 0.202832 0.838452 0.461203
H29   H     H_    0.778967 0.248918 0.853550 -0.059695
O23   O     O_2   0.484474 0.447932 0.817849 -0.388147
O24   O     O_3   0.523362 0.261342 0.822150 -0.505062
H30   H     H_    0.716260 0.093312 0.930609 0.225967
C16   C     C_3   0.627902 0.148235 0.921598 -0.932576
H31   H     H_    0.499256 0.104882 0.916322 0.286013
H32   H     H_    0.653067 0.206116 0.983007 0.272707
C17   C     C_R   0.825345 0.437677 0.831391 0.132014
C18   C     C_R   0.891602 0.451892 0.924769 -0.019558
C19   C     C_R   0.034729 0.462378 0.110765 0.067087
C20   C     C_R   0.866748 0.416199 0.078329 -0.000206
C21   C     C_R   0.794937 0.415905 0.988758 -0.221975
C22   C     C_R   0.108742 0.465637 0.203314 0.229566
H33   H     H_    0.787940 0.378202 0.120834 0.170068
H34   H     H_    0.663161 0.383359 0.969843 0.196282
C23   C     C_R   0.275532 0.515701 0.230264 -0.519481
C24   C     C_R   0.087000 0.531850 0.797161 0.210838
C25   C     C_R   0.157810 0.543300 0.891144 0.013353
C26   C     C_R   0.060780 0.500210 0.954415 0.080330
C27   C     C_R   0.322861 0.594768 0.924082 0.024162
C28   C     C_R   0.395769 0.595772 0.013872 -0.087170
C29   C     C_R   0.302666 0.552662 0.076962 0.030147
C30   C     C_R   0.132371 0.506030 0.047730 0.116276
C31   C     C_R   0.373278 0.557460 0.168933 0.138278
C32   C     C_R   0.927720 0.471219 0.769145 -0.458688
H35   H     H_    0.525689 0.632800 0.033218 0.188487
H36   H     H_    0.399147 0.633846 0.880819 0.174542
H37   H     H_    0.331871 0.520054 0.300344 0.181541
H38   H     H_    0.876744 0.457580 0.697708 0.194334
C33   C     C_R   0.767986 0.178805 0.537798 -0.500419
C34   C     C_R   0.423175 0.811737 0.457213 -0.482506
C35   C     C_R   0.385962 0.984580 0.428992 -0.192257
C36   C     C_R   0.320650 0.878002 0.420315 0.199026
C37   C     C_R   0.586496 0.848375 0.506278 0.259387
C38   C     C_R   0.655252 0.959227 0.514776 -0.223154
C39   C     C_R   0.550277 0.027255 0.475880 -0.011328
C40   C     C_R   0.611682 0.137619 0.487136 0.312588
C41   C     C_R   0.875624 0.115432 0.568722 0.102465
C42   C     C_R   0.822976 0.007670 0.559233 0.259614
H39   H     H_    0.305297 0.034134 0.400625 0.155589
H40   H     H_    0.812456 0.261916 0.547091 0.158554
H41   H     H_    0.371652 0.729807 0.451174 0.158406
C43   C     C_2   0.384857 0.924204 0.775824 1.248194
O25   O     O_2   0.299060 0.986795 0.797635 -0.611326
O26   O     O_R   0.490985 0.887560 0.841163 -0.773308
H42   H     H_    0.487726 0.918885 0.905079 0.311756
C44   C     C_2   0.754705 0.663381 0.778919 0.940485
O27   O     O_2   0.683312 0.590949 0.722273 -0.568913
O28   O     O_R   0.757882 0.657257 0.871544 -0.788463
H43   H     H_    0.682163 0.595073 0.885727 0.338041
C45   C     C_2   0.053400 0.844047 0.888159 1.219426
O29   O     O_2   0.112582 0.764952 0.886050 -0.609475
O30   O     O_R   0.138984 0.934385 0.943532 -0.771539
H44   H     H_    0.251883 0.926065 0.976131 0.339842
N1    N     N_R   0.472450 0.202061 0.131508 0.273876
O31   O     O_R   0.357756 0.139685 0.073110 -0.408122
O32   O     O_R   0.619906 0.177916 0.150861 -0.372565
C46   C     C_2   0.171637 0.265743 0.958656 1.042361
O33   O     O_2   0.298273 0.331902 0.967693 -0.625300
O34   O     O_R   0.069055 0.265986 0.024762 -0.784047
H45   H     H_    0.964229 0.211131 0.008963 0.317253
C47   C     C_2   0.641720 0.125748 0.757741 0.904731
O35   O     O_2   0.540044 0.122993 0.689271 -0.584963
O36   O     O_R   0.751212 0.056368 0.762192 -0.839002
H46   H     H_    0.720166 0.000180 0.709345 0.338920
N2    N     N_R   0.125173 0.770267 0.119796 0.231160
O37   O     O_R   0.989569 0.699792 0.098325 -0.307970
O38   O     O_R   0.240675 0.772131 0.069000 -0.468504
N3    N     N_R   0.946925 0.952641 0.595928 0.264043
O39   O     O_R   0.074219 0.947733 0.555160 -0.392956
O40   O     O_R   0.974866 0.951439 0.682171 -0.396340
C48   C     C_2   0.988996 0.970448 0.118254 1.195569
O41   O     O_2   0.887116 0.895931 0.077111 -0.578975
O42   O     O_R   0.957027 0.070716 0.114219 -0.768765
H47   H     H_    0.841852 0.070715 0.079280 0.333122

loop_
_geom_bond_atom_site_label_1
_geom_bond_atom_site_label_2
_geom_bond_distance
_ccdc_geom_bond_type
C25   C26   1.430059 A    
P2    Ba1   3.528682 S    
C33   H40   1.082886 S    
C27   C28   1.396223 A    
C18   C21   1.404369 A    
P8    C17   1.861851 S    
O30   H44   1.011811 S    
C29   C30   1.414720 A    
O34   H45   1.008237 S    
C9    H17   1.091512 S    
C19   C20   1.403827 A    
P6    C31   1.848328 S    
C47   O36   1.382425 S    
C5    H8    1.081937 S    
C45   O29   1.219101 D    
P3    O11   1.753406 S    
O1    Ba1   2.908305 S    
C3    C48   1.506119 S    
O4    P6    1.540152 D    
C2    C3    1.534160 S    
O11   C2    1.401170 S    
N2    O38   1.297702 A    
C6    H10   1.104796 S    
O3    P6    1.739213 S    
O2    Ba2   2.812640 S    
O12   Ba2   2.908865 S    
P7    C40   1.867072 S    
C26   C30   1.432721 A    
C11   H21   1.112934 S    
C32   H38   1.081861 S    
C7    H14   1.104316 S    
C12   H23   1.105714 S    
P1    O1    1.518498 D    
P4    O15   1.731607 S    
C4    C5    1.533261 S    
O2    Ba1   2.966604 S    
C43   O25   1.217097 D    
C19   C30   1.432986 A    
C38   C39   1.452180 A    
C11   O22   1.406168 S    
C48   O41   1.223437 D    
C13   H25   1.110861 S    
P8    O23   1.539102 D    
P2    O10   1.779428 S    
C35   C36   1.402975 A    
C15   C16   1.528055 S    
C38   C42   1.449249 A    
O3    Ba1   2.821436 S    
C6    C7    1.516692 S    
C27   H36   1.077899 S    
O13   Ba2   2.967439 S    
P1    C22   1.896943 S    
C2    N2    1.459900 S    
C9    C45   1.496983 S    
C3    H5    1.105700 S    
C3    H24   1.109347 S    
P4    O13   1.584847 S    
P3    C36   1.898700 S    
P2    C37   1.916952 S    
C29   C31   1.413724 A    
O8    Ba1   2.788602 S    
P5    O18   1.540055 D    
C8    C9    1.563935 S    
Ba1   O16   2.841838 S    
P1    O5    1.748466 S    
C28   H35   1.079502 S    
C16   H32   1.105914 S    
C15   C47   1.484047 S    
H1    C10   1.101036 S    
C9    H16   1.110454 S    
C14   H28   1.101362 S    
C20   C21   1.392219 A    
C16   H31   1.100375 S    
P5    O19   1.737102 S    
O14   Ba2   2.820793 S    
C11   H20   1.109771 S    
H30   C16   1.109847 S    
O14   P8    1.751630 S    
P1    O2    1.584693 S    
C42   N3    1.424941 S    
N1    O32   1.300465 A    
C15   H29   1.104149 S    
C8    H15   1.106669 S    
C23   H37   1.081696 S    
C17   C18   1.414447 A    
C22   C23   1.397753 A    
C4    H6    1.108768 S    
O17   Ba2   2.789165 S    
C28   C29   1.409403 A    
P1    Ba1   3.479685 S    
C7    H12   1.105228 S    
C1    H19   1.109481 S    
C18   C26   1.413063 A    
C1    H3    1.106871 S    
C35   H39   1.080216 S    
C12   N1    1.458438 S    
P2    O20   1.623903 S    
N3    O40   1.288857 A    
O5    C6    1.398485 S    
C33   C40   1.385538 A    
Ba1   O20   2.943563 S    
C17   C32   1.402911 A    
P3    O8    1.729332 S    
Ba1   O13   2.811904 S    
C46   O33   1.220834 D    
C21   H34   1.078716 S    
P4    O12   1.518743 D    
O10   C8    1.403087 S    
O7    Ba1   2.989670 S    
C44   O28   1.402957 S    
O26   H42   1.012053 S    
C24   C32   1.394839 A    
C46   O34   1.391604 S    
C41   C42   1.399858 A    
C1    H2    1.103247 S    
C19   C22   1.431957 A    
C33   C41   1.378556 A    
P5    C41   1.851152 S    
C10   H18   1.105092 S    
C45   O30   1.396449 S    
P4    Ba2   3.480234 S    
C39   C40   1.441567 A    
C48   O42   1.394461 S    
C35   C39   1.421583 A    
C5    C43   1.494101 S    
P2    O7    1.494553 D    
N3    O39   1.290322 A    
C20   H33   1.075630 S    
C14   C46   1.491428 S    
O36   H46   1.000441 S    
P5    O17   1.721362 S    
C47   O35   1.223012 D    
C5    H9    1.095614 S    
P7    O21   1.561771 D    
C2    H4    1.091308 S    
N1    O31   1.298903 A    
C14   H27   1.109335 S    
C34   H41   1.081452 S    
O42   H47   1.012617 S    
C6    H11   1.101078 S    
C25   C27   1.402911 A    
C34   C36   1.410288 A    
C11   C12   1.523579 S    
C13   C14   1.523151 S    
C24   C25   1.433452 A    
C7    H13   1.105352 S    
P4    C24   1.893568 S    
O19   C13   1.398386 S    
C4    H7    1.106054 S    
C12   H22   1.105113 S    
C15   O24   1.404152 S    
C43   O26   1.397648 S    
O16   P7    1.784751 S    
Ba2   O20   2.841318 S    
C8    C44   1.489688 S    
O16   Ba2   2.942819 S    
C13   H26   1.110693 S    
P8    O24   1.748523 S    
P3    O9    1.536014 D    
C37   C38   1.461190 A    
C4    O15   1.397151 S    
O6    P6    1.749539 S    
C1    C10   1.519968 S    
O6    C10   1.402910 S    
C23   C31   1.404067 A    
C44   O27   1.216828 D    
N2    O37   1.301444 A    
Ba1   Ba2   4.506562 S    
Ba2   O21   2.989996 S    
P7    O22   1.745742 S    
O28   H43   1.004553 S    
C34   C37   1.413394 A    
