data_mof_unit_42607.cif
_audit_creation_date              2012-12-11T18:13:20-0500
_audit_creation_method            fapswitch 2.2
_symmetry_space_group_name_H-M    P1
_symmetry_Int_Tables_number       1
_space_group_crystal_system       triclinic
_cell_length_a                    8.164376
_cell_length_b                    12.659632
_cell_length_c                    18.759541
_cell_angle_alpha                 99.759124
_cell_angle_beta                  91.212914
_cell_angle_gamma                 98.520783
_cell_volume                      1887.66616831

loop_
_atom_site_label
_atom_site_type_symbol
_atom_type_description
_atom_site_fract_x
_atom_site_fract_y
_atom_site_fract_z
_atom_type_partial_charge
Ba1   Ba    Ba6+2 0.852780 0.548340 0.465070 1.637767
Ba2   Ba    Ba6+2 0.337060 0.451750 0.534940 1.637415
C1    C     C_3   0.580438 0.899214 0.253314 -0.413083
C2    C     C_3   0.631772 0.818489 0.297646 0.342360
C3    C     C_3   0.460527 0.273865 0.314118 0.309806
C4    C     C_3   0.437105 0.236188 0.232671 -0.399057
C5    C     C_3   0.062735 0.238162 0.734991 0.363693
C6    C     C_3   0.081699 0.213433 0.811040 -0.354007
C7    C     C_3   0.557644 0.180152 0.702242 0.341955
C8    C     C_3   0.609580 0.100920 0.747663 -0.410588
C9    C     C_R   0.997178 0.442306 0.047082 0.007804
C10   C     C_R   0.893661 0.390793 0.094333 0.031760
C11   C     C_R   0.729972 0.345538 0.070914 -0.083484
C12   C     C_3   0.128793 0.759051 0.264987 0.362583
C13   C     C_R   0.669575 0.351291 0.001566 -0.086909
C14   C     C_R   0.772175 0.401312 0.953806 0.031114
C15   C     C_R   0.936667 0.447170 0.976384 0.014322
C16   C     C_R   0.712618 0.404884 0.883761 -0.111641
C17   C     C_R   0.815550 0.451975 0.834332 -0.041954
C18   C     C_R   0.979760 0.502426 0.857543 -0.002793
C19   C     C_R   0.039716 0.498764 0.928749 -0.006357
C20   C     C_R   0.760120 0.448351 0.761939 -0.007199
C21   C     C_R   0.868651 0.490275 0.713551 -0.294124
C22   C     C_R   0.025776 0.548114 0.735902 0.034698
C23   C     C_3   0.107589 0.781754 0.188535 -0.361161
C24   C     C_R   0.082391 0.558170 0.810454 -0.044576
C25   C     C_R   0.160772 0.488779 0.070442 -0.007521
C26   C     C_R   0.218653 0.489281 0.142538 -0.005557
C27   C     C_R   0.111915 0.441720 0.191523 -0.043671
C28   C     C_R   0.953384 0.387144 0.164690 -0.041811
C29   C     C_R   0.237392 0.618834 0.840258 -0.018204
C30   C     C_R   0.304764 0.601806 0.906763 0.011415
C31   C     C_R   0.203758 0.544605 0.952058 0.010241
C32   C     C_R   0.264777 0.538334 0.022427 0.016283
C33   C     C_R   0.470373 0.644636 0.930395 -0.075798
C34   C     C_3   0.235751 0.785300 0.616346 0.288914
C35   C     C_R   0.532120 0.634377 0.998250 -0.081356
C36   C     C_R   0.429183 0.584066 0.045330 0.029259
C37   C     C_R   0.382784 0.538780 0.165603 -0.044808
C38   C     C_R   0.487829 0.581926 0.115564 -0.107213
C39   C     C_R   0.435748 0.546313 0.238588 0.000075
C40   C     C_R   0.326315 0.506614 0.287595 -0.301144
C41   C     C_R   0.166860 0.452685 0.265713 0.043620
C42   C     C_R   0.765232 0.182515 0.528821 -0.277463
C43   C     C_R   0.429217 0.806736 0.468634 -0.285531
C44   C     C_R   0.402768 0.983866 0.443669 -0.105668
C45   C     C_3   0.255326 0.908244 0.632165 -0.330582
C46   C     C_R   0.338252 0.875287 0.439426 -0.012637
C47   C     C_R   0.578318 0.847812 0.508562 0.069032
C48   C     C_R   0.643038 0.960054 0.516322 -0.059063
C49   C     C_R   0.554539 0.028047 0.482045 -0.061560
C50   C     C_R   0.618084 0.139237 0.488618 0.045013
C51   C     C_R   0.857160 0.116308 0.559499 -0.012800
C52   C     C_R   0.794112 0.006503 0.555817 -0.093840
C53   C     C_3   0.960850 0.212642 0.380878 0.278930
C54   C     C_3   0.945766 0.089944 0.364381 -0.351859
C55   C     C_3   0.736795 0.711634 0.683154 0.296722
C56   C     C_3   0.794898 0.758801 0.761325 -0.396686
H1    H     H_    0.724174 0.861719 0.341088 0.078187
H2    H     H_    0.347118 0.939850 0.677893 0.122621
H3    H     H_    0.298633 0.942665 0.584352 0.072295
H4    H     H_    0.134586 0.934233 0.646808 0.144042
H5    H     H_    0.841361 0.235988 0.397986 0.002491
H6    H     H_    0.056553 0.243235 0.425219 0.082739
H7    H     H_    0.850285 0.057158 0.320297 0.114917
H8    H     H_    0.909450 0.054935 0.412899 0.087013
H9    H     H_    0.066456 0.066162 0.347282 0.141971
H10   H     H_    0.839131 0.676436 0.655146 0.021611
H11   H     H_    0.628349 0.647302 0.682587 0.054265
H12   H     H_    0.528331 0.964136 0.288963 0.103631
H13   H     H_    0.916953 0.811359 0.762722 0.170456
H14   H     H_    0.806760 0.692986 0.792357 0.062077
H15   H     H_    0.704750 0.808448 0.787902 0.122928
H16   H     H_    0.520084 0.784362 0.323709 -0.049035
H17   H     H_    0.485093 0.857080 0.210864 0.115641
H18   H     H_    0.342562 0.297056 0.335048 0.017782
H19   H     H_    0.560002 0.345403 0.324766 0.059125
H20   H     H_    0.333845 0.167116 0.220281 0.130309
H21   H     H_    0.407491 0.303316 0.206019 0.056720
H22   H     H_    0.552691 0.209899 0.210743 0.118592
H23   H     H_    0.688953 0.936054 0.226470 0.132206
H24   H     H_    0.147570 0.715973 0.149002 0.071765
H25   H     H_    0.142979 0.316104 0.732277 0.092165
H26   H     H_    0.931527 0.246579 0.724718 -0.076452
H27   H     H_    0.213660 0.210100 0.824544 0.153114
H28   H     H_    0.038935 0.277531 0.850913 0.066751
H29   H     H_    0.006349 0.134176 0.814794 0.120199
H30   H     H_    0.669186 0.213980 0.675835 -0.052497
H31   H     H_    0.466130 0.135598 0.658860 0.080846
H32   H     H_    0.703521 0.144397 0.790341 0.114533
H33   H     H_    0.663647 0.036070 0.712814 0.093830
H34   H     H_    0.048112 0.681822 0.268845 0.094876
H35   H     H_    0.500838 0.063712 0.774214 0.147589
H36   H     H_    0.647774 0.306646 0.106548 0.063171
H37   H     H_    0.542343 0.316170 0.985178 0.074354
H38   H     H_    0.826742 0.481813 0.657484 0.066538
H39   H     H_    0.585525 0.369484 0.868354 0.110004
H40   H     H_    0.872348 0.344193 0.198587 0.097612
H41   H     H_    0.554015 0.685802 0.896359 0.047009
H42   H     H_    0.659711 0.668601 0.014662 0.074308
H43   H     H_    0.615129 0.616969 0.130928 0.109200
H44   H     H_    0.259883 0.749854 0.274560 -0.075002
H45   H     H_    0.368024 0.514812 0.343669 0.072854
H46   H     H_    0.329396 0.032942 0.418613 0.101724
H47   H     H_    0.866610 0.958999 0.582635 0.104785
H48   H     H_    0.813875 0.267663 0.532450 0.064191
H49   H     H_    0.378143 0.721883 0.464305 0.070470
H50   H     H_    0.975583 0.786012 0.175821 0.151522
H51   H     H_    0.184007 0.860035 0.183356 0.112867
H52   H     H_    0.355985 0.759934 0.602390 -0.000697
H53   H     H_    0.143741 0.755370 0.570371 0.073853
O1    O     O_2   0.873090 0.425890 0.325140 -0.466172
O2    O     O_3   0.692017 0.794978 0.650253 -0.641439
O3    O     O_3   0.084129 0.845077 0.314667 -0.598782
O4    O     O_2   0.316610 0.574140 0.674900 -0.483824
O5    O     O_3   0.067290 0.565720 0.585630 -0.498367
O6    O     O_3   0.530210 0.372990 0.631200 -0.463774
O7    O     O_3   0.184175 0.747157 0.678954 -0.609682
O8    O     O_3   0.611340 0.366290 0.463630 -0.477940
O9    O     O_3   0.108550 0.314140 0.595200 -0.484808
O10   O     O_2   0.197868 0.121286 0.551716 -0.482409
O11   O     O_3   0.110239 0.153516 0.685110 -0.596668
O12   O     O_3   0.122420 0.434370 0.414380 -0.495806
O13   O     O_3   0.578370 0.633800 0.536380 -0.487009
O14   O     O_2   0.341510 0.231850 0.465510 -0.468088
O15   O     O_3   0.504129 0.188765 0.345872 -0.650826
O16   O     O_2   0.417948 0.455634 0.757092 -0.507406
O17   O     O_3   0.482656 0.258618 0.746920 -0.595248
O18   O     O_3   0.659500 0.627100 0.368810 -0.473803
O19   O     O_2   0.778685 0.546042 0.244375 -0.497627
O20   O     O_3   0.002222 0.252966 0.317762 -0.639233
O21   O     O_3   0.704775 0.740210 0.251972 -0.598251
O22   O     O_2   0.848200 0.768190 0.534530 -0.473741
O23   O     O_3   0.081160 0.685950 0.404810 -0.487752
O24   O     O_2   0.999769 0.879481 0.449275 -0.485979
P1    P     P_3+3 0.041040 0.394770 0.336330 0.972252
P2    P     P_3+3 0.672880 0.754030 0.556100 0.972389
P3    P     P_3+3 0.126415 0.823508 0.402518 0.948494
P4    P     P_3+3 0.148670 0.605320 0.663680 0.981847
P5    P     P_3+3 0.067455 0.175094 0.597351 0.952250
P6    P     P_3+3 0.644322 0.612351 0.275070 0.949922
P7    P     P_3+3 0.522422 0.229948 0.439921 0.933597
P8    P     P_3+3 0.548598 0.386705 0.725179 0.946434
C57   C     C_2   0.313440 0.716279 0.812962 0.542954
H54   H     H_    0.429989 0.717157 0.786472 -0.014764
O25   O     O_2   0.249424 0.798436 0.823757 -0.581880

loop_
_geom_bond_atom_site_label_1
_geom_bond_atom_site_label_2
_ccdc_geom_bond_type
O24   P3    D    
C5    H25   S    
C53   C54   S    
O22   P2    D    
C47   P2    S    
O12   P1    S    
C51   P5    S    
C39   C40   A    
C17   C18   A    
C40   H45   S    
C45   H4    S    
O6    P8    S    
C4    H21   S    
C5    C6    S    
C37   C39   A    
C51   C52   A    
C48   C52   A    
Ba2   P4    S    
O10   P5    D    
C26   C27   A    
C33   C35   A    
C22   C24   A    
C6    H27   S    
Ba1   O18   S    
C7    H30   S    
C13   H37   S    
C3    C4    S    
C33   H41   S    
C56   H13   S    
C12   H44   S    
O18   P6    S    
C13   C14   A    
C21   H38   S    
C34   C45   S    
Ba1   Ba2   S    
Ba1   O8    S    
C29   C57   S    
O19   P6    D    
C45   H2    S    
Ba2   O5    S    
C42   C51   A    
C14   C15   A    
C53   H5    S    
C20   P8    S    
C1    H23   S    
C21   C22   A    
O9    P5    S    
C16   H39   S    
C9    C25   A    
Ba1   P1    S    
C1    H17   S    
C7    C8    S    
C2    H16   S    
C23   H51   S    
O5    P4    S    
C42   C50   A    
C5    H26   S    
C38   H43   S    
C24   C29   A    
C25   C32   A    
C27   C41   A    
O1    P1    D    
Ba1   O22   S    
Ba2   O6    S    
C48   C49   A    
C22   P4    S    
C44   C46   A    
C7    O17   S    
C49   C50   A    
C30   C33   A    
O13   P2    S    
C17   C20   A    
C57   O25   D    
O20   P1    S    
C7    H31   S    
C37   C38   A    
Ba2   O9    S    
C16   C17   A    
C55   O2    S    
C26   C37   A    
Ba2   O12   S    
C44   H46   S    
C44   C49   A    
O15   P7    S    
C50   P7    S    
C1    C2    S    
C3    O15   S    
Ba1   O12   S    
C39   P6    S    
C35   C36   A    
Ba2   O4    S    
C56   H15   S    
C4    H22   S    
C29   C30   A    
C43   C47   A    
O14   P7    D    
Ba2   O8    S    
C53   H6    S    
C1    H12   S    
C34   H53   S    
C31   C32   A    
O16   P8    D    
C10   C11   A    
C12   H34   S    
Ba1   O5    S    
O4    P4    D    
C8    H33   S    
Ba2   O13   S    
C11   C13   A    
C34   H52   S    
C23   H24   S    
O2    P2    S    
C40   C41   A    
C5    O11   S    
C3    H19   S    
O7    P4    S    
Ba1   O23   S    
Ba1   P2    S    
C43   C46   A    
O21   P6    S    
C9    C15   A    
C52   H47   S    
C10   C28   A    
C32   C36   A    
C57   H54   S    
C45   H3    S    
C9    C10   A    
C42   H48   S    
O23   P3    S    
C54   H9    S    
C28   H40   S    
C53   O20   S    
C8    H35   S    
C46   P3    S    
C11   H36   S    
C6    H29   S    
C30   C31   A    
C3    H18   S    
Ba1   O13   S    
O11   P5    S    
Ba1   O1    S    
C12   O3    S    
C36   C38   A    
C2    O21   S    
C56   H14   S    
C55   C56   S    
C18   C24   A    
C54   H8    S    
C2    H1    S    
C6    H28   S    
O3    P3    S    
C12   C23   S    
C41   P1    S    
O17   P8    S    
C15   C19   A    
C4    H20   S    
C27   C28   A    
Ba2   O14   S    
C43   H49   S    
C19   C31   A    
C18   C19   A    
C8    H32   S    
C14   C16   A    
C47   C48   A    
C25   C26   A    
O8    P7    S    
C20   C21   A    
C34   O7    S    
C55   H10   S    
C55   H11   S    
C35   H42   S    
C54   H7    S    
C23   H50   S    
