data_mof_unit_15531.cif
_audit_creation_date              2012-12-10T18:09:09-0500
_audit_creation_method            fapswitch 2.2
_symmetry_space_group_name_H-M    P1
_symmetry_Int_Tables_number       1
_space_group_crystal_system       triclinic
_cell_length_a                    12.655268
_cell_length_b                    13.004048
_cell_length_c                    13.635339
_cell_angle_alpha                 89.905164
_cell_angle_beta                  95.726146
_cell_angle_gamma                 96.537175
_cell_volume                      2218.14287483

loop_
_atom_site_label
_atom_site_type_symbol
_atom_type_description
_atom_site_fract_x
_atom_site_fract_y
_atom_site_fract_z
_atom_type_partial_charge
C1    C     C_R   0.559084 0.692017 0.509023 0.929049
C2    C     C_R   0.487287 0.040531 0.424521 0.030381
C3    C     C_R   0.389758 0.994367 0.377885 0.024169
C4    C     C_R   0.516601 0.494774 0.318271 0.942626
C5    C     C_R   0.391954 0.898997 0.328856 -0.065601
C6    C     C_R   0.475407 0.837755 0.360669 -0.196282
C7    C     C_R   0.504380 0.147540 0.429243 -0.205946
C8    C     C_R   0.311384 0.151375 0.416788 -0.080197
C9    C     C_R   0.596641 0.803247 0.512019 -0.188050
C10   C     C_R   0.897045 0.358604 0.653420 -0.089161
C11   C     C_R   0.209271 0.613072 0.370496 0.107448
C12   C     C_1   0.526765 0.487892 0.217099 -0.009558
C13   C     C_R   0.105774 0.618689 0.328953 -0.170261
C14   C     C_R   0.021644 0.567882 0.374407 -0.164068
C15   C     C_R   0.040217 0.517554 0.465621 0.044523
C16   C     C_R   0.442610 0.308558 0.480707 0.835712
C17   C     C_R   0.146658 0.503439 0.497368 0.258811
C18   C     C_R   0.957337 0.474859 0.522123 -0.048292
C19   C     C_R   0.980525 0.404591 0.599747 0.089972
C20   C     C_R   0.085961 0.381697 0.620320 -0.220804
C21   C     C_R   0.167595 0.432344 0.571765 -0.165169
C22   C     C_R   0.852606 0.502384 0.506923 0.077851
C23   C     C_R   0.298484 0.049015 0.376906 -0.078038
C24   C     C_R   0.792643 0.376105 0.621297 -0.081286
C25   C     C_R   0.482917 0.503519 0.681734 0.920153
C26   C     C_1   0.472291 0.508267 0.782966 -0.120696
C27   C     C_2   0.459858 0.514812 0.971688 -0.118523
C28   C     C_2   0.538409 0.479045 0.028407 -0.142222
C29   C     C_1   0.534723 0.482515 0.131325 0.088727
C30   C     C_1   0.463973 0.512301 0.868776 0.044925
C31   C     C_2   0.505345 0.755430 0.295458 0.918105
C32   C     C_2   0.913688 0.298625 0.745780 0.904325
C33   C     C_2   0.832021 0.603064 0.462866 0.905337
C34   C     C_R   0.416577 0.201150 0.443186 -0.189289
C35   C     C_2   0.215534 0.203869 0.428553 0.972232
C36   C     C_2   0.326996 0.880893 0.232173 0.975802
C37   C     C_2   0.189805 0.995698 0.346349 0.952629
C38   C     C_2   0.586077 0.196130 0.366273 0.991295
C39   C     C_2   0.728868 0.775422 0.659597 1.000270
C40   C     C_2   0.802117 0.999697 0.656381 1.003535
C41   C     C_R   0.679502 0.843765 0.584902 -0.137678
C42   C     C_R   0.710353 0.951503 0.589731 -0.062392
C43   C     C_R   0.648666 0.017048 0.534257 -0.187912
C44   C     C_R   0.562993 0.977784 0.466149 0.096671
C45   C     C_R   0.544956 0.871086 0.446421 -0.016021
H1    H     H_    0.245859 0.410496 0.590692 0.204176
H2    H     H_    0.090729 0.658816 0.260292 0.193704
H3    H     H_    0.393705 0.545996 0.001984 0.187398
H4    H     H_    0.080030 0.204472 0.494608 0.360537
H5    H     H_    0.216850 0.788707 0.145878 0.357801
H6    H     H_    0.086144 0.866306 0.351787 0.359357
H7    H     H_    0.698174 0.241639 0.478828 0.313385
H8    H     H_    0.706167 0.667693 0.764371 0.351778
H9    H     H_    0.663051 0.098457 0.551357 0.144789
H10   H     H_    0.938411 0.097636 0.669231 0.360958
H11   H     H_    0.604683 0.448047 0.998160 0.175812
H12   H     H_    0.665540 0.792689 0.327765 0.322747
H13   H     H_    0.725982 0.340078 0.657780 0.182072
H14   H     H_    0.107073 0.323342 0.672793 0.208158
H15   H     H_    0.851035 0.191603 0.837700 0.379974
H16   H     H_    0.872539 0.757620 0.464178 0.350122
H17   H     H_    0.275989 0.648494 0.334747 0.210607
H18   H     H_    0.943524 0.564992 0.334534 0.175833
N1    N     N_R   0.773270 0.445590 0.549770 -0.142808
N2    N     N_R   0.227520 0.553880 0.450750 -0.148157
O1    O     O_R   0.631100 0.627590 0.523760 -0.591532
O2    O     O_R   0.612154 0.739059 0.290680 -0.747324
O3    O     O_2   0.995592 0.316597 0.801485 -0.600715
O4    O     O_R   0.831568 0.226010 0.772643 -0.795885
O5    O     O_2   0.769867 0.606857 0.388956 -0.583235
O6    O     O_R   0.891189 0.693682 0.501729 -0.756854
O7    O     O_2   0.194730 0.275921 0.375043 -0.570214
O8    O     O_R   0.145638 0.166188 0.496799 -0.785417
O9    O     O_2   0.332478 0.947809 0.169158 -0.574081
O10   O     O_R   0.257189 0.790453 0.214041 -0.793929
O11   O     O_2   0.124968 0.040101 0.294604 -0.560574
O12   O     O_R   0.455900 0.662370 0.491970 -0.607175
O13   O     O_R   0.161854 0.894537 0.377345 -0.776146
O14   O     O_2   0.563422 0.196810 0.277129 -0.547822
O15   O     O_R   0.687561 0.240311 0.404622 -0.735031
O16   O     O_2   0.826036 0.777162 0.672822 -0.550115
O17   O     O_R   0.663670 0.710461 0.716108 -0.796204
O18   O     O_2   0.813000 0.975780 0.743268 -0.570005
O19   O     O_R   0.876029 0.073828 0.618889 -0.774200
O20   O     O_R   0.600200 0.480080 0.377830 -0.552477
O21   O     O_R   0.425000 0.514870 0.346040 -0.606154
O22   O     O_R   0.544100 0.337630 0.508030 -0.634638
O23   O     O_R   0.368900 0.372410 0.476240 -0.610618
O24   O     O_R   0.575000 0.485130 0.653960 -0.605155
O25   O     O_R   0.399800 0.519920 0.622170 -0.629806
O26   O     O_2   0.436965 0.702962 0.242166 -0.579389
Zn1   Zn    Zn3+2 0.616980 0.476780 0.521230 1.010931
Zn2   Zn    Zn3+2 0.383020 0.523220 0.478770 0.998420

loop_
_geom_bond_atom_site_label_1
_geom_bond_atom_site_label_2
_ccdc_geom_bond_type
C27   H3    S    
C15   C18   A    
C9    C45   A    
C6    C45   A    
C12   C29   T    
C1    O12   A    
C41   C42   A    
C40   O19   S    
C3    C23   A    
C2    C7    A    
C11   H17   S    
C28   H11   S    
C39   C41   S    
C31   O2    S    
C25   O25   A    
C28   C29   S    
O21   Zn2   S    
C5    C6    A    
C4    O21   A    
C38   O14   D    
C5    C36   S    
C8    C23   A    
C18   C19   A    
C16   C34   S    
C19   C20   A    
C2    C44   A    
C16   O22   A    
C4    C12   S    
C32   O3    D    
H16   O6    S    
C40   C42   S    
C6    C31   S    
C24   N1    A    
C13   C14   A    
C27   C30   S    
C40   O18   D    
H12   O2    S    
O20   Zn1   S    
C1    C9    S    
C39   O16   D    
C13   H2    S    
O1    Zn1   S    
C4    O20   A    
C10   C24   A    
C25   C26   S    
C23   C37   S    
C17   C21   A    
H8    O17   S    
C20   H14   S    
C8    C35   S    
C43   C44   A    
C36   O10   S    
C43   H9    S    
C10   C19   A    
C1    O1    A    
C8    C34   A    
O24   Zn1   S    
C36   O9    D    
C33   O5    D    
C17   N2    A    
C37   O11   D    
C35   O7    D    
C26   C30   T    
C31   O26   D    
C7    C34   A    
H4    O8    S    
C42   C43   A    
N1    Zn1   S    
C44   C45   A    
O25   Zn2   S    
C21   H1    S    
C15   C17   A    
C22   C33   S    
O23   Zn2   S    
C35   O8    S    
C18   C22   A    
C9    C41   A    
C39   O17   S    
C3    C5    A    
C32   O4    S    
C37   O13   S    
C25   O24   A    
C2    C3    A    
H6    O13   S    
H7    O15   S    
H5    O10   S    
C11   C13   A    
C38   O15   S    
H15   O4    S    
C14   H18   S    
O12   Zn2   S    
N2    Zn2   S    
C7    C38   S    
C33   O6    S    
C22   N1    A    
C10   C32   S    
C20   C21   A    
C24   H13   S    
C27   C28   D    
C16   O23   A    
C14   C15   A    
H10   O19   S    
O22   Zn1   S    
C11   N2    A    
