data_mof_unit_21058.cif
_audit_creation_date              2012-12-10T17:56:45-0500
_audit_creation_method            fapswitch 2.2
_symmetry_space_group_name_H-M    P1
_symmetry_Int_Tables_number       1
_space_group_crystal_system       triclinic
_cell_length_a                    10.814098
_cell_length_b                    9.596555
_cell_length_c                    10.916934
_cell_angle_alpha                 88.920819
_cell_angle_beta                  94.119585
_cell_angle_gamma                 90.446021
_cell_volume                      1129.78739233

loop_
_atom_site_label
_atom_site_type_symbol
_atom_type_description
_atom_site_fract_x
_atom_site_fract_y
_atom_site_fract_z
_atom_type_partial_charge
C1    C     C_R   0.262371 0.500021 0.500293 0.818702
C2    C     C_R   0.737290 0.500375 0.495482 0.813660
C3    C     C_R   0.934283 0.622394 0.460940 -0.141366
C4    C     C_R   0.062639 0.622341 0.462983 -0.134763
C5    C     C_R   0.402741 0.070252 0.444092 0.301259
C6    C     C_R   0.590014 0.071890 0.567282 0.239539
C7    C     C_R   0.403970 0.923624 0.445492 -0.013638
C8    C     C_R   0.592011 0.924318 0.563124 -0.035065
C9    C     C_R   0.490668 0.501795 0.261220 0.857137
C10   C     C_R   0.506469 0.498176 0.737770 0.892758
C11   C     C_R   0.540206 0.756459 0.101236 0.167423
C12   C     C_R   0.678414 0.672894 0.910032 0.105285
C13   C     C_R   0.635765 0.843581 0.063492 0.113904
C14   C     C_R   0.713656 0.794611 0.975681 0.121213
C15   C     C_R   0.573962 0.594840 0.943930 -0.053417
C16   C     C_R   0.531395 0.619411 0.059268 -0.088878
C17   C     C_R   0.479802 0.506802 0.124614 -0.216492
C18   C     C_R   0.511523 0.491273 0.872058 -0.198100
C19   C     C_R   0.432656 0.391849 0.056892 0.359563
C20   C     C_R   0.437774 0.390942 0.929637 0.337445
C21   C     C_R   0.065321 0.381618 0.535454 -0.105130
C22   C     C_R   0.937470 0.379886 0.528351 -0.113540
C23   C     C_R   0.871266 0.500695 0.493338 -0.023005
C24   C     C_R   0.128426 0.501360 0.499792 -0.026452
Cu1   Cu    Cu3+1 0.500000 0.640660 0.500000 0.995046
Cu2   Cu    Cu3+1 0.500000 0.359340 0.500000 1.070371
H1    H     H_    0.114543 0.289365 0.569281 0.190786
H2    H     H_    0.891196 0.284523 0.552566 0.182940
H3    H     H_    0.884552 0.716700 0.433207 0.165823
H4    H     H_    0.110108 0.716394 0.435392 0.162977
H5    H     H_    0.325547 0.865728 0.405559 0.159493
H6    H     H_    0.663979 0.867226 0.616138 0.165519
N1    N     N_R   0.500000 0.852070 0.500000 -0.199946
N2    N     N_R   0.500000 0.147940 0.500000 -0.202704
O1    O     O_R   0.319640 0.618740 0.499990 -0.599827
O2    O     O_R   0.680360 0.618740 0.500010 -0.588683
O3    O     O_R   0.319620 0.381170 0.499990 -0.556328
O4    O     O_R   0.680380 0.381170 0.500010 -0.574900
O5    O     O_R   0.500000 0.618810 0.319650 -0.580528
O6    O     O_R   0.500000 0.618810 0.680350 -0.571647
O7    O     O_R   0.499970 0.381240 0.319640 -0.523374
O8    O     O_R   0.500030 0.381240 0.680360 -0.519971
Cl1   Cl    Cl    0.356450 0.252631 0.125335 -0.459360
Cl2   Cl    Cl    0.347033 0.264976 0.845230 -0.481518
I1    I     I_    0.370234 0.846723 0.143390 -0.176448
I2    I     I_    0.806082 0.580644 0.797260 -0.270174
I3    I     I_    0.663226 0.043074 0.144565 -0.181102
I4    I     I_    0.882193 0.903149 0.944362 -0.145963
I5    I     I_    0.226514 0.139585 0.370002 -0.206044
I6    I     I_    0.712035 0.159180 0.705464 -0.232479

loop_
_geom_bond_atom_site_label_1
_geom_bond_atom_site_label_2
_ccdc_geom_bond_type
C15   C18   A    
C6    C8    A    
Cu2   O3    S    
C10   O8    A    
C11   C13   A    
C11   C16   A    
C2    O4    A    
C3    C23   A    
C19   C20   A    
C12   C15   A    
C1    O3    A    
C5    N2    A    
Cu1   N1    S    
C21   H1    S    
C22   H2    S    
C21   C22   A    
C6    I6    S    
C7    N1    A    
C5    I5    S    
Cu1   O5    S    
Cu1   O1    S    
C4    C24   A    
C9    C17   S    
C13   I3    S    
C20   Cl2   S    
C12   C14   A    
C18   C20   A    
C8    N1    A    
Cu1   O6    S    
C10   C18   S    
C11   I1    S    
C7    H5    S    
Cu1   O2    S    
C15   C16   A    
C8    H6    S    
C6    N2    A    
C9    O5    A    
C3    H3    S    
Cu2   O8    S    
C1    C24   S    
C12   I2    S    
C21   C24   A    
C2    O2    A    
C2    C23   S    
C5    C7    A    
C1    O1    A    
C22   C23   A    
Cu2   O4    S    
C10   O6    A    
C14   I4    S    
C17   C19   A    
Cu1   Cu2   S    
C13   C14   A    
C9    O7    A    
Cu2   N2    S    
C4    H4    S    
C3    C4    A    
Cu2   O7    S    
C19   Cl1   S    
C16   C17   A    
