data_mof_unit_24941.cif
_audit_creation_date              2013-03-05T16:24:52-0500
_audit_creation_method            fapswitch 2.2
_symmetry_space_group_name_H-M    P1
_symmetry_Int_Tables_number       1
_space_group_crystal_system       triclinic
_cell_length_a                    15.071554
_cell_length_b                    14.081421
_cell_length_c                    10.873955
_cell_angle_alpha                 89.672635
_cell_angle_beta                  90.011668
_cell_angle_gamma                 89.945513
_cell_volume                      2307.72871306

loop_
_atom_site_label
_atom_site_type_symbol
_atom_site_description
_atom_site_fract_x
_atom_site_fract_y
_atom_site_fract_z
_atom_type_partial_charge
O1    O     O_R   0.371460 0.581430 0.500010 -0.591186
O2    O     O_R   0.628540 0.581430 0.499990 -0.590150
O3    O     O_R   0.371470 0.418560 0.500010 -0.574373
O4    O     O_R   0.628530 0.418560 0.499990 -0.578003
C1    C     C_R   0.330579 0.500095 0.499706 0.760740
C2    C     C_R   0.669398 0.500023 0.500835 0.756306
O5    O     O_R   0.499990 0.581450 0.319660 -0.602556
O6    O     O_R   0.500010 0.581450 0.680340 -0.596497
O7    O     O_R   0.500010 0.418580 0.319660 -0.592858
O8    O     O_R   0.499990 0.418580 0.680340 -0.588639
C3    C     C_R   0.502078 0.500331 0.263451 0.779676
C4    C     C_R   0.501869 0.500114 0.737349 0.778324
Cu1   Cu    Cu3+1 0.500000 0.596430 0.500000 0.915696
Cu2   Cu    Cu3+1 0.500000 0.403570 0.500000 0.935824
C5    C     C_R   0.487438 0.581433 0.063312 0.076715
C6    C     C_R   0.488743 0.582117 0.938796 0.083039
C7    C     C_R   0.506670 0.500758 0.131499 -0.115765
C8    C     C_R   0.506537 0.500817 0.870819 -0.116383
C9    C     C_R   0.531793 0.419010 0.066712 -0.214126
C10   C     C_R   0.531133 0.419063 0.938124 -0.225669
H1    H     H_    0.553447 0.355536 0.114285 0.153846
H2    H     H_    0.552011 0.355558 0.893931 0.160477
C11   C     C_3   0.464392 0.685212 0.931720 -0.157404
C12   C     C_3   0.461964 0.683518 0.074154 -0.131913
H3    H     H_    0.398208 0.695891 0.889642 0.136949
H4    H     H_    0.514751 0.726408 0.118203 0.149133
C13   C     C_R   0.097036 0.526191 0.608335 -0.159073
C14   C     C_R   0.903101 0.527075 0.393831 -0.157388
H5    H     H_    0.063831 0.546900 0.692196 0.121825
H6    H     H_    0.936446 0.548333 0.310020 0.122072
C15   C     C_R   0.189300 0.522460 0.608282 -0.174240
C16   C     C_R   0.810912 0.523065 0.393318 -0.178433
H7    H     H_    0.225567 0.537176 0.692030 0.114441
H8    H     H_    0.774874 0.537913 0.309232 0.118513
C17   C     C_R   0.234569 0.500563 0.500294 -0.006357
C18   C     C_R   0.765371 0.500463 0.501097 -0.006187
C19   C     C_R   0.187836 0.481136 0.392619 -0.217234
C20   C     C_R   0.811746 0.480845 0.609409 -0.207574
H9    H     H_    0.222224 0.467232 0.307570 0.125319
H10   H     H_    0.776957 0.466314 0.694309 0.117354
C21   C     C_R   0.095726 0.481019 0.393343 -0.139652
C22   C     C_R   0.903938 0.480768 0.609151 -0.140028
H11   H     H_    0.061617 0.461970 0.309517 0.123771
H12   H     H_    0.937947 0.461287 0.693202 0.124002
C23   C     C_R   0.049008 0.504305 0.501027 0.103109
C24   C     C_R   0.950891 0.504514 0.501467 0.100457
C25   C     C_R   0.567680 0.104529 0.555449 0.197360
C26   C     C_R   0.433685 0.105806 0.438399 0.188934
C27   C     C_R   0.556854 0.204297 0.574065 0.151928
C28   C     C_R   0.444292 0.206171 0.422163 0.150802
N1    N     N_R   0.500000 0.258690 0.500000 -0.211522
C29   C     C_R   0.500619 0.053248 0.496735 -0.168870
C30   C     C_R   0.437589 0.894951 0.563234 -0.205765
C31   C     C_R   0.562071 0.894212 0.431254 -0.202413
H13   H     H_    0.388675 0.934333 0.615496 0.150499
H14   H     H_    0.610183 0.933074 0.376526 0.148655
C32   C     C_R   0.436427 0.794140 0.563778 0.235211
C33   C     C_R   0.562383 0.793337 0.432117 0.255615
N2    N     N_R   0.500000 0.741330 0.500000 -0.197245
C34   C     C_R   0.500243 0.945943 0.497283 0.216152
C35   C     C_3   0.362792 0.752436 0.641632 -0.401517
C36   C     C_3   0.271099 0.766260 0.581024 -0.322280
C37   C     C_3   0.196712 0.762515 0.676339 -0.843135
H15   H     H_    0.199210 0.826617 0.735300 0.257280
H16   H     H_    0.131418 0.760556 0.629090 0.255962
H17   H     H_    0.203169 0.698765 0.735982 0.243825
H18   H     H_    0.266901 0.836101 0.533213 0.242882
H19   H     H_    0.259679 0.710933 0.510697 0.240329
H20   H     H_    0.373000 0.678049 0.668249 0.234832
H21   H     H_    0.362941 0.791406 0.730252 0.164050
C38   C     C_3   0.632173 0.750748 0.348340 -0.392181
C39   C     C_3   0.726828 0.766569 0.398062 -0.340277
C40   C     C_3   0.795682 0.760542 0.295317 -0.845184
H22   H     H_    0.787007 0.694692 0.241223 0.242707
H23   H     H_    0.788802 0.822498 0.232322 0.257642
H24   H     H_    0.863448 0.761056 0.335414 0.256178
H25   H     H_    0.733379 0.837425 0.441554 0.239765
H26   H     H_    0.742266 0.712787 0.469866 0.243626
H27   H     H_    0.623018 0.675630 0.327548 0.238974
H28   H     H_    0.625925 0.786568 0.257250 0.162487
C41   C     C_3   0.536732 0.750524 0.875830 -0.352564
C42   C     C_3   0.633217 0.722885 0.907136 -0.364585
C43   C     C_3   0.698738 0.791619 0.847494 -0.750196
H29   H     H_    0.691214 0.790840 0.745796 0.272241
H30   H     H_    0.687462 0.864822 0.881797 0.277952
H31   H     H_    0.767613 0.769963 0.870955 0.225936
H32   H     H_    0.644018 0.723462 0.008121 0.206645
H33   H     H_    0.647841 0.650390 0.872634 0.224683
H34   H     H_    0.529484 0.749948 0.774480 0.227339
H35   H     H_    0.523753 0.824391 0.906684 0.207101
C44   C     C_3   0.369938 0.702754 0.132009 -0.347464
C45   C     C_3   0.298463 0.627443 0.105429 -0.349547
C46   C     C_3   0.209090 0.656824 0.159293 -0.841194
H36   H     H_    0.214804 0.667251 0.260256 0.261905
H37   H     H_    0.185671 0.723864 0.115669 0.260993
H38   H     H_    0.159293 0.600402 0.141697 0.235712
H39   H     H_    0.290470 0.617414 0.004794 0.210991
H40   H     H_    0.318142 0.558383 0.147289 0.211711
H41   H     H_    0.378567 0.707975 0.233307 0.226759
H42   H     H_    0.346619 0.773337 0.098878 0.213997
N3    N     N_R   0.641268 0.055037 0.610786 0.118598
O9    O     O_R   0.627977 0.983317 0.684457 -0.407751
O10   O     O_R   0.721650 0.086046 0.594114 -0.370650
N4    N     N_R   0.360003 0.057416 0.382398 0.117533
O11   O     O_R   0.373048 0.985495 0.309934 -0.392575
O12   O     O_R   0.279791 0.089420 0.397541 -0.369127
C47   C     C_3   0.585841 0.235933 0.700152 -0.318740
C48   C     C_3   0.672791 0.292850 0.702891 -0.263042
C49   C     C_3   0.731976 0.264878 0.811496 -0.852241
H43   H     H_    0.696565 0.275987 0.899790 0.239193
H44   H     H_    0.751986 0.189187 0.804659 0.301483
H45   H     H_    0.792851 0.309216 0.811092 0.238781
H46   H     H_    0.711139 0.282274 0.616726 0.257661
H47   H     H_    0.656933 0.369004 0.712875 0.209344
H48   H     H_    0.528856 0.270151 0.743254 0.176336
H49   H     H_    0.592957 0.173496 0.762610 0.201404
C50   C     C_3   0.413630 0.240878 0.295900 -0.297862
C51   C     C_3   0.326828 0.297894 0.294321 -0.257288
C52   C     C_3   0.270303 0.276105 0.181181 -0.856846
H50   H     H_    0.308158 0.292078 0.095864 0.247957
H51   H     H_    0.250193 0.200250 0.181281 0.298050
H52   H     H_    0.209403 0.320507 0.181983 0.236809
H53   H     H_    0.286948 0.283139 0.378227 0.255908
H54   H     H_    0.343086 0.374225 0.289546 0.212307
H55   H     H_    0.467828 0.275757 0.246422 0.175049
H56   H     H_    0.405074 0.178925 0.234010 0.200089

loop_
_geom_bond_atom_site_label_1
_geom_bond_atom_site_label_2
_geom_bond_distance
_ccdc_geom_bond_type
C35   H21   1.111661 S    
C37   H16   1.110477 S    
C46   H36   1.111806 S    
C25   N3    1.439197 S    
C13   H5    1.081663 S    
C28   C50   1.526140 S    
C21   H11   1.081644 S    
C40   H22   1.108750 S    
C9    C10   1.398286 A    
C38   H27   1.091797 S    
C41   C42   1.542477 S    
C45   H40   1.111388 S    
C25   C27   1.429723 A    
C31   C34   1.385449 A    
C23   C24   1.478783 S    
O5    C3    1.298953 A    
C14   C24   1.408759 A    
C36   C37   1.527706 S    
C36   H18   1.111533 S    
O1    C1    1.301064 A    
C16   C18   1.393712 A    
C17   C19   1.394814 A    
C12   H4    1.109604 S    
C20   C22   1.389477 A    
C49   H44   1.110309 S    
C33   C38   1.517029 S    
C32   N2    1.398859 A    
C5    C6    1.354112 A    
C26   N4    1.440233 S    
C48   C49   1.529412 S    
C22   C24   1.407126 A    
C48   H47   1.104405 S    
O2    Cu1   1.948579 S    
C51   C52   1.529010 S    
C38   H28   1.112894 S    
C39   H26   1.109121 S    
C29   C34   1.511003 S    
C43   H29   1.111747 S    
C27   N1    1.400338 A    
C47   C48   1.537158 S    
C15   H7    1.083142 S    
C44   H42   1.111915 S    
C27   C47   1.508722 S    
C50   H56   1.112424 S    
C41   H34   1.107521 S    
C13   C23   1.408799 A    
C52   H51   1.110593 S    
C37   H17   1.108641 S    
C46   H37   1.111279 S    
Cu1   Cu2   2.715744 S    
O4    Cu2   1.948811 S    
C40   H23   1.110891 S    
O2    C2    1.300723 A    
C22   H12   1.081665 S    
N4    O12   1.300612 A    
N4    O11   1.301546 A    
C30   C34   1.384650 A    
C45   H39   1.110723 S    
C30   H13   1.084882 S    
C31   H14   1.084711 S    
C13   C15   1.391510 A    
N3    O9    1.301163 A    
C14   C16   1.390654 A    
O4    C2    1.302624 A    
O8    Cu2   1.973567 S    
C49   H45   1.110247 S    
C44   C45   1.540827 S    
C30   C32   1.419660 A    
C33   N2    1.400211 A    
C16   H8    1.082658 S    
C48   H46   1.111645 S    
O7    Cu2   1.971167 S    
C39   H25   1.111081 S    
Cu2   N1    2.040115 S    
C26   C29   1.400268 A    
O6    C4    1.299488 A    
C28   N1    1.405810 A    
C51   H54   1.103594 S    
C26   C28   1.432371 A    
O7    C3    1.300683 A    
C47   H48   1.091521 S    
O3    Cu2   1.948414 S    
O8    C4    1.308224 A    
C41   H35   1.111924 S    
C6    C8    1.392151 A    
C5    C12   1.492860 S    
C43   H30   1.111156 S    
C10   H2    1.064916 S    
C6    C11   1.498609 S    
C40   H24   1.110470 S    
C15   C17   1.394097 A    
O1    Cu1   1.948978 S    
C12   C44   1.547396 S    
C31   C33   1.420447 A    
C52   H52   1.110148 S    
C35   H20   1.095834 S    
C5    C7    1.383473 A    
C3    C7    1.436500 S    
C11   C41   1.549085 S    
C9    H1    1.080319 S    
C39   C40   1.527659 S    
O3    C1    1.302545 A    
C52   H50   1.111248 S    
C32   C35   1.513003 S    
C25   C29   1.398928 A    
Cu1   N2    2.040398 S    
C46   H38   1.110842 S    
C36   H19   1.108341 S    
C14   H6    1.081711 S    
C38   C39   1.542334 S    
C19   H9    1.079025 S    
C50   C51   1.534349 S    
C20   H10   1.080429 S    
C42   H33   1.111497 S    
C1    C17   1.447052 S    
C18   C20   1.395554 A    
C45   C46   1.526647 S    
C7    C9    1.404753 A    
C2    C18   1.446476 S    
C8    C10   1.409886 A    
C51   H53   1.111385 S    
C11   H3    1.107129 S    
C19   C21   1.388270 A    
C35   C36   1.542627 S    
C47   H49   1.112988 S    
C11   C12   1.549301 S    
C37   H15   1.110830 S    
O6    Cu1   1.971123 S    
O5    Cu1   1.973521 S    
C43   H31   1.110872 S    
N3    O10   1.300542 A    
C42   C43   1.525596 S    
C4    C8    1.453127 S    
C21   C23   1.406664 A    
C44   H41   1.111997 S    
C49   H43   1.110348 S    
C50   H55   1.093543 S    
C42   H32   1.110156 S    
