data_mof_unit_26659.cif
_audit_creation_date              2012-12-11T15:54:41-0500
_audit_creation_method            fapswitch 2.2
_symmetry_space_group_name_H-M    P1
_symmetry_Int_Tables_number       1
_space_group_crystal_system       triclinic
_cell_length_a                    6.957998
_cell_length_b                    14.642822
_cell_length_c                    16.044025
_cell_angle_alpha                 89.937218
_cell_angle_beta                  90.11443
_cell_angle_gamma                 90.559633
_cell_volume                      1634.55891336

loop_
_atom_site_label
_atom_site_type_symbol
_atom_type_description
_atom_site_fract_x
_atom_site_fract_y
_atom_site_fract_z
_atom_type_partial_charge
O1    O     O_R   0.638180 0.333920 0.163320 -0.539722
O2    O     O_R   0.361820 0.666080 0.836680 -0.541609
O3    O     O_R   0.308470 0.344960 0.336080 -0.537218
O4    O     O_R   0.691530 0.655040 0.663920 -0.538134
O5    O     O_R   0.138140 0.166110 0.336680 -0.535570
O6    O     O_R   0.861860 0.833890 0.663320 -0.532118
C1    C     C_R   0.476160 0.363875 0.368016 0.710310
C2    C     C_R   0.521013 0.630137 0.637765 0.722448
O7    O     O_R   0.308460 0.344950 0.163930 -0.542545
O8    O     O_R   0.691540 0.655050 0.836070 -0.544436
O9    O     O_R   0.138140 0.166100 0.163310 -0.544010
O10   O     O_R   0.861860 0.833900 0.836690 -0.543911
C3    C     C_R   0.477793 0.367050 0.134980 0.695437
C4    C     C_R   0.522187 0.632864 0.864936 0.671487
O11   O     O_R   0.638180 0.333930 0.336700 -0.544357
O12   O     O_R   0.361820 0.666070 0.663300 -0.548325
O13   O     O_3   0.471670 0.191340 0.250000 -0.368670
O14   O     O_3   0.528330 0.808660 0.750000 -0.366620
V1    V     V_3+5 0.196830 0.260900 0.250000 1.408229
V2    V     V_3+5 0.803170 0.739100 0.750000 1.414415
O15   O     O_R   0.808420 0.155070 0.163920 -0.542672
O16   O     O_R   0.191580 0.844930 0.836080 -0.542796
C5    C     C_R   0.977073 0.132715 0.135081 0.678142
C6    C     C_R   0.022925 0.867299 0.864907 0.677112
O17   O     O_R   0.808420 0.155080 0.336070 -0.541234
O18   O     O_R   0.191580 0.844920 0.663930 -0.538871
C7    C     C_R   0.976156 0.133579 0.365346 0.678595
C8    C     C_R   0.023737 0.865612 0.634457 0.699175
V3    V     V_3+5 0.696830 0.239130 0.250000 1.415457
V4    V     V_3+5 0.303170 0.760870 0.750000 1.421314
O19   O     O_3   0.971850 0.308690 0.250010 -0.371709
O20   O     O_3   0.028150 0.691310 0.749990 -0.375534
H1    H     H_    0.375023 0.876418 0.278782 0.148104
H2    H     H_    0.610471 0.113381 0.720423 0.145565
C9    C     C_R   0.750533 0.150243 0.520473 -0.191785
C10   C     C_R   0.224031 0.840454 0.477030 -0.171328
C11   C     C_R   0.649536 0.160840 0.595037 0.305953
C12   C     C_R   0.320173 0.825960 0.402172 0.316788
C13   C     C_R   0.684097 0.103309 0.661792 -0.128153
C14   C     C_R   0.303498 0.888505 0.337563 -0.135640
C15   C     C_R   0.811121 0.031683 0.653403 -0.176397
C16   C     C_R   0.192013 0.966116 0.347495 -0.186123
C17   C     C_R   0.902033 0.013587 0.576331 0.081262
C18   C     C_R   0.098109 0.984753 0.423887 0.080593
C19   C     C_R   0.878842 0.076414 0.509204 0.039857
C20   C     C_R   0.113698 0.920089 0.490005 0.028715
C21   C     C_R   0.015745 0.934689 0.566344 -0.148731
C22   C     C_R   0.983527 0.064029 0.433634 -0.143872
H3    H     H_    0.723117 0.199525 0.472134 0.136659
H4    H     H_    0.236188 0.787894 0.523935 0.139074
H5    H     H_    0.835439 0.990634 0.708352 0.125274
H6    H     H_    0.178076 0.009862 0.293631 0.132433
C23   C     C_R   0.179210 0.973888 0.969150 -0.146844
C24   C     C_R   0.820785 0.026178 0.030795 -0.148286
H7    H     H_    0.319754 0.954758 0.946623 0.115839
H8    H     H_    0.680240 0.045311 0.053319 0.115753
C25   C     C_R   0.167556 0.037213 0.034419 -0.148090
C26   C     C_R   0.832438 0.962853 0.965526 -0.147141
H9    H     H_    0.299936 0.064982 0.059890 0.118660
H10   H     H_    0.700058 0.935088 0.940050 0.119121
C27   C     C_R   0.988160 0.064331 0.066244 -0.045876
C28   C     C_R   0.011835 0.935718 0.933715 -0.044941
C29   C     C_R   0.312728 0.471787 0.471945 0.180632
C30   C     C_R   0.649524 0.488090 0.566113 0.157072
C31   C     C_R   0.332234 0.541476 0.531775 -0.146972
C32   C     C_R   0.637819 0.428522 0.496903 -0.167647
H11   H     H_    0.208711 0.582841 0.546649 0.117773
H12   H     H_    0.742019 0.376816 0.489359 0.137415
C33   C     C_R   0.504976 0.554381 0.576017 -0.059864
C34   C     C_R   0.478595 0.425885 0.443444 -0.059789
C35   C     C_R   0.321639 0.475021 0.033299 -0.143392
C36   C     C_R   0.678212 0.524062 0.965861 -0.149750
H13   H     H_    0.181648 0.457204 0.058167 0.118645
H14   H     H_    0.818155 0.541766 0.940872 0.117478
C37   C     C_R   0.332386 0.538575 0.968073 -0.141997
C38   C     C_R   0.667478 0.460546 0.031126 -0.140559
H15   H     H_    0.200277 0.567853 0.944938 0.118826
H16   H     H_    0.799573 0.431222 0.054220 0.118876
C39   C     C_R   0.510855 0.564166 0.933507 -0.043149
C40   C     C_R   0.489055 0.435206 0.065915 -0.044506
Br1   Br    Br    0.458223 0.251908 0.606893 -0.666236
Br2   Br    Br    0.472345 0.719241 0.387564 -0.603996
C41   C     C_3   0.113130 0.438854 0.449940 -0.343550
C42   C     C_3   0.085072 0.336710 0.473691 -0.622929
H17   H     H_    0.215670 0.295036 0.468349 0.245910
H18   H     H_    0.041629 0.326554 0.538888 0.210136
H19   H     H_    0.977177 0.305339 0.431626 0.191661
H20   H     H_    0.005035 0.480503 0.482287 0.154800
H21   H     H_    0.083904 0.450647 0.382793 0.200838
C43   C     C_3   0.807492 0.475114 0.630824 -0.359372
C44   C     C_3   0.729604 0.448726 0.716847 -0.647118
H22   H     H_    0.850219 0.446169 0.762203 0.200421
H23   H     H_    0.622985 0.497991 0.740149 0.197216
H24   H     H_    0.660723 0.380234 0.714482 0.258313
H25   H     H_    0.902676 0.419497 0.613211 0.187075
H26   H     H_    0.902508 0.536092 0.634636 0.189234

loop_
_geom_bond_atom_site_label_1
_geom_bond_atom_site_label_2
_ccdc_geom_bond_type
C7    C22   S    
C26   C28   A    
C32   H12   S    
C29   C31   A    
C8    C21   S    
O13   V3    S    
C42   H19   S    
C30   C43   S    
C36   C38   A    
V1    O19   S    
C1    C34   S    
C43   H25   S    
C13   C15   A    
O9    V1    S    
C2    C33   S    
C12   C14   A    
C42   H18   S    
C36   C39   A    
O3    C1    A    
C24   C26   A    
C25   H9    S    
O12   V4    S    
C25   C27   A    
O7    C3    A    
O5    C7    A    
O7    V1    S    
O6    C8    A    
O8    V2    S    
C31   H11   S    
C9    H3    S    
O3    V1    S    
O14   V4    S    
V4    O20   S    
O4    C2    A    
C14   C16   A    
C41   H20   S    
C3    C40   S    
C2    O12   A    
C12   Br2   S    
C15   C17   A    
C11   Br1   S    
C16   C18   A    
C35   C40   A    
C18   C20   A    
O11   V3    S    
C26   H10   S    
C23   H7    S    
O17   V3    S    
C41   H21   S    
C24   H8    S    
H1    C14   S    
H2    C13   S    
C42   H17   S    
C36   H14   S    
O8    C4    A    
C44   H22   S    
C35   H13   S    
C23   C25   A    
C1    O11   A    
C30   C33   A    
O15   V3    S    
C29   C41   S    
C30   C32   A    
C44   H23   S    
C37   H15   S    
C23   C28   A    
C41   C42   S    
C29   C34   A    
O10   V2    S    
O1    V3    S    
C4    C39   S    
C10   C20   A    
C17   C19   A    
O18   V4    S    
O15   C5    A    
O16   C6    A    
O1    C3    A    
C9    C19   A    
C10   H4    S    
V2    O20   S    
C19   C22   A    
C20   C21   A    
C6    C28   S    
O16   V4    S    
C9    C11   A    
C38   C40   A    
C38   H16   S    
C43   H26   S    
O5    V1    S    
C24   C27   A    
O17   C7    A    
O6    V2    S    
O10   C6    A    
O18   C8    A    
O2    V4    S    
C10   C12   A    
C11   C13   A    
C44   H24   S    
C35   C37   A    
C43   C44   S    
C32   C34   A    
C37   C39   A    
C31   C33   A    
O9    C5    A    
O13   V1    S    
O14   V2    S    
O2    C4    A    
O4    V2    S    
C5    C27   S    
V3    O19   S    
C17   C21   A    
C15   H5    S    
C18   C22   A    
C16   H6    S    
