data_mof_unit_43057.cif
_audit_creation_date              2012-12-10T17:02:19-0500
_audit_creation_method            fapswitch 2.2
_symmetry_space_group_name_H-M    P1
_symmetry_Int_Tables_number       1
_space_group_crystal_system       triclinic
_cell_length_a                    10.627312
_cell_length_b                    10.629061
_cell_length_c                    10.038801
_cell_angle_alpha                 90.627031
_cell_angle_beta                  90.04516
_cell_angle_gamma                 90.146684
_cell_volume                      1133.89437383

loop_
_atom_site_label
_atom_site_type_symbol
_atom_type_description
_atom_site_fract_x
_atom_site_fract_y
_atom_site_fract_z
_atom_type_partial_charge
C1    C     C_R   0.499658 0.262289 0.499101 0.905447
C2    C     C_2   0.503179 0.129296 0.495217 -0.377202
C3    C     C_2   0.578438 0.565721 0.925813 -0.116209
C4    C     C_R   0.260558 0.497060 0.499908 0.871062
C5    C     C_2   0.583269 0.559474 0.075624 -0.137037
C6    C     C_R   0.511851 0.737252 0.500598 0.925413
C7    C     C_R   0.739399 0.497246 0.499947 0.849246
C8    C     C_R   0.130491 0.279913 0.606114 -0.183999
C9    C     C_R   0.064453 0.177614 0.657112 -0.139706
C10   C     C_R   0.933474 0.177532 0.656729 -0.131902
C11   C     C_R   0.868080 0.279832 0.605535 -0.182798
C12   C     C_R   0.065559 0.384766 0.554565 0.095133
C13   C     C_R   0.933660 0.384787 0.554448 0.093820
C14   C     C_3   0.631464 0.873400 0.271383 -0.336825
C15   C     C_3   0.704548 0.959263 0.177626 -0.934448
C16   C     C_R   0.128229 0.489011 0.499355 -0.096300
C17   C     C_R   0.064461 0.588283 0.440956 -0.203690
C18   C     C_R   0.935836 0.588408 0.441074 -0.214486
C19   C     C_R   0.871599 0.489188 0.499478 -0.087665
C20   C     C_2   0.587391 0.935144 0.401339 0.202625
C21   C     C_2   0.542502 0.868667 0.504961 -0.431606
C22   C     C_2   0.588233 0.072213 0.417401 -0.146102
H1    H     H_    0.114633 0.666855 0.397649 0.151039
H2    H     H_    0.766470 0.274974 0.604750 0.148526
H3    H     H_    0.886066 0.667062 0.397857 0.140710
H4    H     H_    0.530926 0.912549 0.602423 0.150749
H5    H     H_    0.654536 0.128606 0.361188 0.171615
H6    H     H_    0.643967 0.037360 0.142888 0.270516
H7    H     H_    0.789636 0.997599 0.228173 0.263775
H8    H     H_    0.735317 0.904144 0.088893 0.252100
H9    H     H_    0.694330 0.793345 0.295486 0.200737
H10   H     H_    0.548326 0.836929 0.215872 0.229419
H11   H     H_    0.432119 0.080223 0.552338 0.139738
H12   H     H_    0.645829 0.626672 0.877120 0.160062
H13   H     H_    0.442129 0.438340 0.897061 0.165085
H14   H     H_    0.659547 0.608898 0.125570 0.157881
H15   H     H_    0.425314 0.460276 0.101625 0.167604
H16   H     H_    0.232088 0.275120 0.605817 0.137996
H17   H     H_    0.115071 0.097730 0.695981 0.135339
H18   H     H_    0.882359 0.097577 0.695245 0.139287
N1    N     N_2   0.501340 0.501330 0.852150 -0.189817
N2    N     N_2   0.501380 0.501360 0.147810 -0.191472
O1    O     O_R   0.499980 0.319060 0.613040 -0.622055
O2    O     O_R   0.500020 0.319100 0.386900 -0.597967
O3    O     O_R   0.316750 0.499980 0.613090 -0.612827
O4    O     O_R   0.316790 0.500020 0.386950 -0.609339
O5    O     O_R   0.499980 0.680900 0.613100 -0.604806
O6    O     O_R   0.500020 0.680940 0.386960 -0.619007
O7    O     O_R   0.683210 0.499980 0.613050 -0.615287
O8    O     O_R   0.683250 0.500020 0.386910 -0.618772
Zn1   Zn    Zn3+2 0.499970 0.499970 0.650990 0.940364
Zn2   Zn    Zn3+2 0.500030 0.500030 0.349010 0.936037

loop_
_geom_bond_atom_site_label_1
_geom_bond_atom_site_label_2
_ccdc_geom_bond_type
C2    C22   D    
O8    Zn2   S    
C21   H4    S    
C4    C16   S    
C14   C20   S    
C9    C10   A    
C1    O2    A    
C9    H17   S    
C14   H9    S    
C8    C12   A    
O2    Zn2   S    
C17   C18   A    
C4    O4    A    
C12   C13   A    
C11   C13   A    
O1    Zn1   S    
C15   H6    S    
C17   H1    S    
C18   H3    S    
C8    H16   S    
C1    C2    S    
C2    H11   S    
N1    Zn1   S    
C20   C22   S    
C15   H7    S    
C7    C19   S    
C4    O3    A    
C22   H5    S    
H13   N1    S    
C16   C17   A    
C10   C11   A    
C13   C19   A    
C5    H14   S    
O4    Zn2   S    
C11   H2    S    
O6    Zn2   S    
C5    N2    D    
C20   C21   D    
C7    O7    A    
C15   H8    S    
C10   H18   S    
C18   C19   A    
C6    O5    A    
C14   H10   S    
H15   N2    S    
O3    Zn1   S    
C14   C15   S    
C3    N1    D    
O5    Zn1   S    
C3    H12   S    
C3    C5    S    
C6    C21   S    
C1    O1    A    
C12   C16   A    
C7    O8    A    
N2    Zn2   S    
C8    C9    A    
O7    Zn1   S    
C6    O6    A    
