data_mof_unit_46238.cif
_audit_creation_date              2012-12-10T20:55:46-0500
_audit_creation_method            fapswitch 2.2
_symmetry_space_group_name_H-M    P1
_symmetry_Int_Tables_number       1
_space_group_crystal_system       triclinic
_cell_length_a                    15.864624
_cell_length_b                    15.060128
_cell_length_c                    10.652979
_cell_angle_alpha                 87.836652
_cell_angle_beta                  91.897432
_cell_angle_gamma                 93.025045
_cell_volume                      2538.65112833

loop_
_atom_site_label
_atom_site_type_symbol
_atom_type_description
_atom_site_fract_x
_atom_site_fract_y
_atom_site_fract_z
_atom_type_partial_charge
C1    C     C_1   0.250559 0.490278 0.503728 -0.180782
C2    C     C_1   0.749711 0.506613 0.494260 -0.183004
C3    C     C_R   0.468870 0.492223 0.872356 -0.270000
C4    C     C_R   0.518793 0.506274 0.123088 -0.262755
C5    C     C_R   0.496743 0.904778 0.504911 -0.047503
C6    C     C_R   0.499103 0.095148 0.501718 -0.048791
C7    C     C_R   0.438561 0.951710 0.426387 -0.047063
C8    C     C_R   0.551659 0.048337 0.588589 -0.043382
C9    C     C_R   0.553936 0.953484 0.585444 -0.040651
C10   C     C_R   0.444774 0.046717 0.417494 -0.045517
C11   C     C_R   0.965239 0.574881 0.527721 -0.055025
C12   C     C_R   0.035578 0.412454 0.471369 -0.059017
C13   C     C_R   0.052317 0.565076 0.546403 -0.054421
C14   C     C_R   0.947570 0.420321 0.460431 -0.060800
C15   C     C_R   0.338795 0.497481 0.499615 0.894643
C16   C     C_R   0.661288 0.502155 0.499378 0.905048
C17   C     C_R   0.509939 0.502383 0.259180 0.884189
C18   C     C_R   0.485766 0.497364 0.738574 0.891521
C19   C     C_R   0.913620 0.501818 0.487972 0.023411
C20   C     C_R   0.086666 0.485431 0.513216 0.023516
C21   C     C_1   0.498498 0.806862 0.502337 0.055892
C22   C     C_1   0.499852 0.193071 0.500621 0.054456
C23   C     C_1   0.824444 0.506694 0.490027 -0.038266
C24   C     C_1   0.175860 0.484642 0.508245 -0.038259
C25   C     C_R   0.505807 0.670855 0.096738 -0.156138
C26   C     C_R   0.475369 0.328370 0.897201 -0.133990
C27   C     C_R   0.416587 0.643404 0.871587 -0.134765
C28   C     C_R   0.566095 0.351488 0.121913 -0.135873
C29   C     C_R   0.470638 0.742269 0.030118 -0.199857
C30   C     C_R   0.507922 0.255319 0.962196 -0.116616
C31   C     C_R   0.421570 0.727450 0.921866 -0.179133
C32   C     C_R   0.556133 0.267279 0.072167 -0.131457
C33   C     C_R   0.458879 0.572482 0.931974 0.085305
C34   C     C_R   0.525793 0.424711 0.063383 0.082415
C35   C     C_R   0.494428 0.583198 0.052753 0.092467
C36   C     C_R   0.489567 0.415008 0.943014 0.085598
H1    H     H_    0.584009 0.211094 0.120787 0.123322
H2    H     H_    0.391114 0.782070 0.873282 0.131100
H3    H     H_    0.496314 0.189615 0.926124 0.135290
H4    H     H_    0.481138 0.809287 0.062345 0.135943
H5    H     H_    0.545010 0.686067 0.178755 0.157667
H6    H     H_    0.436905 0.315963 0.813333 0.148379
H7    H     H_    0.380658 0.634216 0.784382 0.153578
H8    H     H_    0.604792 0.358730 0.206899 0.147688
N1    N     N_1   0.500000 0.270550 0.500000 -0.094061
N2    N     N_1   0.500000 0.729450 0.500000 -0.093514
O1    O     O_R   0.378020 0.573650 0.500040 -0.605450
O2    O     O_R   0.621980 0.426350 0.499960 -0.609824
O3    O     O_R   0.621980 0.573650 0.499960 -0.605354
O4    O     O_R   0.378020 0.426350 0.500040 -0.620391
O5    O     O_R   0.499990 0.573670 0.316780 -0.624038
O6    O     O_R   0.500010 0.426330 0.683220 -0.616211
O7    O     O_R   0.500010 0.573670 0.683220 -0.605952
O8    O     O_R   0.499990 0.426330 0.316780 -0.604744
Zn1   Zn    Zn3+2 0.500000 0.598370 0.500000 0.970261
Zn2   Zn    Zn3+2 0.500000 0.401630 0.500000 0.965125
C37   C     C_R   0.107816 0.636170 0.605209 0.134249
C38   C     C_R   0.145839 0.619364 0.724266 -0.167384
C39   C     C_R   0.195394 0.685954 0.783415 -0.160927
C40   C     C_R   0.207003 0.769945 0.724665 -0.120921
C41   C     C_R   0.169566 0.787208 0.606350 -0.114621
C42   C     C_R   0.121192 0.720319 0.545558 -0.112127
H9    H     H_    0.136237 0.554915 0.771718 0.123809
H10   H     H_    0.224059 0.672707 0.875376 0.133782
H11   H     H_    0.244522 0.821863 0.771136 0.116363
H12   H     H_    0.177308 0.852885 0.562771 0.127329
H13   H     H_    0.092785 0.734551 0.453661 0.125672
C43   C     C_R   0.890934 0.343551 0.420633 0.144409
C44   C     C_R   0.886879 0.263740 0.493484 -0.132436
C45   C     C_R   0.836214 0.190850 0.453174 -0.149045
C46   C     C_R   0.788123 0.197508 0.341186 -0.126106
C47   C     C_R   0.791088 0.276893 0.268835 -0.145462
C48   C     C_R   0.842467 0.349615 0.308008 -0.158083
H14   H     H_    0.923335 0.257884 0.580899 0.121170
H15   H     H_    0.833715 0.129374 0.509278 0.122566
H16   H     H_    0.748434 0.141218 0.310639 0.116444
H17   H     H_    0.753972 0.281898 0.181988 0.120048
H18   H     H_    0.845076 0.410389 0.250254 0.120014
C49   C     C_R   0.929489 0.662914 0.542088 0.136005
C50   C     C_R   0.898647 0.709698 0.435093 -0.161223
C51   C     C_R   0.877789 0.798229 0.442866 -0.144009
C52   C     C_R   0.888486 0.840733 0.556938 -0.100305
C53   C     C_R   0.916871 0.793710 0.664585 -0.127459
C54   C     C_R   0.935695 0.704582 0.657929 -0.130869
H19   H     H_    0.893960 0.678681 0.344852 0.122624
H20   H     H_    0.855561 0.834596 0.359747 0.123499
H21   H     H_    0.875150 0.910224 0.561501 0.112347
H22   H     H_    0.926017 0.826534 0.752906 0.115406
H23   H     H_    0.959313 0.669487 0.741353 0.125113
C55   C     C_R   0.073542 0.327594 0.441964 0.141221
C56   C     C_R   0.062579 0.292747 0.321589 -0.140453
C57   C     C_R   0.090578 0.208618 0.298301 -0.146938
C58   C     C_R   0.130718 0.159258 0.394286 -0.116603
C59   C     C_R   0.144056 0.194493 0.513214 -0.160386
C60   C     C_R   0.115465 0.278268 0.537253 -0.154700
H24   H     H_    0.030748 0.329917 0.246784 0.124090
H25   H     H_    0.081071 0.181607 0.205881 0.128290
H26   H     H_    0.152300 0.094124 0.376061 0.126387
H27   H     H_    0.175729 0.156440 0.587157 0.121224
H28   H     H_    0.124100 0.303771 0.630779 0.120660
C61   C     C_R   0.398256 0.094737 0.313481 0.117925
C62   C     C_R   0.407829 0.071324 0.188282 -0.136000
C63   C     C_R   0.364655 0.115282 0.089972 -0.140274
C64   C     C_R   0.314086 0.185263 0.114879 -0.112929
C65   C     C_R   0.304764 0.209732 0.238550 -0.105795
C66   C     C_R   0.344804 0.163352 0.337746 -0.148867
H29   H     H_    0.448643 0.018856 0.166822 0.115628
H30   H     H_    0.371439 0.095923 0.994172 0.113966
H31   H     H_    0.282090 0.220466 0.038374 0.117357
H32   H     H_    0.265768 0.264154 0.257731 0.149820
H33   H     H_    0.334228 0.181213 0.433227 0.129865
C67   C     C_R   0.615790 0.905792 0.669042 0.110409
C68   C     C_R   0.701595 0.934741 0.673364 -0.118200
C69   C     C_R   0.756447 0.900581 0.766056 -0.121836
C70   C     C_R   0.728578 0.831542 0.847950 -0.123695
C71   C     C_R   0.644717 0.798847 0.840243 -0.120499
C72   C     C_R   0.588074 0.837213 0.753482 -0.143601
H34   H     H_    0.725069 0.987036 0.609118 0.114317
H35   H     H_    0.820573 0.928146 0.774604 0.112147
H36   H     H_    0.771791 0.803844 0.917849 0.117412
H37   H     H_    0.623314 0.745184 0.903537 0.153969
H38   H     H_    0.522354 0.814750 0.753536 0.138922
C73   C     C_R   0.604147 0.098416 0.684393 0.112147
C74   C     C_R   0.598592 0.074487 0.812954 -0.149722
C75   C     C_R   0.653539 0.114991 0.901472 -0.143507
C76   C     C_R   0.712011 0.182431 0.863507 -0.109530
C77   C     C_R   0.716763 0.208272 0.736536 -0.122270
C78   C     C_R   0.663856 0.165868 0.647191 -0.152993
H39   H     H_    0.552935 0.023072 0.844300 0.121826
H40   H     H_    0.650086 0.094678 0.999775 0.116886
H41   H     H_    0.753635 0.214591 0.932482 0.117694
H42   H     H_    0.762246 0.260366 0.707098 0.137863
H43   H     H_    0.670217 0.184723 0.548864 0.143654
C79   C     C_R   0.366264 0.903013 0.360470 0.128434
C80   C     C_R   0.283274 0.928866 0.375489 -0.139895
C81   C     C_R   0.215098 0.885750 0.312358 -0.156900
C82   C     C_R   0.228546 0.814759 0.236283 -0.118893
C83   C     C_R   0.310342 0.787785 0.221587 -0.116309
C84   C     C_R   0.378980 0.832368 0.281902 -0.146504
H44   H     H_    0.271290 0.982465 0.436411 0.112030
H45   H     H_    0.151640 0.906549 0.324077 0.119499
H46   H     H_    0.175592 0.780539 0.188945 0.118909
H47   H     H_    0.320392 0.732397 0.163077 0.150157
H48   H     H_    0.441983 0.811819 0.267557 0.120504

loop_
_geom_bond_atom_site_label_1
_geom_bond_atom_site_label_2
_ccdc_geom_bond_type
C7    C10   A    
C82   H46   S    
C61   C62   A    
C15   O1    A    
C65   H32   S    
C17   O5    A    
C69   C70   A    
C55   C56   A    
C18   O6    A    
C80   C81   A    
C27   C33   A    
C11   C19   A    
C39   H10   S    
C76   C77   A    
C42   H13   S    
C3    C36   A    
C12   C55   S    
C21   N2    T    
C83   H47   S    
C49   C54   A    
C50   C51   A    
C13   C37   S    
C3    C33   A    
C52   H21   S    
C6    C22   S    
C38   H9    S    
C71   C72   A    
C3    C18   S    
C15   O4    A    
C77   H42   S    
C67   C68   A    
C18   O7    A    
C56   H24   S    
C41   H12   S    
C20   C24   S    
N1    Zn2   S    
C8    C9    A    
N2    Zn1   S    
C74   H39   S    
C48   H18   S    
C45   C46   A    
C1    C15   S    
C2    C16   S    
C34   C36   A    
C69   H35   S    
C47   C48   A    
C41   C42   A    
C9    C67   S    
C53   H22   S    
C4    C35   A    
C28   C34   A    
C39   C40   A    
C16   O2    A    
C59   C60   A    
C75   H40   S    
C64   C65   A    
C57   H25   S    
C51   C52   A    
O8    Zn2   S    
C66   H33   S    
O7    Zn1   S    
C25   C29   A    
C80   H44   S    
C4    C34   A    
C71   H37   S    
C27   C31   A    
C73   C74   A    
C16   O3    A    
C7    C79   S    
C25   H5    S    
C56   C57   A    
C5    C7    A    
C60   H28   S    
C43   C44   A    
C6    C8    A    
C37   C42   A    
C43   C48   A    
O3    Zn1   S    
C28   H8    S    
O4    Zn2   S    
C68   H34   S    
C40   C41   A    
C19   C23   S    
C72   H38   S    
C5    C9    A    
C50   H19   S    
C84   H48   S    
C53   C54   A    
C28   C32   A    
C12   C20   A    
C44   H14   S    
C58   C59   A    
C32   H1    S    
C63   H30   S    
C11   C49   S    
C25   C35   A    
C4    C17   S    
C26   C36   A    
C12   C14   A    
C40   H11   S    
C26   C30   A    
C75   C76   A    
C54   H23   S    
C77   C78   A    
C62   H29   S    
C79   C84   A    
C26   H6    S    
C2    C23   T    
O1    Zn1   S    
C68   C69   A    
C65   C66   A    
C61   C66   A    
O2    Zn2   S    
C13   C20   A    
C14   C19   A    
C10   C61   S    
C51   H20   S    
C81   C82   A    
C55   C60   A    
C6    C10   A    
C47   H17   S    
C8    C73   S    
C79   C80   A    
C82   C83   A    
C31   H2    S    
C67   C72   A    
C59   H27   S    
C38   C39   A    
C46   C47   A    
C29   C31   A    
C78   H43   S    
C30   C32   A    
C11   C13   A    
C37   C38   A    
C46   H16   S    
O6    Zn2   S    
C76   H41   S    
C58   H26   S    
C29   H4    S    
C57   C58   A    
C33   C35   A    
C81   H45   S    
C30   H3    S    
O5    Zn1   S    
C62   C63   A    
C44   C45   A    
C83   C84   A    
C49   C50   A    
C27   H7    S    
C22   N1    T    
C5    C21   S    
C45   H15   S    
C1    C24   T    
C70   H36   S    
C73   C78   A    
C63   C64   A    
C14   C43   S    
C64   H31   S    
C52   C53   A    
C17   O8    A    
C70   C71   A    
C74   C75   A    
