data_mof_unit_35382.cif
_audit_creation_date              2012-12-11T16:53:23-0500
_audit_creation_method            fapswitch 2.2
_symmetry_space_group_name_H-M    P1
_symmetry_Int_Tables_number       1
_space_group_crystal_system       triclinic
_cell_length_a                    14.939938
_cell_length_b                    14.75406
_cell_length_c                    17.050114
_cell_angle_alpha                 108.74874
_cell_angle_beta                  106.278334
_cell_angle_gamma                 108.348937
_cell_volume                      3058.53315762

loop_
_atom_site_label
_atom_site_type_symbol
_atom_type_description
_atom_site_fract_x
_atom_site_fract_y
_atom_site_fract_z
_atom_type_partial_charge
C1    C     C_R   0.087118 0.281596 0.069503 -0.114584
C2    C     C_R   0.062907 0.524806 0.265186 -0.120251
C3    C     C_R   0.230687 0.800103 0.187140 -0.128078
C4    C     C_R   0.935493 0.519624 0.747598 -0.107249
C5    C     C_R   0.726374 0.453994 0.037664 0.407659
C6    C     C_R   0.255365 0.807228 0.274205 0.067291
C7    C     C_R   0.704005 0.535006 0.026911 -0.015812
C8    C     C_R   0.970941 0.504754 0.275327 0.063238
C9    C     C_R   0.999603 0.814521 0.960953 0.058065
C10   C     C_R   0.516999 0.647484 0.033165 0.153887
C11   C     C_R   0.469617 0.597824 0.078124 0.029726
C12   C     C_R   0.026722 0.582080 0.747095 0.066990
C13   C     C_R   0.527714 0.569071 0.137580 -0.186040
C14   C     C_R   0.616590 0.562179 0.130857 -0.129983
C15   C     C_R   0.644227 0.582142 0.063653 0.058928
C16   C     C_R   0.721873 0.213401 0.823065 -0.093383
C17   C     C_R   0.603900 0.639742 0.026101 0.150742
C18   C     C_3   0.569574 0.628884 0.930836 -0.498407
C19   C     C_3   0.474045 0.637023 0.938180 -0.502658
C20   C     C_R   0.961473 0.545611 0.361190 0.137152
C21   C     C_R   0.034247 0.624135 0.681181 0.122373
C22   C     C_R   0.137353 0.687119 0.606122 -0.200042
C23   C     C_R   0.667088 0.216159 0.744121 0.048136
C24   C     C_R   0.131687 0.678468 0.683473 -0.157778
C25   C     C_R   0.942970 0.595076 0.607040 -0.265034
C26   C     C_R   0.947908 0.595319 0.527301 0.184642
C27   C     C_R   0.046007 0.637049 0.525742 0.185476
C28   C     C_R   0.298943 0.593309 0.000467 -0.137582
C29   C     C_R   0.051658 0.615803 0.442536 -0.250692
C30   C     C_R   0.863388 0.514120 0.363268 -0.160275
C31   C     C_R   0.856650 0.540893 0.446423 -0.206447
C32   C     C_R   0.559264 0.142869 0.677493 0.132322
C33   C     C_R   0.298221 0.903297 0.360131 0.103954
C34   C     C_R   0.358478 0.560112 0.050605 0.078599
C35   C     C_R   0.399384 0.094702 0.447563 -0.111568
C36   C     C_R   0.336210 0.005121 0.363678 -0.113876
C37   C     C_R   0.310889 0.893389 0.441183 -0.254086
C38   C     C_R   0.380892 0.980951 0.524545 0.186518
C39   C     C_R   0.428350 0.081626 0.527110 0.153421
C40   C     C_R   0.729122 0.309790 0.746019 -0.111104
C41   C     C_R   0.513645 0.163727 0.605658 -0.248262
C42   C     C_R   0.505706 0.046382 0.678522 -0.150888
C43   C     C_R   0.414753 0.966405 0.602839 -0.213128
C44   C     C_R   0.066153 0.132916 0.158835 0.020025
C45   C     C_R   0.232821 0.704968 0.265318 -0.126791
C46   C     C_R   0.994528 0.103221 0.070881 0.031971
C47   C     C_R   0.910452 0.997853 0.022923 0.001730
C48   C     C_R   0.893431 0.934829 0.069893 -0.250251
C49   C     C_R   0.958527 0.973770 0.162168 0.146924
C50   C     C_R   0.048370 0.069613 0.203187 -0.025563
C51   C     C_3   0.093024 0.164149 0.293718 0.851916
C52   C     C_R   0.295521 0.496991 0.077478 -0.107655
C53   C     C_3   0.113178 0.234012 0.245489 -0.637567
C54   C     C_R   0.108483 0.604167 0.824566 -0.119157
C55   C     C_R   0.914416 0.197808 0.992838 -0.099472
C56   C     C_R   0.748224 0.563515 0.972493 -0.206085
C57   C     C_R   0.999814 0.185464 0.037543 0.048631
C58   C     C_R   0.837362 0.953304 0.925791 0.125047
C59   C     C_R   0.729077 0.906876 0.898617 -0.178868
C60   C     C_R   0.660454 0.866850 0.807366 -0.119354
C61   C     C_R   0.699148 0.872235 0.742455 -0.095534
C62   C     C_R   0.806563 0.917210 0.768603 -0.102187
C63   C     C_R   0.875516 0.957429 0.859798 -0.145974
C64   C     C_R   0.890312 0.445266 0.188774 -0.141623
C65   C     C_R   0.084265 0.802038 0.006170 -0.120875
C66   C     C_R   0.913822 0.718231 0.929183 -0.133916
Cl1   Cl    Cl    0.638318 0.343904 0.040370 -0.713706
Cl2   Cl    Cl    0.000378 0.173271 0.339440 -0.608117
Cl3   Cl    Cl    0.208645 0.177298 0.373600 -0.656151
H1    H     H_    0.164750 0.306238 0.118342 0.111069
H2    H     H_    0.621390 0.698583 0.926767 0.184420
H3    H     H_    0.856447 0.498019 0.704243 0.086396
H4    H     H_    0.551344 0.549235 0.878649 0.215638
H5    H     H_    0.470870 0.711239 0.937970 0.187827
H6    H     H_    0.401523 0.561911 0.889908 0.213705
H7    H     H_    0.127448 0.646331 0.442134 0.109907
H8    H     H_    0.791864 0.464598 0.301544 0.135206
H9    H     H_    0.213107 0.721794 0.606283 0.121745
H10   H     H_    0.780788 0.510271 0.446984 0.132438
H11   H     H_    0.203721 0.706368 0.741440 0.115963
H12   H     H_    0.745816 0.622944 0.949620 0.128088
H13   H     H_    0.867206 0.558699 0.605867 0.117021
H14   H     H_    0.550501 0.239175 0.605117 0.117886
H15   H     H_    0.692241 0.159638 0.850173 0.111433
H16   H     H_    0.537121 0.029315 0.734392 0.121435
H17   H     H_    0.434095 0.172122 0.449069 0.147177
H18   H     H_    0.377915 0.889775 0.602029 0.120233
H19   H     H_    0.323527 0.015603 0.302239 0.129505
H20   H     H_    0.276372 0.816152 0.439761 0.112610
H21   H     H_    0.827059 0.856933 0.035995 0.128866
H22   H     H_    0.066185 0.279344 0.243768 0.223433
H23   H     H_    0.809392 0.408794 0.172739 0.166484
H24   H     H_    0.325722 0.657381 0.982438 0.101574
H25   H     H_    0.197144 0.282297 0.265887 0.210440
H26   H     H_    0.708286 0.346116 0.702566 0.090027
H27   H     H_    0.319948 0.469220 0.127351 0.091489
H28   H     H_    0.188896 0.661477 0.852236 0.085139
H29   H     H_    0.833763 0.147363 0.973418 0.118223
H30   H     H_    0.253618 0.682688 0.319335 0.086726
H31   H     H_    0.697775 0.903304 0.948255 0.123716
H32   H     H_    0.577238 0.832023 0.787049 0.116107
H33   H     H_    0.645893 0.841473 0.671891 0.110350
H34   H     H_    0.164669 0.856456 0.029236 0.096462
H35   H     H_    0.836433 0.920995 0.718192 0.122167
H36   H     H_    0.958558 0.991804 0.878995 0.119459
H37   H     H_    0.836419 0.695215 0.881004 0.099854
H38   H     H_    0.139333 0.555662 0.317967 0.091738
H39   H     H_    0.240762 0.864536 0.168457 0.097215
H40   H     H_    0.498388 0.539024 0.179902 0.131406
H41   H     H_    0.654637 0.528831 0.169384 0.159673
N1    N     N_R   0.055640 0.348550 0.045600 -0.046447
N2    N     N_R   0.811290 0.303400 0.871650 -0.043678
N3    N     N_R   0.205180 0.552990 0.997660 -0.040738
N4    N     N_R   0.814810 0.361830 0.823710 -0.043384
N5    N     N_R   0.201660 0.494570 0.045600 -0.043340
N6    N     N_R   0.068420 0.560530 0.871650 -0.040373
N7    N     N_R   0.948050 0.295860 0.997660 -0.045954
N8    N     N_R   0.185190 0.638170 0.176290 -0.042035
N9    N     N_R   0.798340 0.505430 0.954400 -0.056352
N10   N     N_R   0.931580 0.439470 0.128350 -0.042941
N11   N     N_R   0.051950 0.704140 0.002340 -0.041926
N12   N     N_R   0.944360 0.651450 0.954400 -0.039854
N13   N     N_R   0.039170 0.492150 0.176290 -0.043757
N14   N     N_R   0.188710 0.696600 0.128350 -0.042363
N15   N     N_R   0.794820 0.447010 0.002340 -0.072370
N16   N     N_R   0.960830 0.507850 0.823710 -0.041675
Ni1   Ni    Ni4+2 0.119330 0.493420 0.109950 0.210052
Ni2   Ni    Ni4+2 0.880670 0.506580 0.890050 0.210699
Ni3   Ni    Ni4+2 0.872590 0.372590 0.000000 0.257663
Ni4   Ni    Ni4+2 0.127410 0.627410 0.000000 0.209216

loop_
_geom_bond_atom_site_label_1
_geom_bond_atom_site_label_2
_ccdc_geom_bond_type
C45   N8    A    
C6    C45   A    
C27   C29   A    
C35   C36   A    
N11   Ni4   S    
C5    Cl1   S    
C3    C6    A    
N2    N4    A    
C56   H12   S    
C39   C41   A    
C29   H7    S    
C20   C30   A    
C2    N13   A    
C36   H19   S    
C26   C27   A    
C62   C63   A    
C8    C20   S    
C28   N3    A    
C30   C31   A    
C35   H17   S    
C10   C17   A    
C23   C40   A    
C41   H14   S    
C2    H38   S    
C16   H15   S    
C33   C36   A    
N5    Ni1   S    
C15   C17   A    
C18   C19   S    
C9    C66   A    
C13   H40   S    
C30   H8    S    
C44   C53   S    
C24   H11   S    
C40   N4    A    
C54   N6    A    
C53   H22   S    
C32   C41   A    
C66   N12   A    
C54   H28   S    
C65   N11   A    
N2    Ni3   S    
C4    C12   A    
N7    Ni3   S    
N10   N13   A    
N9    Ni2   S    
C7    C15   S    
C28   C34   A    
C59   C60   A    
C48   H21   S    
C13   C14   A    
C59   H31   S    
C7    C56   A    
C66   H37   S    
C44   C46   A    
C50   C51   S    
C62   H35   S    
C20   C29   A    
C11   C34   S    
N3    Ni4   S    
N10   Ni3   S    
C22   H9    S    
C45   H30   S    
C5    C7    A    
C25   C26   A    
C12   C21   S    
C33   C37   A    
C28   H24   S    
C51   C53   S    
C35   C39   A    
C37   C38   A    
C1    C57   A    
N4    Ni2   S    
N13   Ni1   S    
C47   C48   A    
C10   C19   S    
C17   C18   S    
N14   Ni4   S    
C42   H16   S    
N8    N14   A    
N11   N12   A    
C8    C64   A    
N9    N15   A    
C48   C49   A    
C18   H4    S    
C22   C27   A    
C55   C57   A    
C46   C57   S    
N1    Ni1   S    
C25   H13   S    
C56   N9    A    
C22   C24   A    
C63   H36   S    
N8    Ni1   S    
C65   H34   S    
C40   H26   S    
C60   H32   S    
C4    H3    S    
C3    N14   A    
C16   N2    A    
C55   N7    A    
C52   N5    A    
C44   C50   A    
C18   H2    S    
C14   H41   S    
C21   C25   A    
C46   C47   A    
N16   Ni2   S    
C53   H25   S    
C19   H5    S    
C2    C8    A    
C58   C63   A    
C31   H10   S    
C4    N16   A    
C3    H39   S    
C16   C23   A    
C34   C52   A    
C1    H1    S    
C64   N10   A    
C6    C33   S    
C37   H20   S    
N1    N7    A    
C43   H18   S    
C23   C32   S    
C19   H6    S    
C61   H33   S    
C58   C59   A    
C38   C43   A    
C1    N1    A    
C47   C58   S    
C11   C13   A    
C38   C39   A    
C55   H29   S    
C52   H27   S    
C51   Cl2   S    
N12   Ni2   S    
C61   C62   A    
C9    C65   A    
C10   C11   A    
N15   Ni3   S    
C26   C31   A    
N6    Ni4   S    
C49   C50   A    
C42   C43   A    
C21   C24   A    
C5    N15   A    
C32   C42   A    
C14   C15   A    
C60   C61   A    
N6    N16   A    
C51   Cl3   S    
C64   H23   S    
C12   C54   A    
N3    N5    A    
