data_mof_unit_38394.cif
_audit_creation_date              2012-12-11T15:52:22-0500
_audit_creation_method            fapswitch 2.2
_symmetry_space_group_name_H-M    P1
_symmetry_Int_Tables_number       1
_space_group_crystal_system       triclinic
_cell_length_a                    11.074192
_cell_length_b                    11.132939
_cell_length_c                    18.739695
_cell_angle_alpha                 90.188139
_cell_angle_beta                  89.793394
_cell_angle_gamma                 119.813377
_cell_volume                      2004.58835252

loop_
_atom_site_label
_atom_site_type_symbol
_atom_type_description
_atom_site_fract_x
_atom_site_fract_y
_atom_site_fract_z
_atom_type_partial_charge
C1    C     C_R   0.519961 0.457534 0.147647 0.539001
C2    C     C_3   0.983554 0.725749 0.466649 0.041778
C3    C     C_3   0.709974 0.952342 0.440621 0.042566
C4    C     C_3   0.275163 0.262713 0.457839 0.026693
C5    C     C_R   0.518502 0.456435 0.353533 0.532692
C6    C     C_R   0.541615 0.059053 0.352684 0.535448
C7    C     C_R   0.873004 0.453412 0.360779 0.572359
C8    C     C_R   0.454733 0.521048 0.645525 0.534280
C9    C     C_R   0.060125 0.542394 0.646810 0.535983
C10   C     C_R   0.453389 0.873000 0.638862 0.566830
C11   C     C_R   0.484991 0.954957 0.931311 0.019478
C12   C     C_R   0.542091 0.062001 0.147685 0.539796
C13   C     C_R   0.043786 0.530144 0.931090 0.019912
C14   C     C_R   0.469784 0.514593 0.931217 0.020380
C15   C     C_R   0.006973 0.501464 0.079183 0.011112
C16   C     C_R   0.495169 0.993066 0.079326 0.011780
C17   C     C_R   0.497652 0.504087 0.079255 0.011871
C18   C     C_R   0.400316 0.998538 0.963802 -0.001032
C19   C     C_R   0.999343 0.402166 0.962902 0.000483
C20   C     C_R   0.597737 0.598619 0.963507 -0.000220
C21   C     C_R   0.979148 0.387527 0.035849 0.004992
C22   C     C_R   0.406873 0.019384 0.036715 0.006005
C23   C     C_R   0.937951 0.479762 0.147696 0.544604
C24   C     C_R   0.611988 0.591882 0.036390 0.006458
C25   C     C_R   0.560804 0.925637 0.048536 -0.161727
C26   C     C_R   0.075224 0.634019 0.048933 -0.161239
C27   C     C_R   0.364701 0.438787 0.048708 -0.161605
C28   C     C_R   0.092315 0.648114 0.975189 -0.147382
C29   C     C_R   0.556701 0.907795 0.974818 -0.147185
C30   C     C_R   0.351022 0.443043 0.975019 -0.146554
C31   C     C_3   0.390634 0.124834 0.948628 -0.283401
C32   C     C_3   0.871485 0.267580 0.947582 -0.282755
C33   C     C_3   0.734321 0.608084 0.947938 -0.282407
C34   C     C_R   0.451263 0.523565 0.855308 0.543828
C35   C     C_3   0.848211 0.251385 0.027500 -0.241673
C36   C     C_3   0.398929 0.148947 0.028498 -0.240722
C37   C     C_3   0.750055 0.599641 0.027745 -0.241601
C38   C     C_R   0.461756 0.899693 0.562326 -0.003786
C39   C     C_R   0.976995 0.494998 0.581673 -0.002936
C40   C     C_R   0.479985 0.505602 0.572081 0.027483
C41   C     C_R   0.897572 0.461560 0.437254 0.005258
C42   C     C_R   0.491469 0.975762 0.417236 -0.006909
C43   C     C_R   0.495846 0.495562 0.423764 -0.015571
C44   C     C_R   0.548740 0.875137 0.517274 0.005404
C45   C     C_R   0.071915 0.548884 0.855254 0.546030
C46   C     C_R   0.937530 0.582465 0.548693 -0.006761
C47   C     C_R   0.364572 0.418798 0.531822 0.035706
C48   C     C_R   0.902311 0.569871 0.477493 -0.013176
C49   C     C_R   0.560384 0.910789 0.445647 -0.000448
C50   C     C_R   0.367623 0.417831 0.458325 0.009544
C51   C     C_R   0.393735 0.984629 0.460123 -0.143324
C52   C     C_R   0.915424 0.360863 0.472580 -0.169983
C53   C     C_R   0.613484 0.581061 0.464843 -0.162780
C54   C     C_R   0.960712 0.380219 0.543526 -0.170335
C55   C     C_R   0.378906 0.947022 0.531377 -0.166995
C56   C     C_R   0.476508 0.928033 0.855364 0.550532
C57   C     C_R   0.605746 0.587251 0.538554 -0.179049
C58   C     C_3   0.853102 0.061902 0.622373 -0.267269
C59   C     C_3   0.065861 0.925819 0.624157 -0.321356
C60   C     C_3   0.397786 0.207400 0.638413 -0.289884
C61   C     C_3   0.123507 0.862872 0.362735 -0.287842
C62   C     C_3   0.835172 0.911624 0.344027 -0.336087
C63   C     C_3   0.123228 0.249601 0.359423 -0.288502
C64   C     C_3   0.703414 0.926981 0.520537 0.046508
C65   C     C_3   0.020936 0.735601 0.544782 0.044448
C66   C     C_3   0.286719 0.265795 0.538504 0.020594
Cr1   Cr    Cr6+3 0.769160 0.541570 0.250690 0.974051
Cr2   Cr    Cr6+3 0.458430 0.227590 0.250690 0.969404
Cr3   Cr    Cr6+3 0.772410 0.230840 0.250690 0.970541
Cr4   Cr    Cr6+3 0.541570 0.769160 0.749310 0.985038
Cr5   Cr    Cr6+3 0.227590 0.458430 0.749310 0.982485
Cr6   Cr    Cr6+3 0.230840 0.772410 0.749310 0.974405
H1    H     H_    0.625961 0.899119 0.080108 0.133038
H2    H     H_    0.754111 0.255365 0.044772 0.144518
H3    H     H_    0.496503 0.243153 0.044948 0.145987
H4    H     H_    0.747519 0.502485 0.044042 0.145223
H5    H     H_    0.482681 0.205348 0.919166 0.129156
H6    H     H_    0.790641 0.280085 0.918886 0.128805
H7    H     H_    0.723715 0.516533 0.918340 0.129405
H8    H     H_    0.858292 0.164390 0.049778 0.148041
H9    H     H_    0.301628 0.138545 0.051631 0.147324
H10   H     H_    0.836331 0.696338 0.050782 0.147646
H11   H     H_    0.337391 0.031894 0.440799 0.148870
H12   H     H_    0.102904 0.725173 0.081043 0.133276
H13   H     H_    0.907174 0.275012 0.443070 0.132562
H14   H     H_    0.712823 0.634705 0.439745 0.164669
H15   H     H_    0.995619 0.314046 0.566064 0.140846
H16   H     H_    0.309788 0.965648 0.563339 0.162579
H17   H     H_    0.697052 0.649975 0.569596 0.127982
H18   H     H_    0.735973 0.851895 0.535302 0.173105
H19   H     H_    0.130773 0.768780 0.554276 0.172979
H20   H     H_    0.188592 0.227731 0.568959 0.135834
H21   H     H_    0.923691 0.778682 0.454849 0.173737
H22   H     H_    0.781571 0.060920 0.426310 0.177095
H23   H     H_    0.273121 0.373958 0.080447 0.133144
H24   H     H_    0.320023 0.206409 0.431081 0.175934
H25   H     H_    0.731841 0.119560 0.559923 0.267338
H26   H     H_    0.846754 0.131730 0.662846 0.150927
H27   H     H_    0.963358 0.104370 0.607651 0.122735
H28   H     H_    0.812183 0.957712 0.646372 0.176892
H29   H     H_    0.893619 0.734019 0.628602 0.262237
H30   H     H_    0.017546 0.959888 0.665321 0.101205
H31   H     H_    0.116301 0.005235 0.582633 0.182502
H32   H     H_    0.144134 0.909988 0.652664 0.187236
H33   H     H_    0.466310 0.243871 0.532982 0.257897
H34   H     H_    0.139122 0.751047 0.952649 0.148401
H35   H     H_    0.430949 0.130858 0.649191 0.167839
H36   H     H_    0.301226 0.178392 0.669077 0.158946
H37   H     H_    0.484810 0.307022 0.657427 0.152366
H38   H     H_    0.142388 0.703029 0.413047 0.273079
H39   H     H_    0.218982 0.886870 0.332338 0.154152
H40   H     H_    0.133700 0.960759 0.383477 0.142247
H41   H     H_    0.035228 0.815637 0.325317 0.169322
H42   H     H_    0.635646 0.775337 0.375345 0.270570
H43   H     H_    0.836021 0.826897 0.313145 0.144881
H44   H     H_    0.936536 0.973248 0.370682 0.164941
H45   H     H_    0.614008 0.861760 0.951804 0.148339
H46   H     H_    0.816633 0.977311 0.306240 0.164613
H47   H     H_    0.077156 0.241116 0.467984 0.254016
H48   H     H_    0.012517 0.211346 0.346356 0.141622
H49   H     H_    0.161790 0.196230 0.323676 0.159542
H50   H     H_    0.181755 0.362997 0.349722 0.171867
H51   H     H_    0.247819 0.386118 0.952254 0.148823
H52   H     H_    0.288093 0.099222 0.925738 0.140429
H53   H     H_    0.896083 0.190618 0.923806 0.141540
H54   H     H_    0.810723 0.710089 0.924994 0.141584
N1    N     N_2   0.776358 0.057182 0.559295 -0.538966
N2    N     N_2   0.962710 0.799707 0.590788 -0.540030
N3    N     N_2   0.376476 0.212355 0.562425 -0.565554
N4    N     N_2   0.105815 0.771011 0.421419 -0.519013
N5    N     N_2   0.726691 0.853242 0.397110 -0.541272
N6    N     N_2   0.135410 0.219392 0.433271 -0.553855
O1    O     O_R   0.911480 0.572650 0.170990 -0.531195
O2    O     O_R   0.528970 0.640340 0.824320 -0.502348
O3    O     O_R   0.111370 0.471030 0.824320 -0.500182
O4    O     O_R   0.359660 0.888630 0.824320 -0.499334
O5    O     O_R   0.909980 0.572450 0.331530 -0.518377
O6    O     O_R   0.427550 0.337530 0.331530 -0.538749
O7    O     O_R   0.662470 0.090020 0.331530 -0.542664
O8    O     O_R   0.572450 0.909980 0.668470 -0.511329
O9    O     O_R   0.337530 0.427550 0.668470 -0.528908
O10   O     O_R   0.090020 0.662470 0.668470 -0.537707
O11   O     O_R   0.638950 0.528780 0.324500 -0.524131
O12   O     O_R   0.427350 0.338830 0.170990 -0.531811
O13   O     O_R   0.471220 0.110170 0.324500 -0.521797
O14   O     O_R   0.889830 0.361050 0.324500 -0.522807
O15   O     O_R   0.528780 0.638950 0.675500 -0.526355
O16   O     O_R   0.110170 0.471220 0.675500 -0.508871
O17   O     O_R   0.361050 0.889830 0.675500 -0.542155
O18   O     O_3   0.666667 0.333333 0.250560 -0.263361
O19   O     O_3   0.333333 0.666667 0.749440 -0.269523
O20   O     O_R   0.661170 0.088520 0.170990 -0.531910
O21   O     O_R   0.572650 0.911480 0.829010 -0.528741
O22   O     O_R   0.338830 0.427350 0.829010 -0.531586
O23   O     O_R   0.088520 0.661170 0.829010 -0.528435
O24   O     O_R   0.640340 0.528970 0.175680 -0.501704
O25   O     O_R   0.471030 0.111370 0.175680 -0.501364
O26   O     O_R   0.888630 0.359660 0.175680 -0.499066

loop_
_geom_bond_atom_site_label_1
_geom_bond_atom_site_label_2
_ccdc_geom_bond_type
C44   C49   A    
Cr3   O7    S    
C40   C47   A    
C13   C45   S    
C11   C18   A    
Cr4   O8    S    
Cr4   O21   S    
H42   N5    S    
C12   O20   A    
Cr2   O6    S    
C58   H26   S    
C64   H18   S    
H25   N1    S    
C2    C65   S    
Cr1   O11   S    
C3    C49   S    
C5    O6    A    
C35   H2    S    
C3    C64   S    
C44   C64   S    
Cr6   O10   S    
C57   H17   S    
C3    N5    S    
C59   H32   S    
C52   H13   S    
Cr1   O1    S    
C31   H52   S    
C10   O17   A    
Cr5   O3    S    
C54   H15   S    
Cr6   O4    S    
C39   C54   A    
C34   O2    A    
C23   O26   A    
C35   H8    S    
C6    O7    A    
H29   N2    S    
C55   H16   S    
C60   H37   S    
C56   O4    A    
C4    H24   S    
C27   H23   S    
C43   C53   A    
C9    C39   S    
Cr5   O19   S    
C38   C55   A    
C12   C16   S    
C28   H34   S    
C26   H12   S    
C13   C28   A    
Cr2   O12   S    
C8    O9    A    
C45   O23   A    
C12   O25   A    
C47   C66   S    
C25   H1    S    
C60   H36   S    
C42   C51   A    
Cr5   O9    S    
C66   N3    S    
Cr6   O19   S    
C15   C23   S    
Cr5   O16   S    
C5    C43   S    
C58   N1    S    
Cr6   O23   S    
C27   C30   A    
Cr3   O14   S    
C59   H30   S    
C10   O8    A    
C14   C30   A    
C19   C32   S    
C63   H49   S    
C52   C54   A    
C31   H5    S    
C47   C50   A    
C34   O22   A    
C25   C29   A    
C46   C48   A    
C45   O3    A    
C17   C24   A    
C23   O1    A    
C17   C27   A    
C32   C35   S    
C20   C24   A    
C58   H28   S    
C46   C65   S    
C4    N6    S    
C7    O5    A    
C6    O13   A    
C53   C57   A    
C33   H7    S    
C13   C19   A    
H33   N3    S    
C2    C48   S    
C59   N2    S    
Cr5   O22   S    
C29   H45   S    
C33   C37   S    
C18   C31   S    
C4    C50   S    
Cr1   O24   S    
C32   H53   S    
C1    O24   A    
C65   N2    S    
C38   C44   A    
C36   H3    S    
C14   C20   A    
C36   H9    S    
C64   N1    S    
C24   C37   S    
C63   N6    S    
C53   H14   S    
C60   H35   S    
C61   N4    S    
C39   C46   A    
C20   C33   S    
C37   H4    S    
C61   H41   S    
C37   H10   S    
C8    O15   A    
Cr3   O18   S    
Cr2   O25   S    
C61   H39   S    
C51   H11   S    
C63   H50   S    
C16   C25   A    
C65   H19   S    
Cr2   O18   S    
C16   C22   A    
C40   C57   A    
C41   C52   A    
C19   C21   A    
C18   C22   A    
Cr3   O20   S    
C1    C17   S    
C62   N5    S    
C2    H21   S    
C58   H27   S    
C56   O21   A    
C15   C26   A    
H47   N6    S    
C60   N3    S    
C14   C34   S    
C66   H20   S    
C9    O10   A    
C43   C50   A    
C21   C35   S    
C22   C36   S    
C9    O16   A    
C26   C28   A    
C10   C38   S    
C59   H31   S    
C7    O14   A    
C62   H43   S    
C1    O12   A    
C4    C66   S    
C63   H48   S    
C33   H54   S    
C2    N4    S    
C41   C48   A    
Cr3   O26   S    
H38   N4    S    
C3    H22   S    
C51   C55   A    
C7    C41   S    
Cr1   O5    S    
C62   H46   S    
C5    O11   A    
C62   H44   S    
C11   C56   S    
C42   C49   A    
C32   H6    S    
C15   C21   A    
C30   H51   S    
C11   C29   A    
Cr6   O17   S    
C6    C42   S    
Cr4   O2    S    
C31   C36   S    
Cr4   O15   S    
C8    C40   S    
Cr4   O19   S    
C61   H40   S    
Cr2   O13   S    
Cr1   O18   S    
