data_mof_unit_47662.cif
_audit_creation_date              2012-12-11T17:03:14-0500
_audit_creation_method            fapswitch 2.2
_symmetry_space_group_name_H-M    P1
_symmetry_Int_Tables_number       1
_space_group_crystal_system       triclinic
_cell_length_a                    16.676947
_cell_length_b                    7.086429
_cell_length_c                    15.226692
_cell_angle_alpha                 89.999475
_cell_angle_beta                  94.671152
_cell_angle_gamma                 89.99931
_cell_volume                      1793.51349436

loop_
_atom_site_label
_atom_site_type_symbol
_atom_type_description
_atom_site_fract_x
_atom_site_fract_y
_atom_site_fract_z
_atom_type_partial_charge
O1    O     O_R   0.413460 0.494300 0.415980 -0.537809
O2    O     O_R   0.586540 0.994300 0.584020 -0.537806
O3    O     O_R   0.577100 0.822370 0.413730 -0.535973
O4    O     O_R   0.422900 0.322370 0.586270 -0.535976
C1    C     C_R   0.604030 0.655365 0.393606 0.721059
C2    C     C_R   0.395970 0.155365 0.606393 0.721060
O5    O     O_R   0.413490 0.823910 0.405510 -0.540892
O6    O     O_R   0.586510 0.323910 0.594490 -0.540893
O7    O     O_R   0.421770 0.995890 0.575740 -0.530399
O8    O     O_R   0.578230 0.495890 0.424260 -0.530402
C3    C     C_R   0.385355 0.655309 0.383506 0.703753
C4    C     C_R   0.614644 0.155306 0.616495 0.703755
O9    O     O_3   0.502910 0.661350 0.555860 -0.374599
O10   O     O_3   0.497090 0.161350 0.444140 -0.374600
V1    V     V_3+5 0.499460 0.935550 0.489640 1.437029
V2    V     V_3+5 0.500540 0.435550 0.510360 1.437018
C5    C     C_R   0.742418 0.003281 0.681783 0.077726
C6    C     C_R   0.257585 0.503283 0.318218 0.077702
C7    C     C_R   0.685254 0.147915 0.682232 -0.094312
C8    C     C_R   0.314744 0.647924 0.317771 -0.094252
C9    C     C_R   0.701302 0.294397 0.743940 -0.145621
C10   C     C_R   0.298691 0.794408 0.256064 -0.145626
H1    H     H_    0.660922 0.413660 0.745384 0.114032
H2    H     H_    0.339067 0.913677 0.254620 0.114052
C11   C     C_R   0.766944 0.282434 0.808410 -0.144798
C12   C     C_R   0.233050 0.782438 0.191593 -0.144993
H3    H     H_    0.774693 0.393046 0.857391 0.117104
H4    H     H_    0.225297 0.893053 0.142613 0.117172
C13   C     C_R   0.819190 0.124854 0.812388 -0.174770
C14   C     C_R   0.180811 0.624849 0.187612 -0.174898
C15   C     C_R   0.808169 0.993488 0.743631 0.117785
C16   C     C_R   0.191837 0.493478 0.256368 0.117584
C17   C     C_3   0.808724 0.782748 0.741449 0.294086
C18   C     C_3   0.191296 0.282736 0.258553 0.294138
C19   C     C_3   0.734879 0.794037 0.675063 -0.452429
C20   C     C_3   0.265136 0.294047 0.324943 -0.452392
H5    H     H_    0.796964 0.717143 0.805400 0.019205
H6    H     H_    0.203063 0.217131 0.194606 0.019234
H7    H     H_    0.679020 0.741963 0.702016 0.128523
H8    H     H_    0.320997 0.241986 0.297996 0.128527
H9    H     H_    0.744510 0.741769 0.607893 0.224925
H10   H     H_    0.255502 0.241783 0.392112 0.224929
C21   C     C_1   0.165799 0.120645 0.831013 -0.145911
C22   C     C_1   0.834200 0.620646 0.168986 -0.145912
C23   C     C_1   0.218404 0.128639 0.779664 0.039023
C24   C     C_1   0.781595 0.628639 0.220335 0.039023
C25   C     C_1   0.280578 0.138220 0.719482 0.034480
C26   C     C_1   0.719422 0.638219 0.280517 0.034481
C27   C     C_1   0.333298 0.146233 0.668271 -0.170199
C28   C     C_1   0.666702 0.646232 0.331729 -0.170201
O11   O     O_R   0.921840 0.772560 0.075830 -0.539554
O12   O     O_R   0.078160 0.272560 0.924170 -0.539607
O13   O     O_R   0.086520 0.441250 0.094510 -0.529396
O14   O     O_R   0.913480 0.941250 0.905490 -0.529394
C29   C     C_R   0.114085 0.610398 0.117240 0.695151
C30   C     C_R   0.885915 0.110401 0.882761 0.695039
O15   O     O_R   0.922920 0.442940 0.086290 -0.520938
O16   O     O_R   0.077080 0.942940 0.913710 -0.520916
O17   O     O_R   0.913440 0.271120 0.915960 -0.545010
O18   O     O_R   0.086560 0.771120 0.084040 -0.544926
C31   C     C_R   0.896643 0.611560 0.106846 0.715179
C32   C     C_R   0.103356 0.111560 0.893154 0.715182
O19   O     O_3   0.997130 0.604020 0.944190 -0.353452
O20   O     O_3   0.002870 0.104020 0.055810 -0.353313
V3    V     V_3+5 0.000530 0.329760 0.010360 1.535540
V4    V     V_3+5 0.999470 0.829760 0.989640 1.535614
S1    S     S_3+6 0.895971 0.693516 0.693835 0.063712
O21   O     O_2   0.909201 0.799188 0.610627 -0.263041
O22   O     O_2   0.968744 0.718026 0.757767 -0.327329
O23   O     O_3   0.882755 0.463389 0.669676 -0.468671
H11   H     H_    0.916216 0.394483 0.715880 0.356864
S2    S     S_3+6 0.104060 0.193461 0.306173 0.063624
O24   O     O_2   0.090674 0.299541 0.389227 -0.263062
O25   O     O_2   0.031325 0.217373 0.242131 -0.327309
O26   O     O_3   0.117420 0.963509 0.330632 -0.468683
H12   H     H_    0.084046 0.894236 0.284488 0.356957

loop_
_geom_bond_atom_site_label_1
_geom_bond_atom_site_label_2
_ccdc_geom_bond_type
O16   C32   A    
C20   H10   S    
O11   C31   A    
O2    C4    A    
C2    O7    A    
C25   C27   T    
O5    C3    A    
C7    C9    A    
C23   C25   S    
C5    C7    A    
O16   V4    S    
O1    C3    A    
C15   C17   S    
O23   H11   S    
O10   V2    S    
O13   V3    S    
C6    C8    A    
C26   C28   T    
O19   V4    S    
O18   V4    S    
O6    V2    S    
C29   O18   A    
S2    O26   S    
C22   C24   T    
C24   C26   S    
O13   C29   A    
C11   C13   A    
O14   C30   A    
C3    C8    S    
S1    O21   D    
C20   H8    S    
S2    O25   D    
C17   H5    S    
S1    O22   D    
O11   V4    S    
C16   C18   S    
O4    V2    S    
C19   H7    S    
O26   H12   S    
O6    C4    A    
O1    V2    S    
O2    V1    S    
C21   C23   T    
O4    C2    A    
C8    C10   A    
C12   C14   A    
O9    V1    S    
C5    C15   A    
C10   H2    S    
C1    C28   S    
C6    C16   A    
C18   S2    S    
O3    V1    S    
C17   S1    S    
C9    C11   A    
C18   H6    S    
O15   V3    S    
S2    O24   D    
O3    C1    A    
O15   C31   A    
O14   V4    S    
C13   C30   S    
C22   C31   S    
C11   H3    S    
C14   C29   S    
C12   H4    S    
C30   O17   A    
S1    O23   S    
O20   V3    S    
C9    H1    S    
O7    V1    S    
C1    O8    A    
C13   C15   A    
O12   C32   A    
O17   V3    S    
C14   C16   A    
C4    C7    S    
O5    V1    S    
C17   C19   S    
C18   C20   S    
C2    C27   S    
C19   H9    S    
C10   C12   A    
O9    V2    S    
O10   V1    S    
O8    V2    S    
C5    C19   S    
C6    C20   S    
O12   V3    S    
C21   C32   S    
