data_mof_unit_5047.cif
_audit_creation_date              2012-10-26T20:17:31-0400
_audit_creation_method            fapswitch 2.2
_symmetry_space_group_name_H-M    P1
_symmetry_Int_Tables_number       1
_space_group_crystal_system       triclinic
_cell_length_a                    27.776075
_cell_length_b                    8.697831
_cell_length_c                    7.603462
_cell_angle_alpha                 104.319966
_cell_angle_beta                  94.714126
_cell_angle_gamma                 95.186747
_cell_volume                      1762.13691537

loop_
_atom_site_label
_atom_site_type_symbol
_atom_type_description
_atom_site_fract_x
_atom_site_fract_y
_atom_site_fract_z
_atom_type_partial_charge
C1    C     C_R   0.498365 0.199568 0.452208 0.544244
C2    C     C_R   0.866994 0.352757 0.427215 0.000559
C3    C     C_R   0.355170 0.503951 0.505278 -0.006691
C4    C     C_R   0.645223 0.501065 0.498016 -0.009182
C5    C     C_R   0.969801 0.354901 0.451121 -0.007830
C6    C     C_R   0.030585 0.649948 0.583041 -0.002488
C7    C     C_R   0.979256 0.648626 0.561328 0.025340
C8    C     C_R   0.021265 0.356541 0.471471 0.024525
C9    C     C_R   0.949098 0.500606 0.499505 0.032916
C10   C     C_R   0.051392 0.504794 0.531930 0.034382
C11   C     C_R   0.938316 0.212846 0.373224 -0.156227
C12   C     C_R   0.501637 0.800433 0.547793 0.543554
C13   C     C_R   0.061906 0.791695 0.662109 -0.146383
C14   C     C_R   0.887706 0.210418 0.355871 0.052114
C15   C     C_R   0.112327 0.795625 0.670647 0.064816
C16   C     C_R   0.407800 0.500017 0.501187 0.541318
C17   C     C_R   0.592281 0.500872 0.499163 0.541189
C18   C     C_R   0.043890 0.214282 0.436556 -0.145724
C19   C     C_R   0.956889 0.791416 0.594252 -0.131220
C20   C     C_2   0.497469 0.030187 0.427068 -0.152910
C21   C     C_2   0.502530 0.969812 0.572932 -0.152809
C22   C     C_R   0.174454 0.367723 0.498787 0.383710
C23   C     C_R   0.102859 0.507746 0.541718 -0.047452
C24   C     C_R   0.826266 0.640195 0.519561 0.375301
C25   C     C_R   0.183795 0.652275 0.583939 0.397535
C26   C     C_R   0.816844 0.355845 0.446443 0.412134
C27   C     C_R   0.287128 0.582470 0.671600 -0.080767
C28   C     C_R   0.715165 0.440775 0.335367 -0.077442
C29   C     C_R   0.336845 0.577389 0.667235 -0.160235
C30   C     C_R   0.665196 0.443010 0.334760 -0.160765
C31   C     C_R   0.323061 0.437283 0.346939 -0.124611
C32   C     C_R   0.675969 0.556595 0.662166 -0.114352
C33   C     C_R   0.272681 0.442077 0.348999 0.070905
C34   C     C_R   0.897703 0.498707 0.485654 -0.049411
C35   C     C_R   0.726710 0.554958 0.665611 0.071333
C36   C     C_R   0.254438 0.511653 0.515984 0.244337
C37   C     C_R   0.746138 0.498132 0.497990 0.239690
C38   C     C_3   0.441112 0.367967 0.939457 -0.061281
C39   C     C_3   0.427872 0.211615 0.990730 -0.401580
C40   C     C_3   0.558896 0.632021 0.060496 -0.062058
C41   C     C_3   0.572170 0.788345 0.009211 -0.402196
C42   C     C_3   0.239993 0.372830 0.171971 -0.247216
C43   C     C_3   0.250478 0.463846 0.029721 -0.438496
C44   C     C_3   0.760453 0.605837 0.843832 -0.265194
C45   C     C_R   0.123862 0.363544 0.495569 0.029170
C46   C     C_3   0.736107 0.668237 0.016806 -0.429656
C47   C     C_2   0.858784 0.061176 0.242594 0.627834
C48   C     C_2   0.140941 0.946646 0.775222 0.609161
C49   C     C_R   0.876869 0.643504 0.528989 0.032541
C50   C     C_R   0.094083 0.218130 0.446678 -0.086821
C51   C     C_R   0.906754 0.788480 0.579952 -0.068327
C52   C     C_R   0.133399 0.654269 0.599109 0.001874
Cu1   Cu    Cu3+1 0.505380 0.517380 0.684380 0.916097
Cu2   Cu    Cu3+1 0.494620 0.482620 0.315620 0.917103
H1    H     H_    0.337233 0.380370 0.221441 0.117378
H2    H     H_    0.048152 0.902023 0.724442 0.116180
H3    H     H_    0.023940 0.096931 0.403270 0.110985
H4    H     H_    0.977033 0.908492 0.627956 0.107567
H5    H     H_    0.492523 0.955063 0.288100 0.124661
H6    H     H_    0.507476 0.044936 0.711899 0.125085
H7    H     H_    0.459160 0.140123 0.981678 0.156266
H8    H     H_    0.415025 0.231072 0.127263 0.184028
H9    H     H_    0.397355 0.139776 0.892553 0.100104
H10   H     H_    0.411032 0.444043 0.963114 0.126007
H11   H     H_    0.443589 0.325315 0.794823 0.191604
H12   H     H_    0.659775 0.600921 0.786505 0.121356
H13   H     H_    0.584996 0.768874 0.872644 0.184428
H14   H     H_    0.540912 0.859968 0.018386 0.157145
H15   H     H_    0.602731 0.860034 0.107296 0.098892
H16   H     H_    0.556436 0.674666 0.205152 0.191734
H17   H     H_    0.588959 0.555952 0.036647 0.122766
H18   H     H_    0.246176 0.592183 0.083902 0.174093
H19   H     H_    0.287901 0.451967 0.991094 0.143340
H20   H     H_    0.224436 0.414248 0.905247 0.185199
H21   H     H_    0.245625 0.245601 0.117902 0.175760
H22   H     H_    0.201002 0.377116 0.190113 0.167955
H23   H     H_    0.109418 0.105634 0.413531 0.202632
H24   H     H_    0.719675 0.778854 0.010756 0.184994
H25   H     H_    0.707741 0.576552 0.033933 0.131917
H26   H     H_    0.763682 0.696861 0.137928 0.190448
H27   H     H_    0.779314 0.502074 0.860311 0.159839
H28   H     H_    0.788560 0.702331 0.836893 0.201443
H29   H     H_    0.851784 0.820274 0.161635 0.336356
H30   H     H_    0.162506 0.096284 0.022963 0.337044
H31   H     H_    0.891491 0.901266 0.610305 0.192618
H32   H     H_    0.642201 0.397566 0.206811 0.126566
H33   H     H_    0.360990 0.632585 0.790414 0.128733
H34   H     H_    0.730170 0.394260 0.208427 0.140378
H35   H     H_    0.273839 0.642300 0.797298 0.138900
H36   H     H_    0.952289 0.102466 0.313437 0.144383
N1    N     N_R   0.202995 0.510474 0.531270 -0.414399
N2    N     N_R   0.797650 0.498174 0.489911 -0.414209
N3    N     N_2   0.486510 0.456430 0.038510 -0.131774
N4    N     N_2   0.513490 0.543570 0.961490 -0.131407
O1    O     O_R   0.503500 0.286120 0.619780 -0.515094
O2    O     O_2   0.805756 0.777797 0.542733 -0.472408
O3    O     O_2   0.787755 0.219049 0.429620 -0.433125
O4    O     O_2   0.213345 0.790188 0.616217 -0.440035
O5    O     O_2   0.824016 0.067913 0.136155 -0.472590
O6    O     O_R   0.873449 0.912736 0.248181 -0.712901
O7    O     O_2   0.160444 0.037300 0.695828 -0.452176
O8    O     O_R   0.143419 0.988089 0.965667 -0.690112
O9    O     O_R   0.496500 0.713880 0.380220 -0.515563
O10   O     O_R   0.494410 0.256780 0.308360 -0.506419
O11   O     O_R   0.505590 0.743220 0.691640 -0.506960
O12   O     O_R   0.434810 0.514700 0.655690 -0.531951
O13   O     O_R   0.565190 0.485300 0.344310 -0.530438
O14   O     O_R   0.425720 0.485350 0.344280 -0.511606
O15   O     O_R   0.574280 0.514650 0.655720 -0.513117
O16   O     O_2   0.195020 0.230050 0.464717 -0.446858

loop_
_geom_bond_atom_site_label_1
_geom_bond_atom_site_label_2
_ccdc_geom_bond_type
C43   H19   S    
C43   H18   S    
C23   C45   A    
C40   H17   S    
Cu1   O1    S    
H30   O8    S    
C6    C7    A    
C51   H31   S    
C41   H13   S    
Cu1   Cu2   S    
C42   H21   S    
N3    N4    D    
C40   H16   S    
Cu2   O13   S    
C33   C42   S    
C28   C37   A    
C41   H15   S    
C35   C37   A    
C5    C11   A    
C44   H28   S    
C24   O2    S    
C12   O11   A    
C11   C14   A    
C27   C29   A    
C26   N2    A    
C33   C36   A    
C47   O5    D    
C3    C29   A    
Cu2   N3    S    
Cu1   O12   S    
C22   O16   S    
C28   H34   S    
C22   N1    A    
C31   C33   A    
C30   H32   S    
C16   O12   A    
C13   H2    S    
C2    C34   A    
C43   H20   S    
C15   C48   S    
C24   N2    A    
C44   C46   S    
C41   H14   S    
C38   H10   S    
C19   H4    S    
C38   C39   S    
C39   H7    S    
C25   N1    A    
C32   C35   A    
Cu2   O9    S    
C12   O9    A    
C44   H27   S    
C46   H24   S    
C49   C51   A    
C12   C21   S    
C8    C18   A    
C47   O6    S    
C5    C9    A    
Cu1   O11   S    
C18   H3    S    
C38   H11   S    
C1    O1    A    
C48   O8    S    
C2    C26   A    
C15   C52   A    
C20   H5    S    
C3    C31   A    
C35   C44   S    
C1    O10   A    
C4    C32   A    
C21   H6    S    
C4    C17   S    
C36   N1    S    
C40   C41   S    
C7    C19   A    
H29   O6    S    
C13   C15   A    
C9    C34   A    
C10   C23   A    
C42   C43   S    
C50   H23   S    
C18   C50   A    
C32   H12   S    
Cu2   O10   S    
C24   C49   A    
C7    C9    A    
C39   H8    S    
C34   C49   A    
C37   N2    S    
Cu1   N4    S    
C40   N4    S    
C1    C20   S    
C17   O15   A    
C6    C10   A    
C5    C8    A    
C14   C47   S    
C27   C36   A    
C39   H9    S    
C42   H22   S    
Cu2   O14   S    
C17   O13   A    
C25   C52   A    
C6    C13   A    
C46   H26   S    
C11   H36   S    
C23   C52   A    
C46   H25   S    
C45   C50   A    
C48   O7    D    
C38   N3    S    
C28   C30   A    
C27   H35   S    
C2    C14   A    
C29   H33   S    
C16   O14   A    
C26   O3    S    
C19   C51   A    
C25   O4    S    
C22   C45   A    
C20   C21   D    
C8    C10   A    
Cu1   O15   S    
C31   H1    S    
C4    C30   A    
C3    C16   S    
