data_mof_unit_14190.cif
_audit_creation_date              2012-12-10T18:42:28-0500
_audit_creation_method            fapswitch 2.2
_symmetry_space_group_name_H-M    P1
_symmetry_Int_Tables_number       1
_space_group_crystal_system       triclinic
_cell_length_a                    8.581478
_cell_length_b                    10.713993
_cell_length_c                    9.858378
_cell_angle_alpha                 90.001162
_cell_angle_beta                  99.173963
_cell_angle_gamma                 89.964651
_cell_volume                      894.803882958

loop_
_atom_site_label
_atom_site_type_symbol
_atom_type_description
_atom_site_fract_x
_atom_site_fract_y
_atom_site_fract_z
_atom_type_partial_charge
C1    C     C_R   0.499592 0.259935 0.499873 0.854274
C2    C     C_R   0.499916 0.740075 0.500030 0.861022
C3    C     C_R   0.200953 0.499765 0.463685 0.969006
C4    C     C_R   0.799045 0.499542 0.536166 0.971237
C5    C     C_2   0.035416 0.499987 0.444138 -0.374055
C6    C     C_2   0.964543 0.497954 0.555050 -0.392131
C7    C     C_R   0.528185 0.063912 0.382573 -0.212207
C8    C     C_R   0.469678 0.936122 0.616864 -0.179178
C9    C     C_R   0.528445 0.936078 0.382678 -0.194443
C10   C     C_R   0.469380 0.063975 0.616754 -0.196311
C11   C     C_R   0.499397 0.872559 0.499888 -0.010063
C12   C     C_R   0.498947 0.127475 0.499703 -0.007348
C13   C     C_R   0.616145 0.559275 0.088576 -0.313958
C14   C     C_R   0.382382 0.442260 0.911538 -0.315812
C15   C     C_R   0.620273 0.555911 0.944608 0.553330
C16   C     C_R   0.384074 0.438819 0.056405 0.545755
H1    H     H_    0.972545 0.502518 0.339185 0.181739
H2    H     H_    0.027885 0.494834 0.659559 0.165465
H3    H     H_    0.551948 0.112534 0.291658 0.150375
H4    H     H_    0.445901 0.887475 0.707751 0.164151
H5    H     H_    0.552415 0.887414 0.291843 0.159794
H6    H     H_    0.445364 0.112671 0.707565 0.154380
H7    H     H_    0.706288 0.608700 0.157001 0.174940
H8    H     H_    0.287238 0.398574 0.842872 0.172706
N1    N     N_R   0.499960 0.499970 0.857200 -0.133017
N2    N     N_R   0.500040 0.500030 0.142800 -0.134590
O1    O     O_R   0.499990 0.316750 0.614620 -0.632088
O2    O     O_R   0.500010 0.683250 0.385380 -0.631787
O3    O     O_R   0.499990 0.316780 0.385290 -0.617245
O4    O     O_R   0.500010 0.683220 0.614710 -0.593595
O5    O     O_R   0.271750 0.499990 0.587840 -0.626503
O6    O     O_R   0.728250 0.500010 0.412160 -0.624746
O7    O     O_R   0.271750 0.500010 0.358510 -0.569952
O8    O     O_R   0.728250 0.499990 0.641490 -0.588000
Zn1   Zn    Zn3+2 0.500000 0.499980 0.653120 0.976025
Zn2   Zn    Zn3+2 0.500000 0.500020 0.346880 0.970139
O9    O     O_3   0.738496 0.616645 0.889731 -0.587104
C17   C     C_3   0.890750 0.576621 0.952758 0.111501
H9    H     H_    0.953728 0.539389 0.871743 0.168619
H10   H     H_    0.891843 0.499928 0.029518 0.123776
C18   C     C_3   0.984697 0.687106 0.019703 -0.844655
H11   H     H_    0.926447 0.726812 0.102760 0.238731
H12   H     H_    0.105558 0.656149 0.064518 0.237302
H13   H     H_    0.993537 0.760592 0.941822 0.258639
O10   O     O_3   0.262038 0.384191 0.111524 -0.593156
C19   C     C_3   0.242187 0.256984 0.073568 0.098970
H14   H     H_    0.256609 0.200339 0.169116 0.176041
H15   H     H_    0.329510 0.220025 0.010935 0.103266
C20   C     C_3   0.075644 0.236452 0.996767 -0.889945
H16   H     H_    0.056245 0.292272 0.900695 0.238932
H17   H     H_    0.058189 0.136176 0.970200 0.224875
H18   H     H_    0.987748 0.264874 0.062283 0.256899

loop_
_geom_bond_atom_site_label_1
_geom_bond_atom_site_label_2
_ccdc_geom_bond_type
C16   O10   S    
C3    O5    A    
O9    C17   S    
C4    O8    A    
C18   H12   S    
C18   H11   S    
C7    H3    S    
C19   C20   S    
C2    O4    A    
C20   H18   S    
C3    C5    S    
C1    O3    A    
C8    H4    S    
O10   C19   S    
C10   H6    S    
C17   H10   S    
C9    C11   A    
O3    Zn2   S    
C9    H5    S    
C4    O6    A    
C1    C12   S    
C10   C12   A    
O4    Zn1   S    
N1    Zn1   S    
C8    C11   A    
C2    C11   S    
O6    Zn2   S    
N2    Zn2   S    
C13   H7    S    
C20   H16   S    
O5    Zn1   S    
C13   C15   A    
C14   N1    A    
C16   N2    A    
C5    C6    D    
C6    H2    S    
C18   H13   S    
C14   C16   A    
C7    C12   A    
C15   N1    A    
C4    C6    S    
C5    H1    S    
C13   N2    A    
C19   H15   S    
C7    C9    A    
O7    Zn2   S    
C17   H9    S    
O2    Zn2   S    
C17   C18   S    
C8    C10   A    
O8    Zn1   S    
C14   H8    S    
C1    O1    A    
C3    O7    A    
C19   H14   S    
C15   O9    S    
C2    O2    A    
O1    Zn1   S    
C20   H17   S    
