data_mof_unit_6307.cif
_audit_creation_date              2012-10-26T21:11:10-0400
_audit_creation_method            fapswitch 2.2
_symmetry_space_group_name_H-M    P1
_symmetry_Int_Tables_number       1
_space_group_crystal_system       triclinic
_cell_length_a                    10.894278
_cell_length_b                    10.900527
_cell_length_c                    13.114351
_cell_angle_alpha                 90.44587
_cell_angle_beta                  90.088406
_cell_angle_gamma                 90.175946
_cell_volume                      1557.31698601

loop_
_atom_site_label
_atom_site_type_symbol
_atom_type_description
_atom_site_fract_x
_atom_site_fract_y
_atom_site_fract_z
_atom_type_partial_charge
C1    C     C_R   0.492997 0.259593 0.499358 0.554799
C2    C     C_R   0.682504 0.827523 0.697640 -0.129747
C3    C     C_R   0.432638 0.115593 0.310208 0.050233
C4    C     C_R   0.567359 0.884411 0.689803 0.050219
C5    C     C_R   0.509061 0.109186 0.223955 0.404747
C6    C     C_R   0.490954 0.890928 0.776063 0.404702
C7    C     C_R   0.470806 0.160132 0.131654 -0.076214
C8    C     C_R   0.529179 0.839994 0.868378 -0.076221
C9    C     C_R   0.356163 0.216614 0.124577 -0.157591
C10   C     C_R   0.643772 0.783412 0.875462 -0.157603
C11   C     C_R   0.480602 0.932641 0.410581 -0.110258
C12   C     C_R   0.507016 0.740407 0.500642 0.554770
C13   C     C_R   0.519441 0.067362 0.589414 -0.110220
C14   C     C_R   0.507774 0.873018 0.501834 -0.010848
C15   C     C_R   0.492258 0.126983 0.498164 -0.010825
C16   C     C_R   0.259649 0.506746 0.499757 0.556919
C17   C     C_R   0.740350 0.493253 0.500243 0.556916
C18   C     C_R   0.529267 0.940853 0.592318 0.008398
C19   C     C_R   0.470765 0.059149 0.407681 0.008426
C20   C     C_1   0.500074 0.500083 0.173557 0.145920
C21   C     C_1   0.499926 0.499917 0.826443 0.145921
C22   C     C_1   0.500055 0.500056 0.050683 -0.046373
C23   C     C_R   0.872936 0.492414 0.500920 -0.006493
C24   C     C_1   0.499945 0.499943 0.949317 -0.046364
C25   C     C_R   0.236976 0.754813 0.236782 -0.110770
C26   C     C_R   0.763099 0.245065 0.763168 -0.110784
C27   C     C_R   0.182105 0.707014 0.324282 -0.063633
C28   C     C_R   0.817947 0.292916 0.675678 -0.063669
C29   C     C_R   0.118878 0.594581 0.319518 0.036391
C30   C     C_R   0.881123 0.405376 0.680464 0.036402
C31   C     C_R   0.110281 0.531400 0.226014 -0.084497
C32   C     C_R   0.889687 0.468537 0.773978 -0.084488
C33   C     C_R   0.167264 0.578402 0.138840 0.016260
C34   C     C_R   0.127063 0.507587 0.499079 -0.006494
C35   C     C_R   0.832720 0.421488 0.861142 0.016269
C36   C     C_R   0.230424 0.690347 0.144398 -0.098586
C37   C     C_R   0.769617 0.309512 0.855563 -0.098560
C38   C     C_R   0.933427 0.534019 0.413709 -0.142228
C39   C     C_R   0.066572 0.465982 0.586290 -0.142225
C40   C     C_1   0.161495 0.511555 0.043823 0.193643
C41   C     C_1   0.838448 0.488316 0.956170 0.193665
C42   C     C_R   0.939749 0.456496 0.588022 -0.033921
C43   C     C_R   0.060250 0.543498 0.411974 -0.033920
C44   C     C_R   0.279600 0.222660 0.209822 -0.119646
C45   C     C_R   0.720318 0.777260 0.790211 -0.119639
C46   C     C_R   0.317447 0.172390 0.302381 -0.129803
Cu1   Cu    Cu3+1 0.499990 0.499990 0.592680 1.013128
Cu2   Cu    Cu3+1 0.500010 0.500010 0.407320 1.013139
F1    F     F_    0.620666 0.054626 0.229527 -0.635777
F2    F     F_    0.379399 0.945588 0.770487 -0.635787
H1    H     H_    0.274404 0.727776 0.077376 0.122039
H2    H     H_    0.811493 0.242437 0.604384 0.110067
H3    H     H_    0.060321 0.445395 0.221600 0.112491
H4    H     H_    0.939612 0.554562 0.778410 0.112462
H5    H     H_    0.881495 0.563099 0.347543 0.152464
H6    H     H_    0.118503 0.436900 0.652455 0.152472
H7    H     H_    0.326696 0.255725 0.053028 0.154213
H8    H     H_    0.673213 0.744307 0.947021 0.154189
H9    H     H_    0.190607 0.265622 0.204000 0.131115
H10   H     H_    0.809274 0.734224 0.796039 0.131092
H11   H     H_    0.257000 0.177161 0.367793 0.117992
H12   H     H_    0.725659 0.272042 0.922578 0.122062
H13   H     H_    0.742940 0.822672 0.632224 0.117985
H14   H     H_    0.529933 0.155723 0.065461 0.135743
H15   H     H_    0.470066 0.844490 0.934576 0.135748
H16   H     H_    0.463834 0.880243 0.341371 0.146126
H17   H     H_    0.536211 0.119762 0.658623 0.146190
H18   H     H_    0.284474 0.842021 0.240398 0.110101
H19   H     H_    0.715649 0.157831 0.759538 0.110109
H20   H     H_    0.188588 0.757507 0.395568 0.110057
N1    N     N_1   0.500030 0.500030 0.268070 -0.166547
N2    N     N_1   0.499970 0.499970 0.731930 -0.166550
N3    N     N_1   0.157047 0.457825 0.967440 -0.303924
N4    N     N_1   0.842863 0.542031 0.032562 -0.303928
O1    O     O_R   0.499980 0.319630 0.578260 -0.503748
O2    O     O_R   0.500020 0.680370 0.421740 -0.503768
O3    O     O_R   0.500000 0.319650 0.421740 -0.483830
O4    O     O_R   0.500000 0.680350 0.578260 -0.483846
O5    O     O_R   0.319630 0.500000 0.578260 -0.494931
O6    O     O_R   0.680370 0.500000 0.421740 -0.494929
O7    O     O_R   0.319650 0.500020 0.421740 -0.493191
O8    O     O_R   0.680350 0.499980 0.578260 -0.493208

loop_
_geom_bond_atom_site_label_1
_geom_bond_atom_site_label_2
_ccdc_geom_bond_type
C45   H10   S    
C27   C29   A    
C1    O3    A    
Cu2   O2    S    
Cu1   O5    S    
C37   H12   S    
C40   N3    T    
C15   C19   A    
C11   C19   A    
C17   C23   S    
C23   C42   A    
C13   C18   A    
C35   C37   A    
C11   C14   A    
C44   H9    S    
C33   C36   A    
Cu2   O7    S    
C17   O8    A    
Cu1   O8    S    
C14   C18   A    
C16   C34   S    
C41   N4    T    
C38   H5    S    
C39   H6    S    
C12   O4    A    
C31   C33   A    
C20   N1    T    
C3    C19   S    
C1    C15   S    
C11   H16   S    
C4    C18   S    
C8    H15   S    
C29   C43   S    
C5    F1    S    
C25   H18   S    
C32   H4    S    
C44   C46   A    
C39   C42   A    
C2    C45   A    
C7    H14   S    
C33   C40   S    
C21   N2    T    
C34   C39   A    
C1    O1    A    
C32   C35   A    
C4    C6    A    
C5    C7    A    
C6    C8    A    
C46   H11   S    
C17   O6    A    
C6    F2    S    
Cu2   O3    S    
C2    C4    A    
Cu1   Cu2   S    
C10   C45   A    
C31   H3    S    
C27   H20   S    
C36   H1    S    
C20   C22   S    
C12   O2    A    
C22   C24   T    
Cu2   N1    S    
C2    H13   S    
C13   H17   S    
C7    C9    A    
C9    C44   A    
C10   H8    S    
C34   C43   A    
C12   C14   S    
C3    C5    A    
C26   C37   A    
C25   C27   A    
C23   C38   A    
C3    C46   A    
C26   C28   A    
C16   O5    A    
Cu2   O6    S    
C13   C15   A    
Cu1   O1    S    
C38   C43   A    
C29   C31   A    
C30   C32   A    
C28   H2    S    
C28   C30   A    
C16   O7    A    
C9    H7    S    
C35   C41   S    
Cu1   N2    S    
C25   C36   A    
C8    C10   A    
C21   C24   S    
C26   H19   S    
C30   C42   S    
Cu1   O4    S    
