data_mof_unit_23081.cif
_audit_creation_date              2013-03-05T15:57:43-0500
_audit_creation_method            fapswitch 2.2
_symmetry_space_group_name_H-M    P1
_symmetry_Int_Tables_number       1
_space_group_crystal_system       triclinic
_cell_length_a                    19.286834
_cell_length_b                    17.664035
_cell_length_c                    12.639294
_cell_angle_alpha                 90.31028
_cell_angle_beta                  100.386969
_cell_angle_gamma                 90.047775
_cell_volume                      4235.36273686

loop_
_atom_site_label
_atom_site_type_symbol
_atom_site_description
_atom_site_fract_x
_atom_site_fract_y
_atom_site_fract_z
_atom_type_partial_charge
O1    O     O_R   0.448200 0.076800 0.373930 -0.611520
O2    O     O_R   0.448200 0.923200 0.373930 -0.615274
O3    O     O_R   0.948200 0.576800 0.373930 -0.592415
O4    O     O_R   0.948200 0.423200 0.373930 -0.610805
O5    O     O_R   0.414750 0.076790 0.542400 -0.608701
O6    O     O_R   0.414750 0.923210 0.542400 -0.616107
O7    O     O_R   0.914750 0.576790 0.542400 -0.620927
O8    O     O_R   0.914750 0.423210 0.542400 -0.604542
C1    C     C_R   0.410572 0.102331 0.443323 0.856125
C2    C     C_R   0.411083 0.896055 0.443365 0.846736
C3    C     C_R   0.910678 0.602899 0.443114 0.851477
C4    C     C_R   0.911693 0.396488 0.443880 0.848769
Zn1   Zn    Zn3+2 0.522330 0.000000 0.387520 0.919965
Zn2   Zn    Zn3+2 0.022330 0.500000 0.387520 0.923098
Zn3   Zn    Zn3+2 0.477660 0.000000 0.612480 0.915779
Zn4   Zn    Zn3+2 0.977660 0.500000 0.612480 0.917151
O9    O     O_R   0.585240 0.923200 0.457600 -0.611283
O10   O     O_R   0.585240 0.076800 0.457600 -0.601217
O11   O     O_R   0.085240 0.423200 0.457600 -0.606933
O12   O     O_R   0.085240 0.576800 0.457600 -0.615859
O13   O     O_R   0.551780 0.923190 0.626070 -0.640777
O14   O     O_R   0.551780 0.076810 0.626070 -0.621621
O15   O     O_R   0.051780 0.423190 0.626070 -0.628824
O16   O     O_R   0.051780 0.576810 0.626070 -0.633236
C5    C     C_R   0.590998 0.899503 0.557870 0.864044
C6    C     C_R   0.588817 0.102757 0.556302 0.863189
C7    C     C_R   0.088574 0.397214 0.555898 0.854342
C8    C     C_R   0.091460 0.600176 0.558479 0.861384
C9    C     C_R   0.629000 0.306664 0.614583 0.179009
C10   C     C_R   0.751729 0.818439 0.733093 0.188534
C11   C     C_R   0.253174 0.680306 0.736784 0.184105
C12   C     C_R   0.124908 0.192764 0.613379 0.169872
H1    H     H_    0.554723 0.227331 0.661113 0.157751
H2    H     H_    0.661755 0.881435 0.764352 0.151607
H3    H     H_    0.162012 0.617855 0.765761 0.153394
H4    H     H_    0.048730 0.273310 0.651366 0.165457
H5    H     H_    0.385649 0.744034 0.758231 0.161388
H6    H     H_    0.192635 0.060013 0.569883 0.148148
H7    H     H_    0.691376 0.438033 0.564234 0.153369
H8    H     H_    0.885186 0.759414 0.751728 0.167982
C13   C     C_R   0.629653 0.171349 0.581137 -0.087373
C14   C     C_R   0.650110 0.850188 0.597168 -0.090595
C15   C     C_R   0.151801 0.648263 0.599066 -0.088025
C16   C     C_R   0.127875 0.327960 0.579865 -0.093177
C17   C     C_R   0.332211 0.816988 0.300471 0.213799
C18   C     C_R   0.387082 0.229389 0.358161 0.179401
C19   C     C_R   0.892442 0.265362 0.366431 0.199549
C20   C     C_R   0.828448 0.672917 0.297721 0.214426
C21   C     C_R   0.283303 0.758577 0.274753 -0.143177
C22   C     C_R   0.345407 0.294246 0.343433 -0.149987
C23   C     C_R   0.849790 0.201204 0.347925 -0.155652
C24   C     C_R   0.775970 0.727222 0.270148 -0.147367
C25   C     C_R   0.258143 0.720661 0.355061 -0.261870
C26   C     C_R   0.285934 0.300209 0.390262 -0.250116
C27   C     C_R   0.788333 0.196436 0.389852 -0.248988
C28   C     C_R   0.750574 0.767204 0.349377 -0.259936
C29   C     C_R   0.283991 0.737789 0.464000 0.102803
C30   C     C_R   0.265210 0.240171 0.451467 0.106806
C31   C     C_R   0.766710 0.257234 0.449323 0.106084
C32   C     C_R   0.779260 0.756174 0.459108 0.104920
C33   C     C_R   0.344450 0.783086 0.490764 0.044954
C34   C     C_R   0.299272 0.170076 0.450148 0.051580
C35   C     C_R   0.800774 0.327494 0.447839 0.048566
C36   C     C_R   0.841434 0.714034 0.486206 0.041159
C37   C     C_R   0.712881 0.250056 0.511266 0.062327
C38   C     C_R   0.747756 0.785820 0.542693 0.060017
C39   C     C_R   0.251162 0.710693 0.547011 0.055544
C40   C     C_R   0.211554 0.247878 0.513723 0.073388
C41   C     C_R   0.684660 0.315140 0.555130 0.134775
C42   C     C_R   0.784665 0.786992 0.650807 0.122298
C43   C     C_R   0.286647 0.712084 0.655588 0.133839
C44   C     C_R   0.182599 0.183147 0.557453 0.105257
C45   C     C_R   0.354405 0.744152 0.678166 -0.259082
C46   C     C_R   0.211716 0.111990 0.541507 -0.265327
C47   C     C_R   0.712283 0.386356 0.536781 -0.252558
C48   C     C_R   0.853063 0.757138 0.672355 -0.265354
C49   C     C_R   0.382461 0.779977 0.597316 -0.190339
C50   C     C_R   0.269313 0.105797 0.490034 -0.199356
C51   C     C_R   0.769723 0.392395 0.485081 -0.202872
C52   C     C_R   0.880911 0.721105 0.591425 -0.191393
C53   C     C_R   0.688067 0.178870 0.533026 -0.254724
C54   C     C_R   0.678803 0.811601 0.520518 -0.269636
C55   C     C_R   0.182070 0.685226 0.523166 -0.271788
C56   C     C_R   0.187231 0.319507 0.534816 -0.262289
C57   C     C_R   0.600983 0.234276 0.624457 -0.244731
C58   C     C_R   0.685018 0.851826 0.704197 -0.248845
C59   C     C_R   0.186281 0.646736 0.706434 -0.251530
C60   C     C_R   0.097015 0.265631 0.620012 -0.209840
C61   C     C_R   0.363956 0.830292 0.410276 -0.146666
C62   C     C_R   0.363465 0.166220 0.411243 -0.134970
C63   C     C_R   0.866463 0.330629 0.413091 -0.125799
C64   C     C_R   0.861539 0.665360 0.407690 -0.148357
H9    H     H_    0.710884 0.127467 0.507991 0.144101
H10   H     H_    0.646596 0.804533 0.441813 0.159795
H11   H     H_    0.151041 0.691786 0.443506 0.162522
H12   H     H_    0.211319 0.370537 0.511535 0.143665
H13   H     H_    0.758804 0.144368 0.374740 0.145819
H14   H     H_    0.709155 0.807552 0.322601 0.146300
H15   H     H_    0.218755 0.677425 0.330296 0.145148
H16   H     H_    0.256472 0.352196 0.375853 0.146824
H17   H     H_    0.260720 0.745362 0.191839 0.145277
H18   H     H_    0.360673 0.342249 0.299731 0.142912
H19   H     H_    0.866788 0.152169 0.307478 0.149860
H20   H     H_    0.751732 0.736194 0.186932 0.141972
H21   H     H_    0.434878 0.803574 0.618974 0.177242
H22   H     H_    0.289810 0.049585 0.480719 0.152492
H23   H     H_    0.789784 0.448643 0.474891 0.152305
H24   H     H_    0.934101 0.699627 0.612134 0.176634
C65   C     C_R   0.645233 0.996427 0.137537 -0.318487
C66   C     C_R   0.144889 0.521004 0.139073 -0.323206
H25   H     H_    0.658939 0.982641 0.308269 0.142739
H26   H     H_    0.156788 0.528292 0.310744 0.144341
H27   H     H_    0.673669 0.993714 0.940557 0.154418
H28   H     H_    0.173937 0.516582 0.940125 0.145720
H29   H     H_    0.700604 0.987507 0.135701 0.150707
H30   H     H_    0.200218 0.531363 0.138594 0.148751
N1    N     N_R   0.552340 0.000000 0.237260 -0.101632
N2    N     N_R   0.052340 0.500000 0.237260 -0.098429
C67   C     C_R   0.378574 0.012649 0.758322 0.002804
C68   C     C_R   0.878494 0.512948 0.760251 0.014804
C69   C     C_R   0.356015 0.045298 0.846154 0.137831
C70   C     C_R   0.854319 0.530459 0.855444 0.135332
C71   C     C_R   0.406544 0.060844 0.937407 -0.252629
C72   C     C_R   0.902667 0.526240 0.951700 -0.293728
C73   C     C_R   0.475668 0.031242 0.948129 -0.001447
C74   C     C_R   0.973876 0.507723 0.952202 -0.004168
C75   C     C_R   0.497292 0.009403 0.852577 0.212276
C76   C     C_R   0.996770 0.501889 0.853704 0.216381
C77   C     C_R   0.524117 0.022356 0.046965 0.005763
C78   C     C_R   0.023981 0.501926 0.047326 0.008989
C79   C     C_R   0.596370 0.008388 0.043214 0.153604
C80   C     C_R   0.096301 0.512127 0.043633 0.163375
C81   C     C_R   0.618561 0.002489 0.944625 -0.281512
C82   C     C_R   0.118527 0.511727 0.944703 -0.285084
C83   C     C_R   0.569158 0.000925 0.850447 -0.201034
C84   C     C_R   0.069210 0.502322 0.850773 -0.200283
C85   C     C_R   0.503264 0.016373 0.148288 0.275842
C86   C     C_R   0.005499 0.484477 0.146361 0.253050
C87   C     C_R   0.621851 0.992424 0.234597 -0.032942
C88   C     C_R   0.120666 0.518343 0.235992 -0.033300
N3    N     N_R   0.448170 0.000000 0.762060 -0.152351
N4    N     N_R   0.948170 0.500000 0.762060 -0.152845
H31   H     H_    0.342200 0.005017 0.683168 0.145434
H32   H     H_    0.843409 0.514036 0.683355 0.155982
H33   H     H_    0.390927 0.097105 0.997199 0.160367
H34   H     H_    0.884985 0.540909 0.025614 0.169849
H35   H     H_    0.588489 0.992891 0.777310 0.207892
H36   H     H_    0.088771 0.499246 0.776973 0.207961
C89   C     C_3   0.427538 0.020852 0.159941 -0.904199
H37   H     H_    0.419393 0.996254 0.233578 0.304310
H38   H     H_    0.410275 0.080396 0.163507 0.224782
H39   H     H_    0.393260 0.986344 0.098108 0.230241
C90   C     C_3   0.943394 0.434266 0.153019 -0.846021
H40   H     H_    0.917749 0.410932 0.074064 0.216315
H41   H     H_    0.962717 0.383568 0.200002 0.261766
H42   H     H_    0.903739 0.464956 0.189755 0.248830
C91   C     C_3   0.279543 0.064632 0.841583 -0.428540
C92   C     C_3   0.234937 0.992648 0.835310 -0.873079
H43   H     H_    0.235943 0.961760 0.758784 0.252159
H44   H     H_    0.255113 0.954966 0.904158 0.266717
H45   H     H_    0.179490 0.007328 0.838615 0.258641
H46   H     H_    0.272266 0.097250 0.914245 0.209283
H47   H     H_    0.260889 0.100577 0.770365 0.221231
C93   C     C_3   0.779510 0.555204 0.858945 -0.426992
C94   C     C_3   0.737955 0.583985 0.752183 -0.895383
H48   H     H_    0.767737 0.629347 0.719502 0.274381
H49   H     H_    0.726710 0.537231 0.692782 0.249783
H50   H     H_    0.686822 0.607606 0.765284 0.257457
H51   H     H_    0.750725 0.507557 0.888354 0.214801
H52   H     H_    0.781415 0.602297 0.918183 0.206910
C95   C     C_3   0.597054 0.372731 0.665675 -0.425904
C96   C     C_3   0.644795 0.397368 0.769900 -0.866187
H53   H     H_    0.648118 0.351608 0.830542 0.264732
H54   H     H_    0.698727 0.410159 0.755975 0.265565
H55   H     H_    0.622824 0.448821 0.802323 0.252077
H56   H     H_    0.586443 0.420785 0.608889 0.197686
H57   H     H_    0.545020 0.356884 0.685273 0.207651
C97   C     C_3   0.786131 0.819708 0.850668 -0.434785
C98   C     C_3   0.836505 0.886740 0.875743 -0.872241
H58   H     H_    0.878797 0.884093 0.826816 0.260794
H59   H     H_    0.807201 0.940732 0.858739 0.257833
H60   H     H_    0.861199 0.885933 0.962163 0.250735
H61   H     H_    0.745278 0.824604 0.902218 0.203944
H62   H     H_    0.813959 0.765650 0.873857 0.204656
C99   C     C_3   0.287492 0.678575 0.854394 -0.428108
C100  C     C_3   0.283530 0.755779 0.907852 -0.871517
H63   H     H_    0.311003 0.799904 0.868638 0.262835
H64   H     H_    0.227608 0.772710 0.903515 0.264064
H65   H     H_    0.309028 0.752140 0.993688 0.245413
H66   H     H_    0.260588 0.636779 0.898738 0.199843
H67   H     H_    0.343041 0.659405 0.863480 0.196537
C101  C     C_3   0.087293 0.128813 0.660335 -0.430293
C102  C     C_3   0.090831 0.139212 0.781441 -0.861520
H68   H     H_    0.068350 0.088586 0.814675 0.246777
H69   H     H_    0.146240 0.146720 0.822814 0.266225
H70   H     H_    0.059807 0.189276 0.798495 0.258002
H71   H     H_    0.031023 0.128357 0.620231 0.208405
H72   H     H_    0.107698 0.071940 0.647287 0.204651
C103  C     C_3   0.344627 0.865977 0.209357 -0.931885
H73   H     H_    0.313163 0.847807 0.130996 0.228477
H74   H     H_    0.326837 0.924014 0.224371 0.239946
H75   H     H_    0.400823 0.863441 0.200911 0.269970
C104  C     C_3   0.457654 0.231217 0.322242 -0.862589
H76   H     H_    0.469016 0.287740 0.291161 0.220725
H77   H     H_    0.500448 0.218476 0.391112 0.245226
H78   H     H_    0.458590 0.189649 0.256597 0.253779
C105  C     C_3   0.966126 0.257711 0.342507 -0.921245
H79   H     H_    0.990295 0.204669 0.378923 0.233954
H80   H     H_    0.963807 0.254281 0.254253 0.238844
H81   H     H_    0.002370 0.303597 0.376416 0.266523
C106  C     C_3   0.844954 0.622759 0.208633 -0.910578
H82   H     H_    0.810901 0.635405 0.130079 0.213404
H83   H     H_    0.900345 0.631118 0.198142 0.262365
H84   H     H_    0.835159 0.562949 0.227587 0.235407

loop_
_geom_bond_atom_site_label_1
_geom_bond_atom_site_label_2
_geom_bond_distance
_ccdc_geom_bond_type
C30   C34   1.403546 A    
C95   C96   1.525887 S    
C39   C55   1.386233 A    
C94   H48   1.109487 S    
C54   H10   1.080148 S    
C27   C31   1.413255 A    
C67   H31   1.082035 S    
H26   C88   1.081457 S    
C4    C63   1.461766 S    
C93   H52   1.112290 S    
C27   H13   1.079230 S    
O10   C6    1.316818 A    
C28   H14   1.080128 S    
Zn4   N4    2.070160 S    
C104  H76   1.110912 S    
C26   H16   1.079201 S    
C97   C98   1.526220 S    
H25   C87   1.081842 S    
C99   H66   1.112288 S    
C12   C44   1.431495 A    
C35   C51   1.411186 A    
C25   H15   1.081223 S    
O7    C3    1.328321 A    
C15   C59   1.399850 A    
C104  H77   1.110376 S    
C22   C26   1.386188 A    
Zn1   O10   1.921930 S    
C93   C94   1.529645 S    
C75   C83   1.399314 A    
C76   C84   1.404306 A    
C21   H17   1.083993 S    
C37   C41   1.424181 A    
Zn1   N1    2.082852 S    
C71   C73   1.416318 A    
C39   C43   1.418876 A    
C38   C54   1.386547 A    
C74   C78   1.404421 A    
C23   H19   1.084038 S    
C12   C60   1.403345 A    
C15   C55   1.376773 A    
C70   C93   1.516132 S    
C12   C101  1.521752 S    
H2    C58   1.082607 S    
O2    Zn1   1.954403 S    
H1    C57   1.084093 S    
O13   C5    1.312239 A    
C92   H45   1.108626 S    
O6    Zn3   1.921808 S    
Zn3   N3    2.070160 S    
H3    C59   1.082556 S    
C7    C16   1.444153 S    
Zn3   O14   1.954385 S    
C71   H33   1.072039 S    
C2    C61   1.485374 S    
C33   C61   1.420722 A    
C102  H69   1.109318 S    
C14   C54   1.377030 A    
C65   C79   1.397141 A    
C103  H75   1.108995 S    
C20   C64   1.428054 A    
C66   C80   1.395693 A    
C14   C58   1.398300 A    
H7    C47   1.078842 S    
O4    C4    1.314724 A    
O11   C7    1.317517 A    
C91   H47   1.110246 S    
C9    C57   1.402642 A    
C97   H61   1.112398 S    
C96   H55   1.110311 S    
C40   C44   1.428939 A    
C98   H60   1.110277 S    
C11   C43   1.424656 A    
C32   C38   1.409093 A    
C103  H73   1.109829 S    
O8    Zn4   1.921808 S    
H27   C81   1.084542 S    
C92   H44   1.111886 S    
C36   C52   1.413094 A    
C89   H38   1.106621 S    
C85   C89   1.496241 S    
C93   H51   1.109836 S    
N1    C87   1.353842 A    
C29   C39   1.405451 A    
N2    C88   1.359692 A    
C3    C64   1.473116 S    
C10   C42   1.423493 A    
C77   C85   1.414260 A    
C96   H54   1.109068 S    
C32   C36   1.401953 A    
C99   H67   1.110098 S    
C9    C41   1.425243 A    
C67   C69   1.386348 A    
C10   C97   1.514330 S    
C19   C105  1.511329 S    
C104  H78   1.107567 S    
C11   C59   1.407498 A    
C105  H79   1.111321 S    
C40   C56   1.390842 A    
Zn2   O12   1.921930 S    
O1    C1    1.313428 A    
C44   C46   1.405381 A    
C89   H39   1.107823 S    
C33   C49   1.413861 A    
C43   C45   1.404519 A    
C25   C29   1.408430 A    
C94   H49   1.107705 S    
C19   C23   1.393547 A    
O12   C8    1.322750 A    
Zn2   N2    2.082852 S    
C101  H71   1.111930 S    
C72   H34   1.081024 S    
H4    C60   1.084161 S    
C28   C32   1.412105 A    
C91   C92   1.528291 S    
C1    C62   1.461962 S    
C78   C80   1.415401 A    
O5    C1    1.322113 A    
C105  H81   1.102969 S    
C53   H9    1.079817 S    
C37   C53   1.391404 A    
C106  H82   1.111093 S    
C20   C106  1.507686 S    
C17   C21   1.394338 A    
O8    C4    1.320599 A    
C102  H70   1.109881 S    
C13   C53   1.379972 A    
C11   C99   1.514752 S    
C52   H24   1.081539 S    
H28   C82   1.083971 S    
C51   H23   1.082679 S    
C68   N4    1.359491 A    
C55   H11   1.081396 S    
C9    C95   1.514943 S    
C90   H42   1.104729 S    
C73   C75   1.399355 A    
C103  H74   1.107564 S    
C90   H41   1.104539 S    
C84   H36   1.068507 S    
O3    Zn2   1.957347 S    
O5    Zn3   1.929989 S    
C75   N3    1.356799 A    
C86   C90   1.504594 S    
C30   C40   1.414684 A    
O7    Zn4   1.929989 S    
C106  H83   1.109819 S    
C68   H32   1.079788 S    
C22   H18   1.083529 S    
Zn4   O15   1.957330 S    
O15   C7    1.312954 A    
C42   C48   1.402028 A    
C92   H43   1.111157 S    
C67   N3    1.353385 A    
C31   C35   1.405551 A    
C10   C58   1.403840 A    
C36   C64   1.415793 A    
C100  H64   1.111366 S    
O2    C2    1.320268 A    
C66   H30   1.083652 S    
C17   C61   1.430413 A    
C96   H53   1.110867 S    
C68   C70   1.399698 A    
O16   C8    1.313363 A    
C72   C74   1.410987 A    
C26   C30   1.415127 A    
H5    C45   1.080434 S    
C24   H20   1.083763 S    
C74   C76   1.397284 A    
C19   C63   1.424128 A    
Zn2   O11   1.930113 S    
C34   C50   1.409744 A    
N1    C85   1.365389 A    
C48   C52   1.389803 A    
C105  H80   1.109593 S    
C79   C81   1.392043 A    
C5    C14   1.451707 S    
O6    C2    1.327943 A    
C82   C84   1.390034 A    
C29   C33   1.402718 A    
C18   C62   1.421305 A    
Zn1   O9    1.930113 S    
C98   H58   1.109766 S    
C94   H50   1.110380 S    
C13   C57   1.394528 A    
C95   H56   1.109708 S    
C18   C22   1.393937 A    
C8    C15   1.455140 S    
C83   H35   1.066112 S    
C16   C56   1.375295 A    
C65   C87   1.383371 A    
O9    C5    1.322411 A    
C101  C102  1.529944 S    
C100  H65   1.109700 S    
C66   C88   1.388538 A    
C90   H40   1.107991 S    
C18   C104  1.510864 S    
C16   C60   1.392035 A    
C89   H37   1.066153 S    
C31   C37   1.414520 A    
C99   C100  1.526739 S    
C38   C42   1.422451 A    
Zn3   O13   1.957330 S    
C47   C51   1.388258 A    
C21   C25   1.377951 A    
C34   C62   1.413716 A    
C49   H21   1.081208 S    
H6    C46   1.075917 S    
C50   H22   1.082685 S    
C41   C47   1.402379 A    
C23   C27   1.385529 A    
O4    Zn2   1.954403 S    
Zn4   O16   1.954385 S    
C69   C71   1.395071 A    
O3    C3    1.313490 A    
C65   H29   1.083983 S    
O14   C6    1.314891 A    
C101  H72   1.101617 S    
C73   C77   1.428210 A    
C20   C24   1.394304 A    
C106  H84   1.108147 S    
O1    Zn1   1.957347 S    
C80   C82   1.393016 A    
C102  H68   1.110506 S    
C46   C50   1.388990 A    
H8    C48   1.080419 S    
C35   C63   1.414871 A    
C81   C83   1.384258 A    
C45   C49   1.394024 A    
C17   C103  1.497428 S    
C95   H57   1.112113 S    
C69   C91   1.505204 S    
C56   H12   1.080013 S    
C98   H59   1.111092 S    
C100  H63   1.110006 S    
N2    C86   1.353967 A    
C70   C72   1.395435 A    
C91   H46   1.111744 S    
C97   H62   1.110368 S    
C24   C28   1.382492 A    
C6    C13   1.446366 S    
C77   C79   1.424531 A    
C76   N4    1.352570 A    
C78   C86   1.397782 A    
