data_mof_unit_33247.cif
_audit_creation_date              2012-12-10T17:15:55-0500
_audit_creation_method            fapswitch 2.2
_symmetry_space_group_name_H-M    P1
_symmetry_Int_Tables_number       1
_space_group_crystal_system       triclinic
_cell_length_a                    10.118282
_cell_length_b                    10.686013
_cell_length_c                    10.654395
_cell_angle_alpha                 89.645799
_cell_angle_beta                  95.675402
_cell_angle_gamma                 81.992865
_cell_volume                      1134.94092831

loop_
_atom_site_label
_atom_site_type_symbol
_atom_type_description
_atom_site_fract_x
_atom_site_fract_y
_atom_site_fract_z
_atom_type_partial_charge
C1    C     C_R   0.444173 0.512866 0.265798 0.952604
C2    C     C_2   0.510413 0.584839 0.936139 0.350044
C3    C     C_2   0.077827 0.483230 0.488381 -0.220998
C4    C     C_R   0.502629 0.260111 0.513447 0.843305
C5    C     C_2   0.944353 0.466206 0.529991 0.426116
C6    C     C_R   0.556033 0.497554 0.733358 0.973935
C7    C     C_R   0.498403 0.740426 0.488418 0.951559
C8    C     C_R   0.753056 0.076393 0.568753 -0.116445
C9    C     C_R   0.869689 0.002141 0.538304 -0.156874
C10   C     C_R   0.859652 0.902154 0.456204 -0.223185
C11   C     C_R   0.733564 0.867962 0.416510 0.432290
C12   C     C_R   0.626090 0.043676 0.525940 0.048057
C13   C     C_R   0.619472 0.926133 0.472201 -0.009293
C14   C     C_3   0.653169 0.280302 0.926673 -0.642359
C15   C     C_R   0.504712 0.126040 0.527827 -0.095698
C16   C     C_R   0.381773 0.079582 0.515485 -0.163351
C17   C     C_R   0.379336 0.953317 0.495467 -0.129852
C18   C     C_R   0.498177 0.875028 0.476170 -0.062828
C19   C     C_2   0.416875 0.540570 0.131130 -0.387513
C20   C     C_2   0.519861 0.568060 0.070754 -0.138199
C21   C     C_2   0.587576 0.501631 0.868448 -0.070328
H1    H     H_    0.287417 0.140568 0.519912 0.176478
H2    H     H_    0.618274 0.571460 0.119823 0.237406
H3    H     H_    0.088756 0.421587 0.858505 0.385390
H4    H     H_    0.902566 0.676153 0.272769 0.340595
H5    H     H_    0.305096 0.798942 0.031018 0.363231
H6    H     H_    0.738804 0.429552 0.010775 0.242716
H7    H     H_    0.740272 0.212723 0.967843 0.263093
H8    H     H_    0.625255 0.251144 0.828768 0.226993
H9    H     H_    0.567865 0.276275 0.984073 0.230436
H10   H     H_    0.317555 0.539319 0.082400 0.174306
H11   H     H_    0.113301 0.429051 0.409572 0.147578
H12   H     H_    0.862886 0.444898 0.356096 0.165849
H13   H     H_    0.120033 0.605186 0.622912 0.260432
H14   H     H_    0.762087 0.158582 0.625581 0.201025
H15   H     H_    0.966908 0.028715 0.569289 0.178408
H16   H     H_    0.948754 0.857262 0.417125 0.149642
H17   H     H_    0.284267 0.917377 0.494763 0.168570
N1    N     N_2   0.157290 0.551390 0.551110 -0.150101
N2    N     N_2   0.842740 0.448550 0.448960 -0.227510
N3    N     N_2   0.689106 0.406680 0.926820 -0.280243
O1    O     O_R   0.568950 0.489660 0.307530 -0.585161
O2    O     O_2   0.873673 0.336386 0.723778 -0.308200
O3    O     O_3   0.099105 0.421063 0.767002 -0.548604
O4    O     O_2   0.570409 0.789947 0.226795 -0.291760
O5    O     O_2   0.762029 0.886281 0.171755 -0.266429
O6    O     O_3   0.808446 0.658931 0.264784 -0.593826
O7    O     O_2   0.469787 0.780727 0.770621 -0.282190
O8    O     O_2   0.271993 0.686551 0.816604 -0.302513
O9    O     O_3   0.376354 0.827814 0.985361 -0.456384
O10   O     O_R   0.348880 0.522640 0.340350 -0.627644
O11   O     O_R   0.610060 0.300270 0.483590 -0.616895
O12   O     O_R   0.389990 0.333260 0.516410 -0.610810
O13   O     O_R   0.651120 0.477360 0.659650 -0.524057
O14   O     O_R   0.431050 0.510340 0.692470 -0.570992
O15   O     O_R   0.610010 0.666740 0.483590 -0.587740
O16   O     O_R   0.389940 0.699730 0.516410 -0.599390
O17   O     O_2   0.870677 0.566718 0.747080 -0.283468
S1    S     S_3+6 0.941590 0.448036 0.695367 0.044987
S2    S     S_3+6 0.714886 0.801216 0.265712 0.028783
S3    S     S_3+6 0.404139 0.721442 0.871752 0.079756
Zn1   Zn    Zn3+2 0.646940 0.477980 0.478090 1.060246
Zn2   Zn    Zn3+2 0.353060 0.522020 0.521910 1.027009

loop_
_geom_bond_atom_site_label_1
_geom_bond_atom_site_label_2
_ccdc_geom_bond_type
C9    H15   S    
C2    S3    S    
O4    S2    D    
C10   H16   S    
C4    O12   A    
C1    O10   A    
C9    C10   A    
O1    Zn1   S    
C19   C20   D    
C12   C15   A    
O2    S1    D    
C6    O14   A    
C8    C12   A    
C7    C18   S    
C19   H10   S    
C2    C21   D    
C17   C18   A    
O6    S2    S    
N2    Zn1   S    
O10   Zn2   S    
O11   Zn1   S    
C11   S2    S    
C6    C21   S    
O12   Zn2   S    
O7    S3    D    
O5    S2    D    
C13   C18   A    
C6    O13   A    
C14   N3    S    
C21   N3    S    
C7    O15   A    
C4    O11   A    
O16   Zn2   S    
C17   H17   S    
H5    O9    S    
C4    C15   S    
C3    H11   S    
H3    O3    S    
O15   Zn1   S    
C1    C19   S    
H12   N2    S    
O8    S3    D    
C10   C11   A    
C5    S1    S    
C14   H8    S    
C2    C20   S    
C15   C16   A    
C1    O1    A    
C11   C13   A    
N1    Zn2   S    
C12   C13   A    
C5    N2    D    
C3    N1    D    
O9    S3    S    
H6    N3    S    
H4    O6    S    
C16   C17   A    
C16   H1    S    
O3    S1    S    
C14   H7    S    
O17   S1    D    
C14   H9    S    
C20   H2    S    
O13   Zn1   S    
C7    O16   A    
H13   N1    S    
C8    C9    A    
C3    C5    S    
C8    H14   S    
O14   Zn2   S    
