data_mof_unit_9525.cif
_audit_creation_date              2012-10-26T17:11:29-0400
_audit_creation_method            fapswitch 2.2
_symmetry_space_group_name_H-M    P1
_symmetry_Int_Tables_number       1
_space_group_crystal_system       triclinic
_cell_length_a                    28.038886
_cell_length_b                    18.821235
_cell_length_c                    16.850455
_cell_angle_alpha                 90.018866
_cell_angle_beta                  62.479895
_cell_angle_gamma                 89.987804
_cell_volume                      7886.24024483

loop_
_atom_site_label
_atom_site_type_symbol
_atom_type_description
_atom_site_fract_x
_atom_site_fract_y
_atom_site_fract_z
_atom_type_partial_charge
C1    C     C_R   0.294813 0.727901 0.329843 0.770306
C2    C     C_R   0.704700 0.271170 0.670501 0.769847
C3    C     C_R   0.705131 0.727998 0.670269 0.769988
C4    C     C_R   0.295294 0.271181 0.329497 0.769312
C5    C     C_R   0.794912 0.228083 0.329697 0.790131
C6    C     C_R   0.204512 0.770823 0.670572 0.789948
C7    C     C_R   0.205098 0.228065 0.670302 0.790400
C8    C     C_R   0.795302 0.771161 0.329482 0.789112
C9    C     C_R   0.405304 0.002801 0.479668 -0.057296
C10   C     C_R   0.595711 0.002721 0.516666 -0.058218
C11   C     C_R   0.903359 0.499955 0.486250 -0.057663
C12   C     C_R   0.096708 0.499984 0.513482 -0.057730
C13   C     C_R   0.606774 0.878408 0.471311 0.468091
C14   C     C_R   0.420352 0.128722 0.441093 0.475902
C15   C     C_R   0.393715 0.879074 0.527026 0.471538
C16   C     C_R   0.580365 0.128644 0.555391 0.476473
C17   C     C_R   0.106849 0.375172 0.469660 0.470971
C18   C     C_R   0.919038 0.625159 0.444738 0.473411
C19   C     C_R   0.893213 0.375205 0.530223 0.471117
C20   C     C_R   0.081030 0.625256 0.554798 0.471996
C21   C     C_R   0.217173 0.759853 0.955963 0.108682
C22   C     C_R   0.778066 0.229680 0.047156 0.110821
C23   C     C_R   0.781245 0.764603 0.044732 0.105999
C24   C     C_R   0.221923 0.229667 0.952865 0.109099
C25   C     C_R   0.718703 0.264443 0.955248 0.105927
C26   C     C_R   0.275473 0.725790 0.049973 0.106922
C27   C     C_R   0.281313 0.264446 0.044729 0.104215
C28   C     C_R   0.721892 0.729757 0.952839 0.111202
C29   C     C_R   0.273717 0.760280 0.912526 -0.175241
C30   C     C_R   0.757298 0.298437 0.052842 -0.175005
C31   C     C_R   0.760481 0.695816 0.050454 -0.174866
C32   C     C_R   0.242667 0.298419 0.947213 -0.173916
C33   C     C_R   0.739505 0.195658 0.949501 -0.177964
C34   C     C_R   0.218879 0.724785 0.093606 -0.176900
C35   C     C_R   0.260534 0.195667 0.050444 -0.177157
C36   C     C_R   0.742626 0.798522 0.947162 -0.176454
C37   C     C_R   0.302486 0.743656 0.958921 -0.173905
C38   C     C_R   0.728052 0.315675 0.007250 -0.180328
C39   C     C_R   0.731145 0.678559 0.004942 -0.175095
C40   C     C_R   0.271927 0.315664 0.992782 -0.179129
C41   C     C_R   0.768849 0.178443 0.995021 -0.174624
C42   C     C_R   0.190028 0.741850 0.047122 -0.175837
C43   C     C_R   0.231176 0.178445 0.004948 -0.173459
C44   C     C_R   0.771875 0.815800 0.992744 -0.179996
C45   C     C_R   0.142393 0.825798 0.945591 -0.201624
C46   C     C_R   0.854667 0.168466 0.056584 -0.202775
C47   C     C_R   0.856647 0.828105 0.055265 -0.201119
C48   C     C_R   0.145346 0.168445 0.943402 -0.201488
C49   C     C_R   0.643346 0.328077 0.944696 -0.201895
C50   C     C_R   0.352820 0.665651 0.058388 -0.203002
C51   C     C_R   0.356641 0.328098 0.055317 -0.200665
C52   C     C_R   0.645375 0.668413 0.943339 -0.203367
C53   C     C_R   0.116975 0.850507 0.895758 -0.062814
C54   C     C_R   0.881781 0.147319 0.105066 -0.061814
C55   C     C_R   0.882619 0.851393 0.104658 -0.063081
C56   C     C_R   0.118240 0.147277 0.894914 -0.062007
C57   C     C_R   0.617452 0.351508 0.895247 -0.062012
C58   C     C_R   0.380987 0.646169 0.105777 -0.060889
C59   C     C_R   0.382529 0.351548 0.104771 -0.061912
C60   C     C_R   0.618339 0.647104 0.894794 -0.060685
C61   C     C_R   0.136070 0.829129 0.807057 -0.229654
C62   C     C_R   0.863374 0.170209 0.192996 -0.224592
C63   C     C_R   0.863775 0.829355 0.193034 -0.231427
C64   C     C_R   0.136655 0.170141 0.806976 -0.224344
C65   C     C_R   0.636379 0.329635 0.806797 -0.246951
C66   C     C_R   0.363029 0.669699 0.193322 -0.241983
C67   C     C_R   0.363596 0.329695 0.193228 -0.247315
C68   C     C_R   0.636841 0.669784 0.806771 -0.241919
C69   C     C_R   0.180785 0.784823 0.766912 -0.067721
C70   C     C_R   0.817280 0.211975 0.234072 -0.057231
C71   C     C_R   0.818607 0.785833 0.233317 -0.064441
C72   C     C_R   0.182731 0.211924 0.765927 -0.057371
C73   C     C_R   0.681420 0.285876 0.766613 -0.061312
C74   C     C_R   0.316660 0.710889 0.234741 -0.056718
C75   C     C_R   0.318579 0.285913 0.233381 -0.061503
C76   C     C_R   0.682814 0.711754 0.765823 -0.057737
C77   C     C_R   0.205177 0.758797 0.817515 -0.222852
C78   C     C_R   0.790246 0.233096 0.185389 -0.200568
C79   C     C_R   0.793322 0.761596 0.183164 -0.223265
C80   C     C_R   0.209743 0.233048 0.814640 -0.199891
C81   C     C_R   0.706587 0.261380 0.816829 -0.225280
C82   C     C_R   0.288806 0.730720 0.187029 -0.206257
C83   C     C_R   0.293442 0.261401 0.183127 -0.224958
C84   C     C_R   0.709752 0.733037 0.814586 -0.205435
C85   C     C_R   0.197624 0.631516 0.523645 0.844188
C86   C     C_R   0.799252 0.368810 0.487040 0.848401
C87   C     C_R   0.802388 0.631515 0.476300 0.844966
C88   C     C_R   0.200754 0.368806 0.512938 0.848468
C89   C     C_R   0.696399 0.132046 0.528048 0.845317
C90   C     C_R   0.301033 0.869166 0.481168 0.847021
C91   C     C_R   0.303706 0.132111 0.471437 0.845469
C92   C     C_R   0.699167 0.869143 0.518111 0.845984
C93   C     C_R   0.187019 0.780302 0.906527 0.069431
C94   C     C_R   0.808557 0.211112 0.096515 0.067934
C95   C     C_R   0.811482 0.783722 0.094381 0.067687
C96   C     C_R   0.191439 0.211082 0.903498 0.068100
C97   C     C_R   0.688467 0.283573 0.905597 0.067749
C98   C     C_R   0.306396 0.707807 0.098805 0.068865
C99   C     C_R   0.311546 0.283591 0.094383 0.067938
C100  C     C_R   0.691440 0.711100 0.903448 0.068084
C101  C     C_R   0.926556 0.903130 0.066628 0.800594
C102  C     C_R   0.073603 0.096632 0.933283 0.804939
C103  C     C_R   0.073411 0.902994 0.933434 0.800735
C104  C     C_R   0.926408 0.096649 0.066712 0.804405
C105  C     C_R   0.426509 0.403202 0.066676 0.800262
C106  C     C_R   0.573650 0.596560 0.933237 0.803099
C107  C     C_R   0.573480 0.403186 0.933329 0.800140
C108  C     C_R   0.426135 0.596281 0.066952 0.803570
C109  C     C_R   0.041465 0.627887 0.525490 0.012653
C110  C     C_R   0.947168 0.372401 0.511525 0.011444
C111  C     C_R   0.958658 0.627839 0.473919 0.013197
C112  C     C_R   0.052898 0.372389 0.488351 0.011526
C113  C     C_R   0.541580 0.131112 0.524457 0.011083
C114  C     C_R   0.447505 0.875837 0.509677 0.013988
C115  C     C_R   0.459601 0.131126 0.471056 0.011238
C116  C     C_R   0.552997 0.875581 0.488431 0.013318
C117  C     C_R   0.019340 0.692329 0.515331 -0.186322
C118  C     C_R   0.973022 0.307847 0.509077 -0.182218
C119  C     C_R   0.980824 0.692298 0.483901 -0.186789
C120  C     C_R   0.027045 0.307836 0.490880 -0.182139
C121  C     C_R   0.519703 0.195547 0.513717 -0.184183
C122  C     C_R   0.473039 0.811249 0.508517 -0.185309
C123  C     C_R   0.481501 0.195553 0.481728 -0.184070
C124  C     C_R   0.527044 0.811074 0.490939 -0.183325
C125  C     C_R   0.977525 0.564172 0.491663 -0.002344
C126  C     C_R   0.025184 0.436199 0.499446 -0.002366
C127  C     C_R   0.022585 0.564188 0.507860 -0.002714
C128  C     C_R   0.974890 0.436196 0.500328 -0.002358
C129  C     C_R   0.478377 0.067353 0.488830 -0.002736
C130  C     C_R   0.525446 0.939377 0.498556 -0.002073
C131  C     C_R   0.522957 0.067351 0.506425 -0.002477
C132  C     C_R   0.475498 0.939431 0.498045 -0.001295
C133  C     C_R   0.453058 0.003285 0.488586 -0.043291
C134  C     C_R   0.548130 0.003247 0.507206 -0.043926
C135  C     C_R   0.951991 0.500144 0.492262 -0.043514
C136  C     C_R   0.048093 0.500162 0.507410 -0.043741
C137  C     C_R   0.375502 0.938783 0.495448 -0.116282
C138  C     C_R   0.613701 0.066602 0.538461 -0.108451
C139  C     C_R   0.625361 0.938555 0.501629 -0.114638
C140  C     C_R   0.387034 0.066671 0.458424 -0.108110
C141  C     C_R   0.873645 0.435951 0.502891 -0.110836
C142  C     C_R   0.115463 0.563913 0.534092 -0.112249
C143  C     C_R   0.126407 0.435953 0.496952 -0.110946
C144  C     C_R   0.884592 0.563857 0.465612 -0.111149
C145  C     C_R   0.329945 0.936778 0.478260 -0.216640
C146  C     C_R   0.664186 0.066011 0.540586 -0.214756
C147  C     C_R   0.670583 0.936683 0.519752 -0.214132
C148  C     C_R   0.336166 0.066106 0.457649 -0.214952
C149  C     C_R   0.825571 0.435584 0.493704 -0.213427
C150  C     C_R   0.168613 0.564558 0.526979 -0.212891
C151  C     C_R   0.174457 0.435584 0.506202 -0.213374
C152  C     C_R   0.831414 0.564536 0.472870 -0.212860
C153  C     C_R   0.312563 0.000472 0.455420 0.406098
C154  C     C_R   0.687708 0.000400 0.543046 0.406131
C155  C     C_R   0.801883 0.500531 0.491055 0.395810
C156  C     C_R   0.198137 0.500526 0.508855 0.396307
Cu1   Cu    Cu3+1 0.209920 0.785290 0.495070 0.998630
Cu2   Cu    Cu3+1 0.790080 0.214710 0.504930 1.004516
Cu3   Cu    Cu3+1 0.790080 0.785290 0.504930 0.999881
Cu4   Cu    Cu3+1 0.209920 0.214710 0.495070 1.004739
Cu5   Cu    Cu3+1 0.709920 0.285290 0.495070 0.998792
Cu6   Cu    Cu3+1 0.290080 0.714710 0.504930 0.998316
Cu7   Cu    Cu3+1 0.290080 0.285290 0.504930 0.999823
Cu8   Cu    Cu3+1 0.709920 0.714710 0.495070 0.997790
Cu9   Cu    Cu3+1 0.495240 0.500000 0.924150 0.933967
Cu10  Cu    Cu3+1 0.504760 0.500000 0.075850 0.933236
Cu11  Cu    Cu3+1 0.995240 0.000000 0.924150 0.943380
Cu12  Cu    Cu3+1 0.004760 0.000000 0.075850 0.944139
H1    H     H_    0.547403 0.760844 0.484417 0.171047
H2    H     H_    0.467219 0.245898 0.469789 0.177676
H3    H     H_    0.452335 0.761160 0.516192 0.171164
H4    H     H_    0.533890 0.245881 0.525882 0.177370
H5    H     H_    0.047598 0.257645 0.483532 0.172376
H6    H     H_    0.966448 0.742595 0.472032 0.176893
H7    H     H_    0.952469 0.257665 0.516492 0.172376
H8    H     H_    0.033736 0.742648 0.527092 0.176874
H9    H     H_    0.146511 0.740239 0.082212 0.129577
H10   H     H_    0.783592 0.124655 0.990617 0.127338
H11   H     H_    0.786371 0.869689 0.988548 0.127564
H12   H     H_    0.216452 0.124662 0.009326 0.130107
H13   H     H_    0.713544 0.369569 0.011447 0.128258
H14   H     H_    0.345986 0.745940 0.923741 0.130930
H15   H     H_    0.286414 0.369554 0.988612 0.131139
H16   H     H_    0.716440 0.624764 0.009320 0.127839
H17   H     H_    0.296002 0.774851 0.842937 0.124138
H18   H     H_    0.764356 0.339210 0.091564 0.130461
H19   H     H_    0.767517 0.655096 0.089232 0.130636
H20   H     H_    0.235582 0.339181 0.908530 0.132280
H21   H     H_    0.732496 0.154911 0.910703 0.125817
H22   H     H_    0.196881 0.709923 0.163421 0.130295
H23   H     H_    0.267570 0.154929 0.089201 0.127269
H24   H     H_    0.735547 0.839263 0.908446 0.125551
H25   H     H_    0.128951 0.844248 0.013496 0.147848
H26   H     H_    0.868873 0.150936 0.988126 0.149253
H27   H     H_    0.870980 0.845368 0.986698 0.148831
H28   H     H_    0.131147 0.150941 0.011851 0.149585
H29   H     H_    0.628978 0.345307 0.013302 0.148797
H30   H     H_    0.365749 0.645795 0.991208 0.149048
H31   H     H_    0.370998 0.345310 0.986726 0.149110
H32   H     H_    0.631135 0.650995 0.011829 0.149307
H33   H     H_    0.117410 0.849460 0.767933 0.180767
H34   H     H_    0.883787 0.153095 0.230789 0.177396
H35   H     H_    0.883050 0.848501 0.231762 0.180465
H36   H     H_    0.116257 0.153010 0.769164 0.177386
H37   H     H_    0.617239 0.349024 0.767971 0.177335
H38   H     H_    0.384076 0.653669 0.230516 0.174355
H39   H     H_    0.382722 0.349100 0.232075 0.177353
H40   H     H_    0.616558 0.652443 0.768858 0.174088
H41   H     H_    0.239467 0.723494 0.786849 0.154555
H42   H     H_    0.753669 0.264161 0.217607 0.150730
H43   H     H_    0.757832 0.728464 0.214486 0.152200
H44   H     H_    0.246302 0.264111 0.782455 0.150984
H45   H     H_    0.741903 0.227904 0.785603 0.149087
H46   H     H_    0.252959 0.763203 0.218847 0.148101
H47   H     H_    0.258157 0.227907 0.214312 0.149184
H48   H     H_    0.746256 0.764212 0.782442 0.149346
O1    O     O_R   0.255040 0.869590 0.478480 -0.535236
O2    O     O_R   0.744960 0.130410 0.521520 -0.538994
O3    O     O_R   0.744960 0.869590 0.521520 -0.535417
O4    O     O_R   0.255040 0.130410 0.478480 -0.539181
O5    O     O_R   0.755040 0.369590 0.478480 -0.540233
O6    O     O_R   0.244960 0.630410 0.521520 -0.537326
O7    O     O_R   0.244960 0.369590 0.521520 -0.539917
O8    O     O_R   0.755040 0.630410 0.478480 -0.537988
O9    O     O_R   0.182050 0.796550 0.624440 -0.577689
O10   O     O_R   0.817950 0.203450 0.375560 -0.590672
O11   O     O_R   0.817950 0.796550 0.375560 -0.578245
O12   O     O_R   0.182050 0.203450 0.624440 -0.590590
O13   O     O_R   0.682050 0.296550 0.624440 -0.584920
O14   O     O_R   0.317950 0.703450 0.375560 -0.598302
O15   O     O_R   0.317950 0.296550 0.375560 -0.584534
O16   O     O_R   0.682050 0.703450 0.624440 -0.598235
O17   O     O_R   0.250530 0.763330 0.367210 -0.600323
O18   O     O_R   0.749470 0.236670 0.632790 -0.575577
O19   O     O_R   0.749470 0.763330 0.632790 -0.599018
O20   O     O_R   0.250530 0.236670 0.367210 -0.575605
O21   O     O_R   0.750530 0.263330 0.367210 -0.596028
O22   O     O_R   0.249470 0.736670 0.632790 -0.573919
O23   O     O_R   0.249470 0.263330 0.632790 -0.595570
O24   O     O_R   0.750530 0.736670 0.367210 -0.572794
O25   O     O_R   0.177260 0.690030 0.513710 -0.542617
O26   O     O_R   0.822740 0.309970 0.486290 -0.544859
O27   O     O_R   0.822740 0.690030 0.486290 -0.541361
O28   O     O_R   0.177260 0.309970 0.513710 -0.544934
O29   O     O_R   0.677260 0.190030 0.513710 -0.540455
O30   O     O_R   0.322740 0.809970 0.486290 -0.542738
O31   O     O_R   0.322740 0.190030 0.486290 -0.540440
O32   O     O_R   0.677260 0.809970 0.513710 -0.544084
O33   O     O_R   0.051640 0.926880 0.885090 -0.586967
O34   O     O_R   0.948360 0.073120 0.114910 -0.587004
O35   O     O_R   0.948360 0.926880 0.114910 -0.587553
O36   O     O_R   0.051640 0.073120 0.885090 -0.587062
O37   O     O_R   0.551640 0.426880 0.885090 -0.591231
O38   O     O_R   0.448360 0.573120 0.114910 -0.591229
O39   O     O_R   0.448360 0.426880 0.114910 -0.591374
O40   O     O_R   0.551640 0.573120 0.885090 -0.591678
O41   O     O_R   0.940620 0.926560 0.986760 -0.593674
O42   O     O_R   0.059380 0.073440 0.013240 -0.592781
O43   O     O_R   0.059380 0.926560 0.013240 -0.592891
O44   O     O_R   0.940620 0.073440 0.986760 -0.593688
O45   O     O_R   0.440620 0.426560 0.986760 -0.591483
O46   O     O_R   0.559380 0.573440 0.013240 -0.591806
O47   O     O_R   0.559380 0.426560 0.013240 -0.592219
O48   O     O_R   0.440620 0.573440 0.986760 -0.591600
O49   O     O_3   0.269946 0.999077 0.435361 -0.536912
C157  C     C_3   0.290911 0.999947 0.341429 -0.260167
H49   H     H_    0.313198 0.050055 0.312112 0.130695
H50   H     H_    0.256924 0.997098 0.325053 0.182396
H51   H     H_    0.317260 0.953118 0.310085 0.135416
O50   O     O_3   0.729869 0.999012 0.564261 -0.536281
C158  C     C_3   0.708245 0.999772 0.658315 -0.263950
H52   H     H_    0.685834 0.049869 0.687442 0.131011
H53   H     H_    0.741871 0.996847 0.675587 0.181196
H54   H     H_    0.681821 0.952940 0.689119 0.134475
O51   O     O_3   0.748455 0.501500 0.508672 -0.541636
C159  C     C_3   0.715743 0.501975 0.602487 -0.215881
H55   H     H_    0.724352 0.548860 0.634144 0.131093
H56   H     H_    0.720429 0.452172 0.633782 0.127767
H57   H     H_    0.673055 0.505537 0.616632 0.180480
O52   O     O_3   0.251555 0.501461 0.491294 -0.541267
C160  C     C_3   0.284293 0.501866 0.397486 -0.215556
H58   H     H_    0.275703 0.548749 0.365818 0.130838
H59   H     H_    0.279612 0.452055 0.366169 0.127724
H60   H     H_    0.326974 0.505378 0.383381 0.180775
O53   O     O_3   0.641352 0.829430 0.410595 -0.559625
C161  C     C_3   0.672761 0.863953 0.328294 -0.282595
H61   H     H_    0.648236 0.898931 0.307855 0.146295
H62   H     H_    0.691173 0.823072 0.275522 0.187353
H63   H     H_    0.705733 0.894833 0.331112 0.154953
O54   O     O_3   0.418668 0.185088 0.389489 -0.561658
C162  C     C_3   0.437767 0.162209 0.300231 -0.318303
H64   H     H_    0.409507 0.124077 0.293723 0.142681
H65   H     H_    0.478676 0.138450 0.273512 0.155747
H66   H     H_    0.440706 0.209075 0.258293 0.190062
O55   O     O_3   0.358872 0.830778 0.588403 -0.559460
C163  C     C_3   0.325409 0.866977 0.668346 -0.295292
H67   H     H_    0.297097 0.903462 0.659363 0.152770
H68   H     H_    0.349338 0.896242 0.695272 0.150829
H69   H     H_    0.300742 0.827332 0.718700 0.181098
O56   O     O_3   0.581238 0.184689 0.608130 -0.561395
C164  C     C_3   0.561404 0.161244 0.697290 -0.317899
H70   H     H_    0.589521 0.123145 0.704294 0.142758
H71   H     H_    0.520666 0.137228 0.722684 0.155788
H72   H     H_    0.557797 0.207856 0.740032 0.189882
O57   O     O_3   0.140852 0.325065 0.410131 -0.559990
C165  C     C_3   0.170179 0.357232 0.325497 -0.291135
H73   H     H_    0.203898 0.389392 0.323736 0.146820
H74   H     H_    0.144313 0.390443 0.306047 0.147400
H75   H     H_    0.187459 0.314842 0.274490 0.188930
O58   O     O_3   0.918195 0.680261 0.390837 -0.562189
C166  C     C_3   0.934364 0.654344 0.303560 -0.311444
H76   H     H_    0.903894 0.617633 0.301552 0.150790
H77   H     H_    0.974362 0.627828 0.276022 0.152983
H78   H     H_    0.938126 0.699999 0.259411 0.187415
O59   O     O_3   0.859224 0.325138 0.589744 -0.560017
C167  C     C_3   0.829862 0.357370 0.674370 -0.291456
H79   H     H_    0.796188 0.389612 0.676065 0.146750
H80   H     H_    0.855724 0.390514 0.693894 0.147744
H81   H     H_    0.812514 0.315019 0.725359 0.188747
O60   O     O_3   0.081780 0.680423 0.608735 -0.562210
C168  C     C_3   0.065643 0.654580 0.696008 -0.304869
H82   H     H_    0.096193 0.618013 0.698035 0.149850
H83   H     H_    0.025713 0.627926 0.723499 0.154513
H84   H     H_    0.061753 0.700292 0.740191 0.187893

loop_
_geom_bond_atom_site_label_1
_geom_bond_atom_site_label_2
_ccdc_geom_bond_type
Cu5   O13   S    
C4    O20   A    
Cu7   O31   S    
C162  H64   S    
C34   C42   A    
C16   C113  A    
C110  C118  A    
C50   H30   S    
C164  H70   S    
C160  H60   S    
C6    O22   A    
C27   C99   S    
C38   H13   S    
C13   C139  A    
C47   H27   S    
C117  C119  A    
Cu6   O22   S    
C158  H52   S    
C62   C70   A    
C33   H21   S    
C90   O1    A    
C2    O13   A    
C3    O19   A    
C109  C127  A    
C1    O17   A    
C101  O41   A    
C111  C125  A    
C85   O6    A    
Cu2   O10   S    
C125  C135  A    
C143  C151  A    
C64   H36   S    
C126  C136  A    
C19   C141  A    
C92   C147  S    
C82   C98   A    
C130  C134  A    
C44   H11   S    
C73   C81   A    
C43   H12   S    
C115  C123  A    
C84   C100  A    
Cu4   Cu7   S    
C127  C136  A    
C128  C135  A    
C112  C120  A    
C27   C35   A    
C21   C29   A    
C167  H79   S    
C23   C31   A    
C24   C32   A    
C5    C70   S    
Cu8   O8    S    
C146  C154  A    
C88   O7    A    
Cu2   O2    S    
C165  H73   S    
C129  C133  A    
C13   O53   S    
C163  H67   S    
C63   C71   A    
C36   C44   A    
C148  C153  A    
C105  O39   A    
Cu7   O23   S    
O56   C164  S    
C164  H72   S    
C137  C145  A    
Cu12  O35   S    
C8    C71   S    
C48   C96   A    
C161  H63   S    
C16   C138  A    
Cu8   O16   S    
Cu9   O40   S    
C24   C96   S    
C149  C155  A    
C161  H62   S    
C21   C93   S    
C78   C94   A    
C23   C95   S    
C108  O48   A    
Cu10  O46   S    
C118  C120  A    
C121  C123  A    
C49   C97   A    
C21   C42   A    
C116  C130  A    
C168  H82   S    
Cu4   O20   S    
C31   H19   S    
C125  C127  A    
C24   C43   A    
C10   C138  A    
C154  O50   S    
Cu1   Cu6   S    
C110  C128  A    
C15   C137  A    
C9    C133  A    
C6    C69   S    
C69   C77   A    
C45   C93   A    
C71   C79   A    
C92   O32   A    
C49   H29   S    
C30   C38   A    
C63   H35   S    
C167  H81   S    
C1    C74   S    
C162  H65   S    
Cu12  O43   S    
C119  H6    S    
C9    C140  A    
C65   H37   S    
C66   C74   A    
C6    O9    A    
C106  O46   A    
C49   C57   A    
C111  C119  A    
Cu2   O26   S    
C14   O54   S    
C52   C60   A    
C59   C67   A    
C53   C61   A    
C163  H69   S    
C81   H45   S    
C89   O29   A    
C55   C63   A    
C56   C64   A    
C52   H32   S    
C35   C43   A    
C78   H42   S    
C39   H16   S    
C80   H44   S    
C40   H15   S    
C45   C53   A    
C22   C94   S    
C46   H26   S    
C8    O24   A    
C50   C98   A    
C18   O58   S    
C103  O33   A    
C106  O40   A    
C34   H22   S    
O52   C160  S    
C7    C72   S    
C52   C100  A    
Cu11  O36   S    
C102  O42   A    
C92   O3    A    
Cu5   O29   S    
C25   C38   A    
C46   C94   A    
C27   C40   A    
C168  H84   S    
Cu10  O39   S    
Cu4   O28   S    
C11   C141  A    
C60   C68   A    
C2    C73   S    
C157  H50   S    
C25   C97   S    
C14   C140  A    
C87   C152  S    
C166  H77   S    
C88   C151  S    
C67   C75   A    
C17   O57   S    
C158  H53   S    
C60   C106  S    
C35   H23   S    
C22   C30   A    
C108  O38   A    
C36   H24   S    
Cu3   O19   S    
C7    O23   A    
C157  H51   S    
C160  H59   S    
Cu12  O34   S    
C16   O56   S    
C12   C143  A    
C56   C102  S    
C144  C152  A    
Cu2   O18   S    
Cu4   O4    S    
C138  C146  A    
C29   H17   S    
Cu9   O37   S    
C123  H2    S    
C121  H4    S    
C113  C121  A    
C159  H55   S    
C122  H3    S    
C12   C136  A    
Cu3   Cu8   S    
C122  C124  A    
C25   C33   A    
C86   O26   A    
C20   O60   S    
C158  H54   S    
O51   C159  S    
C131  C134  A    
C76   C84   A    
C109  C117  A    
C79   H43   S    
C59   C105  S    
C5    O21   A    
C54   C104  S    
C156  O52   S    
C90   C145  S    
C22   C41   A    
Cu5   O21   S    
C14   C115  A    
C107  O37   A    
C167  H80   S    
O54   C162  S    
C104  O44   A    
C91   O4    A    
Cu12  O42   S    
C85   C150  S    
C62   H34   S    
C4    C75   S    
Cu2   Cu5   S    
C89   O2    A    
C9    C137  A    
C1    O14   A    
C2    O18   A    
C124  H1    S    
C68   H40   S    
C165  H74   S    
C86   O5    A    
C112  C126  A    
Cu1   O9    S    
C163  H68   S    
O59   C167  S    
C83   C99   A    
C101  O35   A    
C74   C82   A    
Cu3   O27   S    
C164  H71   S    
C45   H25   S    
C91   O31   A    
C165  H75   S    
C50   C58   A    
C4    O15   A    
C104  O34   A    
C155  O51   S    
Cu11  Cu12  S    
C54   C62   A    
C28   C39   A    
C23   C44   A    
Cu4   O12   S    
C130  C132  A    
C79   C95   A    
O53   C161  S    
C11   C135  A    
C159  H57   S    
C15   O55   S    
C46   C54   A    
Cu1   O1    S    
Cu9   O48   S    
Cu10  O47   S    
C18   C111  A    
Cu6   O14   S    
Cu3   O3    S    
C68   C76   A    
C10   C139  A    
O55   C163  S    
O58   C166  S    
C116  C124  A    
C103  O43   A    
C57   C65   A    
C88   O28   A    
C83   H47   S    
C26   C37   A    
C17   C143  A    
C33   C41   A    
C87   O8    A    
C142  C150  A    
C18   C144  A    
C75   C83   A    
C53   C103  S    
C37   H14   S    
C90   O30   A    
C77   C93   A    
C12   C142  A    
C58   C108  S    
C13   C116  A    
C28   C36   A    
C72   C80   A    
O57   C165  S    
C29   C37   A    
O50   C158  S    
C19   O59   S    
C166  H76   S    
Cu9   Cu10  S    
C70   C78   A    
C153  O49   S    
C140  C148  A    
C141  C149  A    
C139  C147  A    
C102  O36   A    
C30   H18   S    
Cu7   O15   S    
C161  H61   S    
C66   H38   S    
C7    O12   A    
C42   H9    S    
O49   C157  S    
C65   C73   A    
C5    O10   A    
C147  C154  A    
Cu1   O25   S    
C61   H33   S    
C82   H46   S    
C26   C34   A    
Cu6   O6    S    
C132  C133  A    
C168  H83   S    
Cu8   O24   S    
C152  C155  A    
Cu3   O11   S    
C80   C96   A    
C11   C144  A    
C77   H41   S    
C145  C153  A    
C28   C100  S    
C32   C40   A    
C150  C156  A    
C48   H28   S    
C85   O25   A    
C91   C148  S    
C8    O11   A    
C58   C66   A    
C51   C99   A    
C89   C146  S    
C32   H20   S    
C20   C142  A    
C41   H10   S    
C162  H66   S    
C86   C149  S    
C160  H58   S    
C151  C156  A    
Cu5   O5    S    
Cu6   O30   S    
C87   O27   A    
Cu11  O41   S    
C15   C114  A    
C126  C128  A    
C3    C76   S    
C51   H31   S    
C26   C98   S    
C117  H8    S    
C57   C107  S    
C159  H56   S    
C118  H7    S    
Cu9   O45   S    
C51   C59   A    
C17   C112  A    
C67   H39   S    
C47   C55   A    
C115  C129  A    
C19   C110  A    
C61   C69   A    
C48   C56   A    
C113  C131  A    
C114  C132  A    
C10   C134  A    
C3    O16   A    
Cu7   O7    S    
C55   C101  S    
Cu11  O33   S    
O60   C168  S    
Cu1   O17   S    
C81   C97   A    
Cu10  O38   S    
C31   C39   A    
C64   C72   A    
Cu8   O32   S    
C157  H49   S    
C20   C109  A    
C114  C122  A    
C120  H5    S    
C105  O45   A    
Cu11  O44   S    
C166  H78   S    
C47   C95   A    
C107  O47   A    
C84   H48   S    
C129  C131  A    
