data_mof_unit_44956.cif
_audit_creation_date              2012-12-11T16:05:08-0500
_audit_creation_method            fapswitch 2.2
_symmetry_space_group_name_H-M    P1
_symmetry_Int_Tables_number       1
_space_group_crystal_system       triclinic
_cell_length_a                    10.591934
_cell_length_b                    10.65401
_cell_length_c                    16.805748
_cell_angle_alpha                 98.757868
_cell_angle_beta                  99.017057
_cell_angle_gamma                 62.036403
_cell_volume                      1647.59116514

loop_
_atom_site_label
_atom_site_type_symbol
_atom_type_description
_atom_site_fract_x
_atom_site_fract_y
_atom_site_fract_z
_atom_type_partial_charge
C1    C     C_R   0.349739 0.785989 0.403673 0.542484
C2    C     C_3   0.378042 0.746480 0.255620 -0.102023
C3    C     C_3   0.326338 0.852409 0.330026 0.049486
C4    C     C_R   0.366671 0.343504 0.360158 0.534023
C5    C     C_3   0.384060 0.946395 0.304400 -0.130816
C6    C     C_3   0.235210 0.030272 0.257350 -0.155834
C7    C     C_3   0.178722 0.935070 0.284842 -0.126863
C8    C     C_3   0.230316 0.828959 0.210077 -0.090360
C9    C     C_3   0.287129 0.923136 0.183244 0.055272
C10   C     C_3   0.460529 0.262294 0.776492 -0.120086
C11   C     C_3   0.400843 0.403177 0.737078 -0.119277
C12   C     C_3   0.680411 0.324260 0.234185 -0.133201
C13   C     C_3   0.339667 0.336437 0.663395 0.050567
C14   C     C_3   0.400069 0.196274 0.701716 -0.103974
C15   C     C_3   0.256412 0.256612 0.737700 0.000750
C16   C     C_R   0.703763 0.416734 0.390716 0.568195
C17   C     C_3   0.195912 0.397286 0.698430 -0.110061
C18   C     C_3   0.256846 0.462159 0.774202 -0.135807
C19   C     C_3   0.317152 0.321227 0.812455 0.055742
C20   C     C_1   0.758021 0.374152 0.717031 -0.068554
C21   C     C_1   0.802417 0.335449 0.784149 -0.072688
C22   C     C_1   0.361826 0.758632 0.715609 -0.067140
C23   C     C_3   0.740945 0.389943 0.308445 0.039316
C24   C     C_1   0.329861 0.804958 0.783448 -0.082633
C25   C     C_R   0.893626 0.309704 0.091337 0.538285
C26   C     C_R   0.291520 0.261710 0.122424 0.534173
C27   C     C_R   0.256902 0.959752 0.099744 0.551698
C28   C     C_R   0.380754 0.713396 0.631738 0.541257
C29   C     C_R   0.873724 0.304282 0.863668 0.538053
C30   C     C_R   0.307872 0.293465 0.891701 0.543680
C31   C     C_R   0.283330 0.878165 0.860306 0.520157
C32   C     C_R   0.367530 0.346207 0.585051 0.531590
C33   C     C_R   0.714018 0.412851 0.635357 0.539651
C34   C     C_3   0.895248 0.287637 0.290654 -0.116594
C35   C     C_1   0.325326 0.317475 0.278038 -0.072139
C36   C     C_1   0.305667 0.292761 0.206955 -0.080200
C37   C     C_3   0.836616 0.221424 0.215101 -0.121709
C38   C     C_3   0.171536 0.173640 0.735047 -0.244784
C39   C     C_3   0.132346 0.126185 0.647789 -0.308518
C40   C     C_3   0.041763 0.048111 0.644419 -0.385147
C41   C     C_R   0.566882 0.510801 0.117295 0.005887
C42   C     C_R   0.440975 0.495175 0.100666 -0.086489
C43   C     C_R   0.347266 0.548331 0.032079 -0.092003
C44   C     C_R   0.381791 0.611551 0.977909 -0.080034
C45   C     C_3   0.891373 0.399793 0.241309 -0.125883
C46   C     C_R   0.504144 0.632441 0.995481 -0.070266
C47   C     C_R   0.593141 0.587524 0.066616 -0.085153
C48   C     C_3   0.736088 0.503421 0.259749 -0.128185
C49   C     C_3   0.678182 0.436577 0.184377 -0.019857
C50   C     C_3   0.831879 0.334348 0.166449 0.054317
C51   C     C_3   0.435044 0.840867 0.228407 -0.107571
Cr1   Cr    Cr6+3 0.608340 0.611040 0.520430 1.003787
Cr2   Cr    Cr6+3 0.287650 0.601120 0.489350 1.000908
Cr3   Cr    Cr6+3 0.604040 0.287870 0.490280 0.997150
Cr4   Cr    Cr6+3 0.054020 0.052700 0.970850 1.001684
Cr5   Cr    Cr6+3 0.059230 0.375120 0.993390 0.983448
Cr6   Cr    Cr6+3 0.374950 0.061200 0.992340 1.000843
H1    H     H_    0.594471 0.293028 0.234903 0.125771
H2    H     H_    0.878935 0.106067 0.194713 0.125315
H3    H     H_    0.981073 0.230844 0.338042 0.124058
H4    H     H_    0.979537 0.429101 0.242896 0.125590
H5    H     H_    0.697615 0.617450 0.281946 0.119053
H6    H     H_    0.433269 0.629526 0.259135 0.106048
H7    H     H_    0.538248 0.805075 0.202936 0.118702
H8    H     H_    0.446275 0.994225 0.345226 0.136953
H9    H     H_    0.094835 0.957509 0.682202 0.177361
H10   H     H_    0.937065 0.118915 0.667323 0.169302
H11   H     H_    0.022805 0.008537 0.580904 0.173017
H12   H     H_    0.176764 0.147270 0.255098 0.095960
H13   H     H_    0.070771 0.220617 0.612461 0.180205
H14   H     H_    0.232167 0.053694 0.618665 0.177572
H15   H     H_    0.237527 0.079968 0.769232 0.167234
H16   H     H_    0.073580 0.243035 0.765113 0.167441
H17   H     H_    0.415107 0.442951 0.140957 0.129659
H18   H     H_    0.248613 0.539417 0.020155 0.155142
H19   H     H_    0.312195 0.646084 0.923191 0.115759
H20   H     H_    0.530115 0.683865 0.954423 0.127362
H21   H     H_    0.684286 0.609441 0.080806 0.134515
H22   H     H_    0.074898 0.971785 0.309895 0.120344
H23   H     H_    0.168341 0.778503 0.171396 0.133896
H24   H     H_    0.461117 0.463617 0.734313 0.092461
H25   H     H_    0.568441 0.209496 0.810088 0.130414
H26   H     H_    0.456964 0.088017 0.670396 0.128712
H27   H     H_    0.088738 0.450764 0.664202 0.135111
H28   H     H_    0.198682 0.570306 0.805153 0.117993
O1    O     O_R   0.751220 0.499230 0.435170 -0.509599
O2    O     O_R   0.412990 0.180750 0.091610 -0.513786
O3    O     O_R   0.366620 0.943130 0.065760 -0.513363
O4    O     O_R   0.477220 0.727600 0.436870 -0.518385
O5    O     O_R   0.160510 0.906330 0.879210 -0.512370
O6    O     O_R   0.930190 0.179050 0.889450 -0.489909
O7    O     O_R   0.909140 0.398170 0.896710 -0.507714
O8    O     O_R   0.186190 0.363460 0.918830 -0.510770
O9    O     O_R   0.401670 0.173200 0.913310 -0.509322
O10   O     O_R   0.356120 0.936130 0.900470 -0.498347
O11   O     O_3   0.162740 0.163010 0.985530 -0.283467
O12   O     O_R   0.297880 0.469080 0.560050 -0.512699
O13   O     O_R   0.258650 0.745120 0.411470 -0.511856
O14   O     O_R   0.297070 0.467240 0.395960 -0.491277
O15   O     O_R   0.488830 0.252610 0.387790 -0.524834
O16   O     O_R   0.724400 0.302390 0.420980 -0.492883
O17   O     O_R   0.752100 0.501210 0.612190 -0.504453
O18   O     O_R   0.478040 0.729440 0.600970 -0.505497
O19   O     O_R   0.259530 0.747110 0.588490 -0.518100
O20   O     O_R   0.489720 0.254590 0.564810 -0.524116
O21   O     O_R   0.725220 0.304230 0.585080 -0.495692
O22   O     O_3   0.500010 0.500010 0.500020 -0.305350
O23   O     O_R   0.171830 0.913880 0.057510 -0.520718
O24   O     O_R   0.940690 0.186050 0.054730 -0.518176
O25   O     O_R   0.920470 0.405720 0.075010 -0.539821
O26   O     O_R   0.196690 0.370460 0.084120 -0.517001

loop_
_geom_bond_atom_site_label_1
_geom_bond_atom_site_label_2
_ccdc_geom_bond_type
C6    H12   S    
C34   H3    S    
Cr1   O18   S    
C34   C37   S    
C41   C42   A    
C13   C32   S    
C35   C36   T    
C9    C51   S    
C6    C9    S    
C12   C49   S    
C7    C8    S    
C11   C18   S    
C11   H24   S    
C15   C19   S    
C12   C23   S    
Cr1   O17   S    
Cr3   O22   S    
C27   O23   A    
C51   H7    S    
C30   O8    A    
C3    C7    S    
C38   C39   S    
Cr2   O19   S    
C32   O12   A    
C15   C17   S    
C18   C19   S    
C41   C49   S    
C12   C37   S    
C44   H19   S    
Cr2   O22   S    
C25   C50   S    
Cr4   O6    S    
Cr3   O16   S    
Cr1   O22   S    
C26   O2    A    
Cr6   O11   S    
Cr5   O26   S    
C25   O24   A    
C12   H1    S    
C31   O5    A    
C4    C35   S    
C22   C28   S    
C13   C14   S    
Cr4   O24   S    
C16   O1    A    
Cr3   O15   S    
Cr1   O4    S    
C14   H26   S    
Cr5   O25   S    
C44   C46   A    
C43   H18   S    
Cr5   O8    S    
C38   H15   S    
C42   H17   S    
C18   H28   S    
Cr3   O21   S    
C33   O17   A    
C5    H8    S    
C10   C11   S    
C39   C40   S    
C8    C9    S    
Cr2   O12   S    
C21   C29   S    
C10   H25   S    
Cr2   O14   S    
Cr6   O2    S    
C1    C3    S    
C43   C44   A    
C15   C38   S    
C28   O19   A    
C48   H5    S    
C10   C19   S    
C23   C34   S    
C17   C18   S    
C41   C47   A    
C34   C45   S    
C37   H2    S    
C25   O25   A    
C20   C33   S    
C26   C36   S    
C48   C49   S    
C16   C23   S    
C32   O20   A    
C4    O15   A    
C40   H11   S    
C22   C24   T    
C42   C43   A    
C29   O6    A    
C2    H6    S    
C9    C27   S    
C7    H22   S    
C45   C48   S    
Cr5   O11   S    
C46   C47   A    
C1    O4    A    
C23   C48   S    
Cr3   O20   S    
C40   H10   S    
C2    C8    S    
C33   O21   A    
Cr4   O11   S    
C3    C5    S    
C1    O13   A    
C46   H20   S    
C6    C7    S    
Cr2   O13   S    
Cr4   O5    S    
Cr6   O3    S    
C13   C17   S    
Cr4   O23   S    
Cr6   O9    S    
C17   H27   S    
Cr1   O1    S    
C2    C3    S    
C24   C31   S    
C30   O9    A    
C37   C50   S    
C11   C13   S    
C28   O18   A    
C5    C6    S    
C45   C50   S    
C31   O10   A    
C45   H4    S    
C39   H13   S    
C27   O3    A    
C2    C51   S    
C16   O16   A    
Cr5   O7    S    
C20   C21   T    
C49   C50   S    
Cr6   O10   S    
C4    O14   A    
C8    H23   S    
C39   H14   S    
C14   C15   S    
C5    C51   S    
C40   H9    S    
C47   H21   S    
C19   C30   S    
C26   O26   A    
C29   O7    A    
C10   C14   S    
C38   H16   S    
