data_mof_unit_61118.cif
_audit_creation_date              2012-12-10T19:42:17-0500
_audit_creation_method            fapswitch 2.2
_symmetry_space_group_name_H-M    P1
_symmetry_Int_Tables_number       1
_space_group_crystal_system       triclinic
_cell_length_a                    23.417343
_cell_length_b                    22.474187
_cell_length_c                    27.693575
_cell_angle_alpha                 90.123128
_cell_angle_beta                  89.787874
_cell_angle_gamma                 89.958473
_cell_volume                      14574.5963134

loop_
_atom_site_label
_atom_site_type_symbol
_atom_type_description
_atom_site_fract_x
_atom_site_fract_y
_atom_site_fract_z
_atom_type_partial_charge
C1    C     C_R   0.389230 0.500024 0.498828 0.948723
C2    C     C_R   0.610767 0.499976 0.501180 0.944629
C3    C     C_R   0.498852 0.504640 0.252195 0.059274
C4    C     C_R   0.499428 0.500893 0.747882 0.053420
C5    C     C_R   0.495626 0.517311 0.101367 -0.135042
C6    C     C_R   0.495834 0.513801 0.898772 -0.136549
C7    C     C_R   0.444609 0.508303 0.127385 -0.107654
C8    C     C_R   0.543609 0.534237 0.872682 -0.107390
C9    C     C_R   0.392423 0.506686 0.103033 -0.080805
C10   C     C_R   0.588162 0.562941 0.896811 -0.082508
C11   C     C_R   0.548180 0.520626 0.126047 -0.176977
C12   C     C_R   0.450087 0.486378 0.874249 -0.182635
C13   C     C_R   0.499857 0.500588 0.352838 -0.285881
C14   C     C_R   0.499302 0.500626 0.647134 -0.285589
C15   C     C_R   0.444533 0.503155 0.975324 -0.036023
C16   C     C_R   0.544963 0.534863 0.024758 -0.033920
C17   C     C_R   0.542430 0.542772 0.974132 -0.030705
C18   C     C_R   0.442054 0.512952 0.025798 -0.033073
C19   C     C_R   0.494120 0.520271 0.949463 0.071297
C20   C     C_R   0.494136 0.522152 0.050584 0.070853
C21   C     C_R   0.400840 0.472941 0.950485 -0.288461
C22   C     C_R   0.597196 0.534941 0.049843 -0.286688
C23   C     C_R   0.500000 0.499970 0.405712 0.954692
C24   C     C_R   0.499741 0.500138 0.594276 0.954558
C25   C     C_R   0.403169 0.465019 0.900756 0.719973
C26   C     C_R   0.598946 0.528447 0.099668 0.718662
C27   C     C_R   0.390306 0.511321 0.052988 0.409277
C28   C     C_R   0.587043 0.569675 0.946735 0.408218
C29   C     C_R   0.880385 0.473764 0.462933 0.676300
C30   C     C_R   0.119610 0.526130 0.537283 0.676071
C31   C     C_R   0.880227 0.528235 0.537242 0.673759
C32   C     C_R   0.119767 0.471662 0.462972 0.673921
C33   C     C_R   0.940027 0.528508 0.538240 -0.175860
C34   C     C_R   0.059967 0.471366 0.461984 -0.176215
C35   C     C_R   0.969965 0.500315 0.500164 -0.077663
C36   C     C_R   0.030029 0.499555 0.500063 -0.077603
C37   C     C_R   0.939968 0.472824 0.462160 -0.106230
C38   C     C_R   0.060026 0.527049 0.538065 -0.105836
C39   C     C_R   0.970632 0.555794 0.575974 0.706195
C40   C     C_R   0.029362 0.444071 0.424255 0.706400
C41   C     C_R   0.030032 0.554941 0.575726 -0.194056
C42   C     C_R   0.969963 0.444923 0.424503 -0.193310
C43   C     C_R   0.535306 0.315542 0.469288 0.079659
C44   C     C_R   0.464607 0.684464 0.530636 0.079270
C45   C     C_R   0.464695 0.315757 0.530715 0.014582
C46   C     C_R   0.535368 0.684234 0.469331 0.011693
C47   C     C_R   0.535973 0.253096 0.468707 -0.173241
C48   C     C_R   0.463944 0.746910 0.531210 -0.174216
C49   C     C_R   0.464035 0.253315 0.531299 -0.173828
C50   C     C_R   0.536026 0.746676 0.468735 -0.173845
C51   C     C_R   0.237064 0.542711 0.472339 0.653830
C52   C     C_R   0.762881 0.457325 0.527888 0.653662
C53   C     C_R   0.296428 0.542609 0.469792 0.339951
C54   C     C_R   0.703515 0.457449 0.530377 0.339398
C55   C     C_R   0.327190 0.499874 0.496949 -0.344951
C56   C     C_R   0.672801 0.500121 0.503116 -0.345112
C57   C     C_R   0.297932 0.456741 0.523889 -0.321381
C58   C     C_R   0.702104 0.543183 0.476137 -0.322902
C59   C     C_R   0.238747 0.456572 0.525136 0.676548
C60   C     C_R   0.761290 0.543332 0.474946 0.676797
C61   C     C_R   0.208484 0.499683 0.499581 -0.084959
C62   C     C_R   0.791509 0.500274 0.500598 -0.085055
C63   C     C_R   0.484728 0.873841 0.458920 0.531718
C64   C     C_R   0.515282 0.126151 0.541048 0.531625
C65   C     C_R   0.515268 0.874026 0.541029 0.531174
C66   C     C_R   0.484722 0.125967 0.458944 0.531391
C67   C     C_R   0.515432 0.936904 0.541870 -0.031398
C68   C     C_R   0.484567 0.063089 0.458101 -0.031614
C69   C     C_R   0.484570 0.936716 0.458089 -0.030943
C70   C     C_R   0.515437 0.063277 0.541880 -0.030947
C71   C     C_R   0.500001 0.968367 0.499982 -0.009265
C72   C     C_R   0.500002 0.031625 0.499988 -0.009232
C73   C     C_R   0.530823 0.969031 0.583494 -0.123653
C74   C     C_R   0.469177 0.030962 0.416477 -0.123440
C75   C     C_R   0.469180 0.968656 0.416470 -0.122241
C76   C     C_R   0.530827 0.031336 0.583499 -0.121807
C77   C     C_R   0.446828 0.503319 0.177636 0.609125
C78   C     C_R   0.544605 0.527711 0.822514 0.600166
C79   C     C_R   0.500005 0.221144 0.500003 0.287892
C80   C     C_R   0.499988 0.778852 0.499972 0.287520
C81   C     C_R   0.548199 0.515145 0.176482 0.645356
C82   C     C_R   0.452991 0.481044 0.823808 0.647836
C83   C     C_R   0.495405 0.449802 0.275682 -0.250404
C84   C     C_R   0.490926 0.553982 0.722822 -0.258061
C85   C     C_R   0.495965 0.447498 0.325891 0.652598
C86   C     C_R   0.490851 0.554173 0.672734 0.655658
C87   C     C_R   0.503340 0.555438 0.328719 -0.356699
C88   C     C_R   0.507474 0.447281 0.672603 -0.365267
C89   C     C_R   0.502856 0.557422 0.278664 0.739815
C90   C     C_R   0.507617 0.447427 0.722850 0.755021
H1    H     H_    0.564447 0.229785 0.444261 0.173853
H2    H     H_    0.435411 0.770228 0.555602 0.175209
H3    H     H_    0.435558 0.230175 0.555741 0.174420
H4    H     H_    0.564551 0.769813 0.444331 0.174103
H5    H     H_    0.052428 0.576299 0.605200 0.227072
H6    H     H_    0.947567 0.423564 0.395030 0.227550
H7    H     H_    0.321007 0.423735 0.544601 0.214939
H8    H     H_    0.679061 0.576142 0.455350 0.214753
H9    H     H_    0.563078 0.340034 0.445188 0.164271
H10   H     H_    0.436757 0.659979 0.554674 0.176351
H11   H     H_    0.436907 0.340419 0.554804 0.146522
H12   H     H_    0.563202 0.659566 0.445284 0.144821
H13   H     H_    0.506416 0.596932 0.348510 0.223290
H14   H     H_    0.514153 0.405591 0.653704 0.225888
H15   H     H_    0.352563 0.503750 0.122893 0.225698
H16   H     H_    0.623355 0.582373 0.876821 0.224744
H17   H     H_    0.542936 0.946141 0.616274 0.205361
H18   H     H_    0.457061 0.053852 0.383698 0.205429
H19   H     H_    0.457066 0.945619 0.383687 0.205983
H20   H     H_    0.542942 0.054373 0.616281 0.206324
H21   H     H_    0.484283 0.595193 0.742412 0.204210
H22   H     H_    0.492281 0.409065 0.254904 0.206009
H23   H     H_    0.365325 0.452906 0.969411 0.234220
H24   H     H_    0.637644 0.537535 0.031069 0.234991
N1    N     N_R   0.498015 0.506964 0.200834 -0.335234
N2    N     N_R   0.499556 0.501969 0.799337 -0.332505
N3    N     N_R   0.852202 0.501028 0.500090 -0.319812
N4    N     N_R   0.147792 0.498884 0.500116 -0.319754
N5    N     N_R   0.500000 0.345660 0.500000 -0.108174
N6    N     N_R   0.500000 0.654340 0.500000 -0.109610
N7    N     N_R   0.499997 0.843525 0.499973 -0.347671
N8    N     N_R   0.500003 0.156469 0.499998 -0.347832
O1    O     O_R   0.416150 0.549570 0.500020 -0.616332
O2    O     O_R   0.583850 0.450430 0.499980 -0.618297
O3    O     O_R   0.583850 0.549570 0.499980 -0.615816
O4    O     O_R   0.416150 0.450430 0.500020 -0.613355
O5    O     O_R   0.500010 0.549550 0.428760 -0.645212
O6    O     O_R   0.499990 0.450450 0.571240 -0.644367
O7    O     O_R   0.499990 0.549550 0.571240 -0.557360
O8    O     O_R   0.500010 0.450450 0.428760 -0.557886
O9    O     O_2   0.469129 0.843381 0.419079 -0.519403
O10   O     O_2   0.530898 0.156609 0.580885 -0.519002
O11   O     O_2   0.530867 0.843743 0.580866 -0.518050
O12   O     O_2   0.469104 0.156248 0.419112 -0.516341
O13   O     O_2   0.398299 0.495406 0.203289 -0.510468
O14   O     O_2   0.590030 0.547180 0.796888 -0.511007
O15   O     O_2   0.409482 0.456206 0.799136 -0.423624
O16   O     O_2   0.597639 0.518109 0.201251 -0.428412
O17   O     O_2   0.850643 0.447497 0.427082 -0.506093
O18   O     O_2   0.149354 0.552401 0.573130 -0.507182
O19   O     O_2   0.850009 0.554724 0.572886 -0.424864
O20   O     O_2   0.149984 0.445188 0.427320 -0.424205
Zn1   Zn    Zn3+2 0.500000 0.566180 0.500000 1.006788
Zn2   Zn    Zn3+2 0.500000 0.433820 0.500000 1.007850
O21   O     O_3   0.337115 0.519130 0.032781 -0.724754
H25   H     H_    0.341567 0.544972 0.004048 0.353107
O22   O     O_3   0.627447 0.606961 0.966526 -0.725895
H26   H     H_    0.609938 0.627143 0.994800 0.353762
F1    F     F_    0.943636 0.583380 0.613287 -0.567926
F2    F     F_    0.056358 0.416483 0.386943 -0.567426
F3    F     F_    0.206813 0.583616 0.447022 -0.569555
F4    F     F_    0.793087 0.416470 0.553296 -0.569479
O23   O     O_3   0.322170 0.583625 0.439736 -0.652159
H27   H     H_    0.359487 0.567739 0.428853 0.344293
O24   O     O_3   0.677720 0.416515 0.560476 -0.652890
H28   H     H_    0.640375 0.432416 0.571273 0.343094
F5    F     F_    0.210682 0.414690 0.551252 -0.598266
F6    F     F_    0.789399 0.585138 0.448784 -0.598307
F7    F     F_    0.505948 0.610657 0.255770 -0.609974
F8    F     F_    0.516138 0.395870 0.747194 -0.599010
F9    F     F_    0.482016 0.606627 0.649689 -0.629783
F10   F     F_    0.492364 0.393613 0.347746 -0.620021
F11   F     F_    0.359391 0.435876 0.879079 -0.569443
F12   F     F_    0.650737 0.529293 0.121560 -0.569521

loop_
_geom_bond_atom_site_label_1
_geom_bond_atom_site_label_2
_ccdc_geom_bond_type
C15   C18   A    
C66   C68   A    
C53   O23   S    
C85   F10   S    
C44   H10   S    
C68   C74   A    
O22   H26   S    
C58   H8    S    
C47   C79   A    
O21   H25   S    
C39   C41   A    
C5    C20   A    
C11   C81   A    
C15   C19   A    
C6    C19   A    
C46   H12   S    
C13   C23   S    
C33   C39   A    
C42   H6    S    
C46   N6    A    
C35   C37   A    
C84   C86   A    
C5    C11   A    
C82   O15   S    
C6    C12   A    
C73   H17   S    
C67   C71   A    
C44   N6    A    
C58   C60   A    
C25   F11   S    
C30   C38   A    
C18   C20   A    
C60   C62   A    
C14   C24   S    
C37   C42   A    
C69   C71   A    
C31   N3    A    
C62   N3    S    
C63   N7    A    
C66   O12   S    
C24   O7    A    
C64   O10   S    
C16   C17   A    
C65   C67   A    
C51   C61   A    
O1    Zn1   S    
C48   H2    S    
C66   N8    A    
C3    N1    S    
C67   C73   A    
C65   N7    A    
O8    Zn2   S    
C32   O20   S    
C52   F4    S    
C7    C77   A    
C45   N5    A    
C40   C42   A    
C51   F3    S    
C8    C78   A    
N5    Zn2   S    
C74   H18   S    
C13   C87   A    
N6    Zn1   S    
C27   O21   S    
C88   H14   S    
C52   C54   A    
C46   C50   A    
C89   F7    S    
C4    C90   A    
C80   N7    S    
C53   C55   A    
C81   O16   S    
C29   O17   S    
C79   N8    S    
C54   C56   A    
C75   H19   S    
C84   H21   S    
C59   C61   A    
C74   C75   A    
C12   C82   A    
C63   C69   A    
C60   F6    S    
C30   O18   S    
C1    O4    A    
C14   C86   A    
C38   C41   A    
C21   H23   S    
C32   N4    A    
C54   O24   S    
C5    C7    A    
C50   H4    S    
C6    C8    A    
C30   N4    A    
C11   C26   A    
C29   N3    A    
C49   C79   A    
C23   O8    A    
C68   C72   A    
C51   C53   A    
C35   C36   A    
C32   C34   A    
C31   O19   S    
C64   C70   A    
C1    O1    A    
C4    C84   A    
C45   C49   A    
C16   C20   A    
C57   H7    S    
C81   N1    A    
C31   C33   A    
C40   F2    S    
C86   F9    S    
O5    Zn1   S    
O6    Zn2   S    
C45   H11   S    
C2    C56   S    
C87   H13   S    
C2    O3    A    
C76   H20   S    
C83   C85   A    
C88   C90   A    
C63   O9    S    
C55   C57   A    
C3    C83   A    
C73   C76   A    
C34   C40   A    
C10   H16   S    
C29   C37   A    
C36   C38   A    
C9    C27   A    
C23   O5    A    
C10   C28   A    
C7    C9    A    
C21   C25   A    
C28   O22   S    
C16   C22   A    
C61   N4    S    
C17   C28   A    
C47   H1    S    
C4    N2    S    
C78   N2    A    
C18   C27   A    
C43   H9    S    
C43   C47   A    
C50   C80   A    
O7    Zn1   S    
C2    O2    A    
C39   F1    S    
C22   H24   S    
C12   C25   A    
C3    C89   A    
C48   C80   A    
C87   C89   A    
C1    C55   S    
C14   C88   A    
C71   C72   A    
C52   C62   A    
C70   C76   A    
C59   F5    S    
C41   H5    S    
C78   O14   S    
O3    Zn1   S    
C64   N8    A    
O4    Zn2   S    
C33   C35   A    
C56   C58   A    
C69   C75   A    
C34   C36   A    
C90   F8    S    
C26   F12   S    
C57   C59   A    
C82   N2    A    
C17   C19   A    
C15   C21   A    
C8    C10   A    
C22   C26   A    
C13   C85   A    
O24   H28   S    
C24   O6    A    
C83   H22   S    
O2    Zn2   S    
C70   C72   A    
C77   O13   S    
C49   H3    S    
O23   H27   S    
C77   N1    A    
C9    H15   S    
C65   O11   S    
C44   C48   A    
C43   N5    A    
