data_mof_unit_32551.cif
_audit_creation_date              2012-12-10T20:44:50-0500
_audit_creation_method            fapswitch 2.2
_symmetry_space_group_name_H-M    P1
_symmetry_Int_Tables_number       1
_space_group_crystal_system       triclinic
_cell_length_a                    9.874985
_cell_length_b                    10.716009
_cell_length_c                    16.700506
_cell_angle_alpha                 88.948934
_cell_angle_beta                  93.700156
_cell_angle_gamma                 88.999764
_cell_volume                      1762.9662717

loop_
_atom_site_label
_atom_site_type_symbol
_atom_type_description
_atom_site_fract_x
_atom_site_fract_y
_atom_site_fract_z
_atom_type_partial_charge
C1    C     C_R   0.500701 0.259686 0.498104 0.882845
C2    C     C_R   0.499624 0.128136 0.485823 -0.125188
C3    C     C_R   0.374719 0.067226 0.475632 -0.202909
C4    C     C_R   0.516968 0.498935 0.653739 0.889030
C5    C     C_R   0.372917 0.938208 0.473782 -0.222968
C6    C     C_R   0.496044 0.871102 0.481729 -0.079152
C7    C     C_R   0.617756 0.932953 0.475797 0.033989
C8    C     C_3   0.749582 0.913426 0.523586 -0.482133
C9    C     C_3   0.753549 0.055094 0.528523 0.324371
C10   C     C_R   0.079096 0.477320 0.569156 0.215975
C11   C     C_R   0.065213 0.538463 0.434231 -0.175342
C12   C     C_R   0.653243 0.487318 0.783825 -0.298389
C13   C     C_R   0.920381 0.540562 0.433832 0.234245
C14   C     C_R   0.936914 0.479837 0.569593 0.151224
C15   C     C_3   0.937791 0.367767 0.623069 -0.498194
C16   C     C_R   0.498580 0.739855 0.496210 0.878195
C17   C     C_3   0.090970 0.361898 0.620346 -0.501718
C18   C     C_R   0.483189 0.496615 0.346615 0.879585
C19   C     C_R   0.526340 0.490596 0.740994 -0.059775
C20   C     C_R   0.407822 0.479706 0.781778 -0.234780
C21   C     C_R   0.415703 0.459326 0.863780 -0.233245
C22   C     C_R   0.543027 0.449899 0.906773 0.298717
C23   C     C_R   0.576858 0.368582 0.150519 0.247244
C24   C     C_R   0.662260 0.466345 0.866711 0.212050
C25   C     C_3   0.856409 0.066944 0.667064 -0.791824
C26   C     C_3   0.893932 0.594043 0.288272 -0.862317
C27   C     C_3   0.668688 0.175805 0.102550 -0.803803
C28   C     C_3   0.846187 0.336739 0.923780 -0.778182
C29   C     C_R   0.585830 0.407282 0.229710 -0.305194
C30   C     C_R   0.455982 0.394785 0.102712 0.288103
C31   C     C_R   0.474553 0.466119 0.262172 -0.052326
C32   C     C_R   0.351664 0.481928 0.216189 -0.222681
C33   C     C_R   0.342711 0.446089 0.136714 -0.242443
C34   C     C_R   0.620320 0.060579 0.478568 0.011543
H1    H     H_    0.678722 0.388322 0.266390 0.178810
H2    H     H_    0.745407 0.499087 0.753111 0.155599
H3    H     H_    0.263620 0.524104 0.241160 0.158961
H4    H     H_    0.321866 0.452796 0.893647 0.159805
H5    H     H_    0.249833 0.465146 0.100074 0.151017
H6    H     H_    0.308680 0.486490 0.750472 0.161968
H7    H     H_    0.278634 0.117771 0.474712 0.172859
H8    H     H_    0.651134 0.088765 0.633515 0.220503
H9    H     H_    0.852472 0.127266 0.720242 0.237147
H10   H     H_    0.955416 0.080551 0.640425 0.264037
H11   H     H_    0.849282 0.968214 0.687386 0.230358
H12   H     H_    0.276189 0.891854 0.472380 0.168563
H13   H     H_    0.875450 0.066522 0.432219 0.164563
H14   H     H_    0.839931 0.203268 0.472305 0.199945
H15   H     H_    0.784232 0.670248 0.379818 0.246713
H16   H     H_    0.970741 0.668046 0.284495 0.230974
H17   H     H_    0.810142 0.614971 0.242174 0.257015
H18   H     H_    0.939159 0.501542 0.275164 0.244575
H19   H     H_    0.781575 0.321442 0.149762 0.222435
H20   H     H_    0.650594 0.123944 0.159009 0.237571
H21   H     H_    0.760308 0.135319 0.076931 0.235130
H22   H     H_    0.580938 0.164365 0.058436 0.257306
H23   H     H_    0.736602 0.864027 0.581626 0.197608
H24   H     H_    0.861076 0.520441 0.886330 0.217033
H25   H     H_    0.941137 0.340258 0.963018 0.237296
H26   H     H_    0.869511 0.294108 0.865927 0.224275
H27   H     H_    0.772935 0.277566 0.954005 0.271367
H28   H     H_    0.828357 0.871064 0.487332 0.180590
H29   H     H_    0.116086 0.569143 0.382272 0.167619
H30   H     H_    0.904096 0.389055 0.683498 0.198072
H31   H     H_    0.885604 0.290260 0.593148 0.257986
H32   H     H_    0.144212 0.377258 0.679706 0.194647
H33   H     H_    0.128288 0.279866 0.587735 0.216064
N1    N     N_2   0.552753 0.437370 0.991085 -0.143633
N2    N     N_2   0.451179 0.389506 0.018683 -0.212320
N3    N     N_R   0.142860 0.499130 0.500540 -0.124223
N4    N     N_R   0.857210 0.499170 0.500530 -0.143199
N5    N     N_2   0.744244 0.100317 0.609899 -0.289668
N6    N     N_3   0.865533 0.110329 0.487081 -0.455632
N7    N     N_2   0.840203 0.591906 0.366900 -0.260329
N8    N     N_2   0.689701 0.306451 0.118730 -0.290670
N9    N     N_2   0.791295 0.461779 0.909814 -0.300169
O1    O     O_R   0.614690 0.316790 0.499990 -0.618571
O2    O     O_R   0.385350 0.316760 0.500000 -0.618217
O3    O     O_R   0.627460 0.498860 0.616130 -0.613892
O4    O     O_R   0.398120 0.498820 0.616130 -0.616749
O5    O     O_R   0.614650 0.683240 0.500000 -0.631407
O6    O     O_R   0.385310 0.683210 0.500010 -0.621082
O7    O     O_R   0.601880 0.501180 0.383870 -0.604046
O8    O     O_R   0.372540 0.501140 0.383870 -0.629218
Zn1   Zn    Zn3+2 0.653130 0.500020 0.499990 0.940291
Zn2   Zn    Zn3+2 0.346870 0.499980 0.500010 0.939770

loop_
_geom_bond_atom_site_label_1
_geom_bond_atom_site_label_2
_ccdc_geom_bond_type
C8    C9    S    
C1    O1    A    
C14   N4    A    
C19   C20   A    
C9    N5    S    
C25   H9    S    
C27   H20   S    
H24   N9    S    
C7    C8    S    
C17   H32   S    
C33   H5    S    
C23   C29   A    
O8    Zn2   S    
C4    O4    A    
C11   H29   S    
C26   H16   S    
C5    C6    A    
C20   H6    S    
C27   H21   S    
C10   C17   S    
C15   H31   S    
C1    C2    S    
O4    Zn2   S    
N4    Zn1   S    
C4    C19   S    
C21   H4    S    
N1    N2    D    
C18   O8    A    
C15   H30   S    
C12   H2    S    
C28   H27   S    
O2    Zn2   S    
O1    Zn1   S    
C21   C22   A    
C1    O2    A    
H19   N8    S    
C9    N6    S    
C27   N8    S    
C25   H10   S    
H8    N5    S    
C28   H26   S    
C11   N3    A    
C17   H33   S    
C23   C30   A    
H13   N6    S    
C4    O3    A    
C10   C14   A    
C27   H22   S    
C24   N9    S    
C13   N4    A    
O6    Zn2   S    
C26   H18   S    
C8    H23   S    
C31   C32   A    
C16   O6    A    
C18   O7    A    
C25   N5    S    
C32   H3    S    
C13   N7    S    
C22   N1    S    
C10   N3    A    
O7    Zn1   S    
C9    C34   S    
C7    C34   A    
C22   C24   A    
C28   N9    S    
C25   H11   S    
O3    Zn1   S    
C30   N2    S    
C28   H25   S    
C15   C17   S    
C29   H1    S    
C3    H7    S    
C30   C33   A    
H15   N7    S    
H14   N6    S    
C23   N8    S    
C3    C5    A    
C6    C7    A    
C5    H12   S    
C12   C24   A    
C32   C33   A    
C2    C3    A    
C29   C31   A    
C26   H17   S    
C11   C13   A    
C2    C34   A    
C12   C19   A    
C16   O5    A    
C26   N7    S    
C6    C16   S    
C20   C21   A    
C14   C15   S    
C18   C31   S    
O5    Zn1   S    
C8    H28   S    
N3    Zn2   S    
