data_mof_unit_56850.cif
_audit_creation_date              2012-12-10T17:33:01-0500
_audit_creation_method            fapswitch 2.2
_symmetry_space_group_name_H-M    P1
_symmetry_Int_Tables_number       1
_space_group_crystal_system       triclinic
_cell_length_a                    12.423998
_cell_length_b                    13.179894
_cell_length_c                    14.307693
_cell_angle_alpha                 93.651539
_cell_angle_beta                  107.888645
_cell_angle_gamma                 116.785359
_cell_volume                      1933.19857949

loop_
_atom_site_label
_atom_site_type_symbol
_atom_type_description
_atom_site_fract_x
_atom_site_fract_y
_atom_site_fract_z
_atom_type_partial_charge
C1    C     C_R   0.651598 0.714825 0.509392 0.767408
C2    C     C_R   0.884153 0.548258 0.923290 0.068885
C3    C     C_R   0.852298 0.589510 0.999706 0.118440
C4    C     C_R   0.994506 0.531208 0.950370 0.075939
C5    C     C_R   0.064532 0.545417 0.053994 0.068862
C6    C     C_R   0.035591 0.593182 0.127631 -0.221186
C7    C     C_R   0.932257 0.614287 0.101106 -0.243006
C8    C     C_R   0.037544 0.500490 0.877707 -0.228918
C9    C     C_R   0.137971 0.474546 0.905190 -0.237505
C10   C     C_R   0.198046 0.476581 0.005454 0.164489
C11   C     C_R   0.161910 0.511978 0.080853 0.085259
C12   C     C_R   0.619255 0.517622 0.686959 0.792960
C13   C     C_R   0.293306 0.442541 0.031180 -0.191145
C14   C     C_R   0.354060 0.444158 0.131376 -0.202710
C15   C     C_R   0.220815 0.508196 0.180406 -0.252130
C16   C     C_R   0.132690 0.964229 0.356585 -0.195468
C17   C     C_R   0.248380 0.160812 0.461359 -0.051614
C18   C     C_R   0.742959 0.925698 0.581096 -0.205431
C19   C     C_R   0.834280 0.042556 0.600466 -0.141068
C20   C     C_R   0.930394 0.075393 0.560832 -0.182140
C21   C     C_R   0.935103 0.990969 0.498368 0.079881
C22   C     C_R   0.831469 0.873427 0.468314 0.089688
C23   C     C_R   0.345163 0.284804 0.484252 0.800621
C24   C     C_R   0.038872 0.020021 0.464054 0.073560
C25   C     C_R   0.031068 0.935709 0.391704 0.166416
C26   C     C_R   0.921003 0.824823 0.353954 -0.246939
C27   C     C_R   0.822138 0.794292 0.390834 -0.201923
C28   C     C_R   0.151361 0.130400 0.500764 -0.251903
C29   C     C_R   0.240490 0.076777 0.390594 -0.194450
C30   C     C_R   0.739753 0.839292 0.516180 -0.101679
C31   C     C_R   0.243820 0.670278 0.670083 -0.314257
C32   C     C_R   0.654519 0.344446 0.360490 0.064575
C33   C     C_R   0.730469 0.307923 0.329839 -0.254825
C34   C     C_R   0.381431 0.482827 0.313290 0.790955
C35   C     C_R   0.864599 0.362402 0.383856 -0.191462
C36   C     C_R   0.924772 0.454482 0.469903 0.004058
C37   C     C_R   0.842063 0.489274 0.498087 0.288649
C38   C     C_R   0.063559 0.515214 0.528094 -0.038984
C39   C     C_R   0.111728 0.603823 0.614717 0.145428
C40   C     C_R   0.030018 0.634505 0.641776 -0.293362
C41   C     C_R   0.899348 0.581418 0.582832 -0.191998
C42   C     C_R   0.158138 0.494873 0.504721 -0.024662
C43   C     C_R   0.332192 0.660839 0.634648 0.290317
C44   C     C_R   0.693604 0.536561 0.795157 -0.094439
C45   C     C_R   0.317986 0.477383 0.206538 -0.058053
C46   C     C_R   0.740938 0.604469 0.973467 0.101961
C47   C     C_R   0.660911 0.573790 0.870649 -0.207472
C48   C     C_R   0.802407 0.521805 0.822071 -0.262572
Cu1   Cu    Cu3+1 0.416420 0.526630 0.522910 0.925619
Cu2   Cu    Cu3+1 0.583580 0.473370 0.477090 0.919535
H1    H     H_    0.914996 0.648076 0.162344 0.131832
H2    H     H_    0.320695 0.414559 0.973719 0.127574
H3    H     H_    0.314664 0.099302 0.358767 0.146554
H4    H     H_    0.911516 0.760925 0.296091 0.133638
H5    H     H_    0.126996 0.900433 0.300808 0.133659
H6    H     H_    0.166115 0.195685 0.559902 0.145518
H7    H     H_    0.677830 0.903709 0.620147 0.155493
H8    H     H_    0.997923 0.167859 0.579100 0.127896
H9    H     H_    0.833275 0.107898 0.649551 0.141814
H10   H     H_    0.737175 0.708803 0.355673 0.173610
H11   H     H_    0.190386 0.526172 0.239108 0.153917
H12   H     H_    0.068781 0.704893 0.707148 0.157408
H13   H     H_    0.278899 0.741117 0.734154 0.143569
H14   H     H_    0.127507 0.424238 0.442918 0.132671
H15   H     H_    0.550669 0.300737 0.317986 0.122348
H16   H     H_    0.919111 0.330998 0.357311 0.137853
H17   H     H_    0.684938 0.236770 0.263854 0.145307
H18   H     H_    0.846975 0.617086 0.605578 0.208268
H19   H     H_    0.428699 0.419223 0.149836 0.152093
H20   H     H_    0.167013 0.450473 0.847077 0.144665
H21   H     H_    0.572300 0.577741 0.848296 0.140884
H22   H     H_    0.819470 0.486420 0.761932 0.164244
H23   H     H_    0.092636 0.617722 0.207446 0.142607
H24   H     H_    0.997533 0.497442 0.798698 0.155515
N1    N     N_R   0.290690 0.566960 0.557640 -0.182550
N2    N     N_R   0.709100 0.433710 0.442970 -0.205322
O1    O     O_R   0.545970 0.684450 0.528810 -0.586809
O2    O     O_R   0.687130 0.639470 0.490120 -0.597297
O3    O     O_R   0.519670 0.535100 0.660030 -0.585965
O4    O     O_R   0.660830 0.490120 0.621340 -0.596029
O5    O     O_R   0.312870 0.360530 0.509880 -0.583530
O6    O     O_R   0.454030 0.315550 0.471190 -0.581486
O7    O     O_R   0.339170 0.509880 0.378660 -0.583923
O8    O     O_R   0.480330 0.464900 0.339970 -0.597324
C49   C     C_3   0.460865 0.772684 0.666713 -0.375090
C50   C     C_3   0.570517 0.773266 0.753710 -0.315732
C51   C     C_3   0.663114 0.893626 0.826831 -0.908237
H25   H     H_    0.705074 0.961172 0.786458 0.257579
H26   H     H_    0.610632 0.918881 0.865424 0.257820
H27   H     H_    0.743973 0.890488 0.885107 0.252332
H28   H     H_    0.526836 0.711434 0.797307 0.206175
H29   H     H_    0.628450 0.746696 0.723602 0.241937
H30   H     H_    0.482368 0.793798 0.599587 0.196425
H31   H     H_    0.449248 0.847813 0.691463 0.174726
C52   C     C_3   0.710374 0.652842 0.056042 -0.427439
C53   C     C_3   0.596311 0.677212 0.020770 -0.366393
C54   C     C_3   0.580590 0.729445 0.110800 -0.811480
H32   H     H_    0.567296 0.670754 0.163591 0.255852
H33   H     H_    0.667877 0.816103 0.152209 0.252295
H34   H     H_    0.493887 0.741021 0.083599 0.246115
H35   H     H_    0.614791 0.740749 0.972501 0.227942
H36   H     H_    0.504502 0.594856 0.977008 0.217191
H37   H     H_    0.690712 0.590347 0.105469 0.197268
H38   H     H_    0.798259 0.737442 0.102118 0.199802

loop_
_geom_bond_atom_site_label_1
_geom_bond_atom_site_label_2
_ccdc_geom_bond_type
C51   H25   S    
C23   O6    A    
C53   H36   S    
C1    O1    A    
C49   H30   S    
C52   C53   S    
C4    C8    A    
C54   H32   S    
C28   H6    S    
Cu2   O8    S    
C49   C50   S    
Cu2   O6    S    
C42   N1    A    
C17   C23   S    
C31   C43   A    
C21   C22   A    
C36   C37   A    
C38   C42   A    
C3    C7    A    
C27   H10   S    
C38   C39   A    
C12   O3    A    
C26   H4    S    
C40   H12   S    
C18   C19   A    
Cu1   O5    S    
C11   C15   A    
C46   C52   S    
C19   C20   A    
Cu1   O1    S    
C8    C9    A    
Cu1   N1    S    
C18   C30   A    
C14   C45   A    
C23   O5    A    
C9    C10   A    
C44   C47   A    
C53   H35   S    
C1    O2    A    
C15   H11   S    
C34   O8    A    
C48   H22   S    
Cu2   O2    S    
C54   H33   S    
C52   H37   S    
C41   H18   S    
C43   N1    A    
C43   C49   S    
C31   H13   S    
C24   C25   A    
C39   C40   A    
C50   C51   S    
C35   H16   S    
C19   H9    S    
C16   C29   A    
Cu1   O3    S    
C35   C36   A    
C2    C4    A    
Cu2   N2    S    
C13   H2    S    
C49   H31   S    
C18   H7    S    
C53   C54   S    
C8    H24   S    
C26   C27   A    
C34   C45   S    
C9    H20   S    
C47   H21   S    
C40   C41   A    
C37   N2    A    
C22   C27   A    
C51   H26   S    
C14   H19   S    
C51   H27   S    
C34   O7    A    
C15   C45   A    
C20   H8    S    
C42   H14   S    
C54   H34   S    
C52   H38   S    
C33   H17   S    
C6    H23   S    
C16   C25   A    
C46   C47   A    
C22   C30   A    
C17   C28   A    
C24   C28   A    
C4    C5    A    
C10   C13   A    
Cu2   O4    S    
C32   N2    A    
C5    C11   A    
C6    C7    A    
C3    C46   A    
C50   H28   S    
C2    C48   A    
C32   C33   A    
Cu1   O7    S    
C36   C38   A    
C2    C3    A    
C25   C26   A    
C16   H5    S    
C7    H1    S    
C12   C44   S    
C50   H29   S    
C17   C29   A    
C5    C6    A    
C29   H3    S    
C12   O4    A    
C1    C30   S    
C33   C35   A    
C31   C39   A    
C37   C41   A    
C10   C11   A    
C20   C21   A    
Cu1   Cu2   S    
C21   C24   A    
C13   C14   A    
C44   C48   A    
C32   H15   S    
