data_mof_unit_18105.cif
_audit_creation_date              2012-12-11T15:48:07-0500
_audit_creation_method            fapswitch 2.2
_symmetry_space_group_name_H-M    P1
_symmetry_Int_Tables_number       1
_space_group_crystal_system       triclinic
_cell_length_a                    6.930717
_cell_length_b                    17.581527
_cell_length_c                    19.43578
_cell_angle_alpha                 108.454316
_cell_angle_beta                  89.567619
_cell_angle_gamma                 90.667664
_cell_volume                      2246.34235824

loop_
_atom_site_label
_atom_site_type_symbol
_atom_type_description
_atom_site_fract_x
_atom_site_fract_y
_atom_site_fract_z
_atom_type_partial_charge
O1    O     O_R   0.494330 0.415710 0.413720 -0.541589
O2    O     O_R   0.819360 0.430070 0.560210 -0.539948
O3    O     O_R   0.994320 0.584290 0.586280 -0.542621
C1    C     C_R   0.650041 0.415488 0.582237 0.712920
O4    O     O_R   0.823740 0.406290 0.412670 -0.542822
O5    O     O_R   0.998730 0.560340 0.437690 -0.539706
C2    C     C_R   0.654675 0.383096 0.384696 0.687260
O6    O     O_R   0.489920 0.439660 0.562310 -0.539167
O7    O     O_3   0.662330 0.550570 0.508380 -0.370635
V1    V     V_3+5 0.935370 0.490620 0.498440 1.403867
O8    O     O_R   0.328720 0.569930 0.439790 -0.542473
C3    C     C_R   0.160795 0.585170 0.418227 0.710876
O9    O     O_R   0.324340 0.593710 0.587330 -0.544338
C4    C     C_R   0.155392 0.616671 0.615364 0.708550
V2    V     V_3+5 0.435940 0.509380 0.501560 1.400278
O10   O     O_3   0.159110 0.449430 0.491620 -0.368278
C5    C     C_R   0.308322 0.730105 0.714230 -0.164285
C6    C     C_R   0.295476 0.793786 0.779128 -0.209026
H1    H     H_    0.424164 0.829008 0.799271 0.186294
C7    C     C_R   0.119278 0.812522 0.817044 -0.157057
C8    C     C_R   0.954997 0.764253 0.788498 0.429791
C9    C     C_R   0.967895 0.702710 0.721942 -0.221965
H2    H     H_    0.838684 0.668586 0.700192 0.130795
C10   C     C_R   0.144257 0.684203 0.684511 -0.112330
C11   C     C_R   0.308212 0.634319 0.321495 -0.221633
C12   C     C_R   0.153499 0.634646 0.368976 -0.083243
C13   C     C_R   0.990488 0.681496 0.368383 -0.219368
C14   C     C_R   0.982111 0.728164 0.321673 0.088962
C15   C     C_R   0.136612 0.726560 0.273509 0.053014
C16   C     C_R   0.299689 0.679075 0.273144 0.090317
C17   C     C_R   0.821922 0.776488 0.322257 -0.189862
C18   C     C_R   0.813538 0.822067 0.274938 -0.181534
C19   C     C_R   0.964905 0.819999 0.226007 0.090019
C20   C     C_R   0.127931 0.772468 0.225586 0.053279
C21   C     C_R   0.282405 0.770863 0.177403 0.090444
C22   C     C_R   0.442505 0.722471 0.176766 -0.191505
C23   C     C_R   0.450960 0.676943 0.224143 -0.182075
C24   C     C_R   0.956546 0.864926 0.177822 -0.222004
C25   C     C_R   0.111327 0.864720 0.130427 -0.081828
C26   C     C_R   0.274122 0.817661 0.130789 -0.223458
H3    H     H_    0.433718 0.597954 0.321176 0.123906
H4    H     H_    0.702295 0.778668 0.359038 0.134337
H5    H     H_    0.687779 0.858574 0.276301 0.136557
H6    H     H_    0.831131 0.901374 0.178240 0.124567
H7    H     H_    0.393508 0.816737 0.094154 0.122661
H8    H     H_    0.576729 0.640445 0.222790 0.135285
C27   C     C_R   0.773486 0.188836 0.872100 -0.220890
C28   C     C_R   0.622998 0.133299 0.868006 -0.087241
C29   C     C_R   0.476973 0.124458 0.816083 -0.188872
C30   C     C_R   0.479698 0.170446 0.768711 0.040831
C31   C     C_R   0.627162 0.227845 0.774585 0.043377
C32   C     C_R   0.775159 0.236919 0.826379 0.108840
C33   C     C_R   0.339764 0.158279 0.714484 -0.285680
C34   C     C_R   0.339240 0.204941 0.666964 0.405487
C35   C     C_R   0.484791 0.263970 0.674122 0.014971
C36   C     C_R   0.629167 0.275013 0.727694 -0.023030
C37   C     C_R   0.779096 0.331809 0.733213 0.105201
C38   C     C_R   0.924248 0.340924 0.785323 -0.192894
C39   C     C_R   0.922677 0.293706 0.831295 -0.197986
C40   C     C_R   0.490858 0.311555 0.627709 -0.187154
C41   C     C_R   0.640795 0.367479 0.632585 -0.108405
C42   C     C_R   0.784595 0.377025 0.685311 -0.211686
H9    H     H_    0.886677 0.195813 0.911898 0.124260
H10   H     H_    0.362347 0.080713 0.811889 0.121872
H11   H     H_    0.234451 0.110686 0.708220 0.131823
H12   H     H_    0.381234 0.304331 0.586608 0.166623
H13   H     H_    0.900564 0.420136 0.689266 0.120757
H14   H     H_    0.040791 0.383828 0.789814 0.129163
H15   H     H_    0.037620 0.301305 0.870455 0.132377
C43   C     C_R   0.811518 0.276293 0.281743 -0.153980
C44   C     C_R   0.800523 0.212506 0.216770 -0.152586
H16   H     H_    0.933211 0.184432 0.192178 0.118645
C45   C     C_R   0.621077 0.185324 0.184147 -0.046214
C46   C     C_R   0.452918 0.223689 0.218388 -0.154564
C47   C     C_R   0.463914 0.287482 0.283365 -0.150835
H17   H     H_    0.331236 0.315556 0.307966 0.118708
C48   C     C_R   0.643372 0.314680 0.315970 -0.046642
O11   O     O_R   0.774940 0.060470 0.937800 -0.536810
O12   O     O_R   0.440880 0.093730 0.087350 -0.543346
O13   O     O_R   0.266130 0.939630 0.062280 -0.540285
C49   C     C_R   0.609878 0.116947 0.115387 0.683659
O14   O     O_R   0.445480 0.069960 0.939820 -0.541864
O15   O     O_R   0.270770 0.915690 0.913690 -0.543163
C50   C     C_R   0.614764 0.084835 0.918015 0.716104
O16   O     O_R   0.770300 0.084410 0.086380 -0.542851
O17   O     O_3   0.602600 0.949510 0.991670 -0.370260
V3    V     V_3+5 0.329470 0.009370 0.001550 1.401859
O18   O     O_R   0.940760 0.906160 0.912560 -0.519373
C51   C     C_R   0.109553 0.882267 0.885086 0.707376
O19   O     O_R   0.936150 0.929930 0.060100 -0.547486
C52   C     C_R   0.104102 0.914517 0.081487 0.699203
V4    V     V_3+5 0.828930 0.990450 0.998310 1.416880
O20   O     O_3   0.105670 0.050490 0.008320 -0.371246
H18   H     H_    0.446664 0.717554 0.686911 0.144783
H19   H     H_    0.562057 0.720248 0.139937 0.132674
O21   O     O_3   0.216218 0.187923 0.607425 -0.578797
C53   C     C_3   0.024171 0.170346 0.623168 0.080118
H20   H     H_    0.927406 0.208443 0.602963 0.154190
H21   H     H_    0.991796 0.184670 0.682010 0.126286
C54   C     C_3   0.975562 0.082522 0.582566 -0.317144
H22   H     H_    0.990855 0.071622 0.523253 0.207575
H23   H     H_    0.077539 0.042693 0.598260 0.194241
C55   C     C_3   0.769913 0.061369 0.599045 -0.817946
H24   H     H_    0.753310 0.069456 0.657809 0.237160
H25   H     H_    0.737856 0.997770 0.568027 0.231996
H26   H     H_    0.664976 0.099956 0.583085 0.244175
H27   H     H_    0.952189 0.295506 0.305075 0.117467
H28   H     H_    0.312254 0.204465 0.195054 0.116667
O22   O     O_3   0.777307 0.779089 0.822763 -0.580403
C56   C     C_3   0.762444 0.738747 0.875215 0.105889
H29   H     H_    0.671864 0.776166 0.920442 0.151898
H30   H     H_    0.903825 0.731718 0.899696 0.081437
C57   C     C_3   0.662898 0.656942 0.843057 -0.347199
H31   H     H_    0.524360 0.664632 0.817739 0.210822
H32   H     H_    0.756361 0.616749 0.800609 0.184075
C58   C     C_3   0.622410 0.617387 0.901216 -0.826813
H33   H     H_    0.759306 0.608280 0.926800 0.232646
H34   H     H_    0.551881 0.558091 0.876140 0.237140
H35   H     H_    0.524697 0.655247 0.943574 0.225175
H36   H     H_    0.871019 0.682418 0.404974 0.127984

loop_
_geom_bond_atom_site_label_1
_geom_bond_atom_site_label_2
_ccdc_geom_bond_type
O15   V3    S    
C35   C36   A    
C17   H4    S    
C45   C46   A    
C21   C22   A    
C1    O6    A    
O12   V3    S    
C53   H20   S    
O19   C52   A    
C37   C42   A    
C33   C34   A    
C58   H33   S    
C12   C13   A    
C42   H13   S    
C8    C9    A    
C14   C15   A    
C31   C36   A    
O13   V3    S    
C43   H27   S    
C27   H9    S    
C24   C25   A    
C4    C10   S    
O14   V3    S    
V3    O20   S    
C36   C37   A    
C20   C21   A    
C25   C52   S    
C56   H29   S    
V4    O20   S    
O8    V2    S    
C27   C28   A    
C43   C44   A    
O1    V2    S    
C33   H11   S    
O7    V1    S    
C34   O21   S    
C2    C48   S    
C57   C58   S    
C40   H12   S    
C29   H10   S    
O9    C4    A    
C43   C48   A    
C45   C49   S    
C53   H21   S    
O16   V4    S    
C19   C20   A    
C26   H7    S    
O15   C51   A    
C30   C33   A    
C46   C47   A    
C31   C32   A    
C5    C10   A    
O18   V4    S    
C11   H3    S    
C25   C26   A    
O12   C49   A    
O17   V3    S    
C6    H1    S    
C30   C31   A    
C11   C12   A    
C13   H36   S    
C15   C20   A    
C54   C55   S    
C28   C50   S    
C16   C23   A    
C3    C12   S    
C40   C41   A    
O2    C1    A    
C47   H17   S    
C24   H6    S    
C15   C16   A    
C32   C39   A    
O19   V4    S    
C17   C18   A    
O21   C53   S    
C54   H23   S    
C5    C6    A    
C55   H25   S    
O18   C51   A    
C47   C48   A    
C56   C57   S    
O3    C4    A    
C39   H15   S    
C38   H14   S    
C28   C29   A    
O6    V2    S    
O14   C50   A    
O9    V2    S    
C9    C10   A    
O2    V1    S    
C55   H24   S    
C53   C54   S    
O4    C2    A    
C57   H31   S    
C11   C16   A    
C34   C35   A    
C22   C23   A    
O1    C2    A    
C14   C17   A    
O5    V1    S    
C8    O22   S    
O8    C3    A    
C27   C32   A    
C7    C51   S    
C19   C24   A    
C58   H35   S    
O11   V4    S    
C18   C19   A    
O13   C52   A    
C21   C26   A    
C38   C39   A    
C44   H16   S    
O3    V1    S    
V1    O10   S    
O22   C56   S    
O5    C3    A    
C22   H19   S    
C37   C38   A    
C1    C41   S    
C54   H22   S    
C18   H5    S    
C58   H34   S    
C55   H26   S    
C6    C7    A    
O7    V2    S    
C41   C42   A    
C56   H30   S    
C46   H28   S    
O11   C50   A    
O4    V1    S    
C7    C8    A    
C29   C30   A    
C44   C45   A    
C13   C14   A    
C9    H2    S    
O17   V4    S    
C5    H18   S    
C23   H8    S    
C35   C40   A    
C49   O16   A    
V2    O10   S    
C57   H32   S    
