data_mof_unit_64661.cif
_audit_creation_date              2013-03-05T15:43:42-0500
_audit_creation_method            fapswitch 2.2
_symmetry_space_group_name_H-M    P1
_symmetry_Int_Tables_number       1
_space_group_crystal_system       triclinic
_cell_length_a                    20.749408
_cell_length_b                    15.975335
_cell_length_c                    13.15347
_cell_angle_alpha                 89.934332
_cell_angle_beta                  91.73184
_cell_angle_gamma                 89.98309
_cell_volume                      4358.10100821

loop_
_atom_site_label
_atom_site_type_symbol
_atom_site_description
_atom_site_fract_x
_atom_site_fract_y
_atom_site_fract_z
_atom_type_partial_charge
Zn1   Zn    Zn3+2 0.434690 0.000000 0.602700 1.004729
Zn2   Zn    Zn3+2 0.934690 0.500000 0.602700 1.008691
Zn3   Zn    Zn3+2 0.584000 0.000000 0.565300 1.072858
Zn4   Zn    Zn3+2 0.084000 0.500000 0.565300 1.069385
Zn5   Zn    Zn3+2 0.490640 0.098690 0.416020 1.012331
Zn6   Zn    Zn3+2 0.490640 0.901310 0.416020 0.983798
Zn7   Zn    Zn3+2 0.990640 0.598690 0.416020 1.003356
Zn8   Zn    Zn3+2 0.990640 0.401310 0.416020 0.986955
O1    O     O_3   0.500000 0.000000 0.500000 -0.512825
O2    O     O_3   0.000000 0.500000 0.500000 -0.512889
O3    O     O_R   0.566980 0.833700 0.422750 -0.643804
O4    O     O_R   0.566980 0.166300 0.422750 -0.641741
O5    O     O_R   0.066980 0.333700 0.422750 -0.648808
O6    O     O_R   0.066980 0.666300 0.422750 -0.643435
O7    O     O_R   0.380760 0.097200 0.590320 -0.617373
O8    O     O_R   0.380760 0.902800 0.590320 -0.640213
O9    O     O_R   0.880760 0.597200 0.590320 -0.618045
O10   O     O_R   0.880760 0.402800 0.590320 -0.621126
O11   O     O_R   0.577210 0.000000 0.711160 -0.591145
O12   O     O_R   0.077210 0.500000 0.711160 -0.611199
O13   O     O_R   0.475030 0.069050 0.275760 -0.606750
O14   O     O_R   0.475030 0.930950 0.275760 -0.656436
O15   O     O_R   0.975030 0.569050 0.275760 -0.614172
O16   O     O_R   0.975030 0.430950 0.275760 -0.649386
O17   O     O_R   0.632300 0.097230 0.527310 -0.593504
O18   O     O_R   0.632300 0.902770 0.527310 -0.593931
O19   O     O_R   0.132300 0.597230 0.527310 -0.593692
O20   O     O_R   0.132300 0.402770 0.527310 -0.576109
O21   O     O_R   0.419940 0.833680 0.459580 -0.618770
O22   O     O_R   0.419940 0.166320 0.459580 -0.628733
O23   O     O_R   0.919940 0.333680 0.459580 -0.635236
O24   O     O_R   0.919940 0.666320 0.459580 -0.634220
O25   O     O_R   0.472710 0.000000 0.737340 -0.637614
O26   O     O_R   0.972710 0.500000 0.737340 -0.632957
C1    C     C_R   0.620906 0.838731 0.472367 0.884501
C2    C     C_R   0.620885 0.161336 0.472393 0.883485
C3    C     C_R   0.120912 0.338744 0.472361 0.890906
C4    C     C_R   0.122289 0.658819 0.467670 0.881966
C5    C     C_R   0.378926 0.159580 0.529407 0.847592
C6    C     C_R   0.378863 0.840540 0.529636 0.843459
C7    C     C_R   0.878893 0.659559 0.529374 0.845439
C8    C     C_R   0.878912 0.340473 0.529430 0.844916
C9    C     C_R   0.530625 0.998681 0.772285 0.877894
C10   C     C_R   0.030771 0.499124 0.771955 0.866321
C11   C     C_R   0.470276 0.000175 0.227818 0.815873
C12   C     C_R   0.969483 0.500127 0.228405 0.824048
H1    H     H_    0.296713 0.790122 0.384090 0.159260
H2    H     H_    0.253150 0.131747 0.532625 0.154783
H3    H     H_    0.753075 0.368270 0.532165 0.155623
H4    H     H_    0.753116 0.631514 0.532899 0.155297
C13   C     C_2   0.327469 0.778947 0.537897 -0.248402
C14   C     C_2   0.327738 0.221597 0.536099 -0.229160
C15   C     C_2   0.827738 0.278467 0.536282 -0.246500
C16   C     C_2   0.827620 0.721500 0.535981 -0.241777
C17   C     C_2   0.290192 0.759285 0.456772 -0.196131
C18   C     C_2   0.266116 0.197542 0.538240 -0.199220
C19   C     C_2   0.766081 0.302485 0.538131 -0.192041
C20   C     C_2   0.766018 0.697342 0.538299 -0.187644
C21   C     C_2   0.669447 0.229317 0.468395 -0.064996
C22   C     C_2   0.669580 0.770897 0.468208 -0.065101
C23   C     C_2   0.174863 0.719618 0.450155 -0.056096
C24   C     C_2   0.169571 0.270898 0.468296 -0.062221
C25   C     C_2   0.715002 0.239223 0.544300 0.399606
C26   C     C_2   0.714822 0.760454 0.544481 0.397925
C27   C     C_2   0.237897 0.698097 0.466779 0.396601
C28   C     C_2   0.215002 0.260752 0.544355 0.406919
H5    H     H_    0.316900 0.753934 0.612450 0.174697
H6    H     H_    0.340056 0.287628 0.532165 0.183794
H7    H     H_    0.840113 0.212438 0.532667 0.172963
H8    H     H_    0.839856 0.787549 0.531902 0.171487
H9    H     H_    0.446106 0.967094 0.913429 0.207288
H10   H     H_    0.947868 0.475242 0.915987 0.217705
C29   C     C_2   0.461659 0.001682 0.117068 0.235778
C30   C     C_2   0.960718 0.500892 0.118491 0.242873
C31   C     C_2   0.504771 0.965338 0.055597 0.096551
C32   C     C_2   0.008393 0.476505 0.056968 0.104480
H11   H     H_    0.592369 0.998246 0.911859 0.187158
H12   H     H_    0.094311 0.500405 0.907965 0.183339
C33   C     C_2   0.543312 0.990661 0.882147 -0.305540
C34   C     C_2   0.044582 0.494133 0.881195 -0.317890
C35   C     C_2   0.495078 0.972885 0.944322 -0.076951
C36   C     C_2   0.997047 0.481208 0.945805 -0.082207
Cl1   Cl    Cl    0.717411 0.179450 0.657911 -0.538955
Cl2   Cl    Cl    0.716572 0.819227 0.658674 -0.538241
Cl3   Cl    Cl    0.263849 0.595689 0.499922 -0.540948
Cl4   Cl    Cl    0.217191 0.320104 0.658123 -0.527209
C37   C     C_3   0.668171 0.286917 0.376968 -0.913746
H13   H     H_    0.629758 0.269276 0.320461 0.276826
H14   H     H_    0.659249 0.352284 0.401486 0.252890
H15   H     H_    0.715024 0.283816 0.338483 0.257113
C38   C     C_3   0.668798 0.714143 0.376177 -0.912082
H16   H     H_    0.630601 0.732250 0.319451 0.271936
H17   H     H_    0.715825 0.717705 0.338252 0.261091
H18   H     H_    0.659876 0.648533 0.399891 0.253256
C39   C     C_3   0.156996 0.807044 0.415057 -0.933918
H19   H     H_    0.103963 0.815665 0.408176 0.274035
H20   H     H_    0.176125 0.853774 0.470662 0.252424
H21   H     H_    0.177541 0.819435 0.339534 0.256349
C40   C     C_3   0.168557 0.213764 0.376602 -0.915659
H22   H     H_    0.130246 0.231661 0.319974 0.273159
H23   H     H_    0.215493 0.217133 0.338384 0.264470
H24   H     H_    0.159663 0.148260 0.400761 0.249945
C41   C     C_3   0.562949 0.918227 0.098260 -0.873245
H25   H     H_    0.592664 0.892334 0.036999 0.260931
H26   H     H_    0.593607 0.960628 0.145903 0.227420
H27   H     H_    0.547222 0.864392 0.144763 0.261375
C42   C     C_3   0.073706 0.446033 0.097642 -0.877880
H28   H     H_    0.076004 0.434244 0.180574 0.233765
H29   H     H_    0.086120 0.386391 0.059627 0.265432
H30   H     H_    0.111171 0.493406 0.081676 0.244804
Cl5   Cl    Cl    0.397648 0.064297 0.067867 -0.582108
Cl6   Cl    Cl    0.887825 0.545674 0.071159 -0.589868

loop_
_geom_bond_atom_site_label_1
_geom_bond_atom_site_label_2
_geom_bond_distance
_ccdc_geom_bond_type
Zn7   O2    1.930407 S    
C37   H13   1.109917 S    
Zn8   O5    1.916720 S    
O23   C8    1.275969 A    
Zn2   O10   1.918463 S    
C42   H29   1.110380 S    
C39   H19   1.109926 S    
C2    C21   1.483660 S    
C15   H7    1.086992 S    
Zn6   O1    1.932569 S    
C3    C24   1.483157 S    
C39   H21   1.110378 S    
Zn1   O25   1.916843 S    
C30   C32   1.354288 D    
O10   C8    1.278406 A    
C8    C15   1.457059 S    
C30   Cl6   1.768744 S    
Zn7   O15   1.923218 S    
C38   H17   1.110691 S    
O19   C4    1.270776 A    
C9    C33   1.466458 S    
Zn6   O14   1.922129 S    
H3    C19   1.087120 S    
C11   C29   1.462472 S    
C26   Cl2   1.771708 S    
O12   C10   1.270701 A    
Zn7   O6    1.917361 S    
C42   H28   1.106376 S    
Zn3   O11   1.927973 S    
Zn1   O7    1.917625 S    
O4    C2    1.280390 A    
O5    C3    1.280887 A    
C14   H6    1.087012 S    
C4    C23   1.483847 S    
Zn2   O26   1.916843 S    
C5    C14   1.456923 S    
O15   C12   1.269201 A    
Zn2   O9    1.917625 S    
C31   C41   1.515304 S    
C29   C31   1.354842 D    
Zn4   O20   1.922996 S    
O11   C9    1.275984 A    
C29   Cl5   1.768969 S    
O13   C11   1.271203 A    
H11   C33   1.086144 S    
C20   C26   1.468458 S    
O9    C7    1.277827 A    
C24   C28   1.363198 D    
H4    C20   1.087107 S    
Zn3   O17   1.922547 S    
Zn1   O1    1.942136 S    
Zn5   O4    1.917361 S    
C34   C36   1.337199 D    
C32   C36   1.475802 S    
Zn6   O3    1.916720 S    
C33   C35   1.341725 D    
C15   C19   1.336477 D    
C31   C35   1.476166 S    
C25   Cl1   1.771925 S    
C1    C22   1.483286 S    
O25   C9    1.273736 A    
Zn5   O1    1.930407 S    
Zn3   O1    1.919670 S    
O6    C4    1.280323 A    
C40   H22   1.109984 S    
C16   H8    1.086984 S    
C10   C34   1.458753 S    
O24   C7    1.275505 A    
O14   C11   1.274741 A    
C39   H20   1.110714 S    
H12   C34   1.084850 S    
O26   C10   1.275038 A    
C41   H26   1.110551 S    
Zn1   O8    1.918463 S    
C13   H5    1.086996 S    
O7    C5    1.277804 A    
O8    C6    1.275895 A    
C40   H23   1.110694 S    
C32   C42   1.521505 S    
C37   H14   1.110411 S    
C42   H30   1.109514 S    
Zn4   O2    1.919670 S    
Zn2   O2    1.942136 S    
C12   C30   1.451718 S    
Zn4   O19   1.922547 S    
H1    C17   1.087079 S    
Zn5   O22   1.923252 S    
C16   C20   1.336537 D    
C22   C38   1.512952 S    
H2    C18   1.087104 S    
Zn7   O24   1.923252 S    
C17   C27   1.469432 S    
Zn8   O23   1.923001 S    
Zn3   O18   1.922996 S    
C19   C25   1.468640 S    
Zn6   O21   1.923001 S    
C28   Cl4   1.771899 S    
C23   C39   1.512972 S    
C27   Cl3   1.772050 S    
C6    C13   1.457598 S    
C21   C25   1.363354 D    
C22   C26   1.363158 D    
O16   C12   1.271441 A    
O3    C1    1.280807 A    
C38   H18   1.110406 S    
O20   C3    1.271189 A    
C18   C28   1.468231 S    
O21   C6    1.278763 A    
Zn8   O16   1.922129 S    
O22   C5    1.275340 A    
C41   H27   1.109643 S    
C13   C17   1.336625 D    
C21   C37   1.513002 S    
C7    C16   1.457307 S    
O17   C2    1.270631 A    
C24   C40   1.512999 S    
Zn4   O12   1.927973 S    
C23   C27   1.363423 D    
O18   C1    1.271341 A    
C40   H24   1.110402 S    
Zn5   O13   1.923218 S    
Zn8   O2    1.932569 S    
C37   H15   1.110693 S    
C41   H25   1.109589 S    
H10   C36   1.086336 S    
C38   H16   1.110038 S    
C14   C18   1.336337 D    
H9    C35   1.086924 S    
