data_mof_unit_55553.cif
_audit_creation_date              2013-03-05T16:48:48-0500
_audit_creation_method            fapswitch 2.2
_symmetry_space_group_name_H-M    P1
_symmetry_Int_Tables_number       1
_space_group_crystal_system       triclinic
_cell_length_a                    10.980976
_cell_length_b                    10.954537
_cell_length_c                    13.125792
_cell_angle_alpha                 92.609969
_cell_angle_beta                  92.234135
_cell_angle_gamma                 90.586688
_cell_volume                      1575.97032548

loop_
_atom_site_label
_atom_site_type_symbol
_atom_site_description
_atom_site_fract_x
_atom_site_fract_y
_atom_site_fract_z
_atom_type_partial_charge
O1    O     O_R   0.499980 0.319630 0.578260 -0.586210
O2    O     O_R   0.500020 0.680370 0.421740 -0.586279
O3    O     O_R   0.500000 0.319650 0.421740 -0.580435
O4    O     O_R   0.500000 0.680350 0.578260 -0.580423
C1    C     C_R   0.501015 0.259348 0.497810 0.853913
C2    C     C_R   0.498969 0.740652 0.502189 0.853873
O5    O     O_R   0.319630 0.500000 0.578260 -0.525605
O6    O     O_R   0.680370 0.500000 0.421740 -0.525564
O7    O     O_R   0.319650 0.500020 0.421740 -0.584989
O8    O     O_R   0.680350 0.499980 0.578260 -0.584986
C3    C     C_R   0.259364 0.494420 0.497764 0.935067
C4    C     C_R   0.740635 0.505595 0.502237 0.935062
Cu1   Cu    Cu3+1 0.499990 0.499990 0.592680 1.056217
Cu2   Cu    Cu3+1 0.500010 0.500010 0.407320 1.056138
C5    C     C_R   0.231704 0.664042 0.197841 0.386413
C6    C     C_R   0.768348 0.336094 0.802240 0.386317
C7    C     C_R   0.181841 0.646155 0.292269 -0.193491
C8    C     C_R   0.818183 0.353942 0.707795 -0.193304
H1    H     H_    0.203081 0.711260 0.355325 0.191894
H2    H     H_    0.796934 0.288811 0.644762 0.191921
C9    C     C_R   0.109886 0.542740 0.307919 -0.094436
C10   C     C_R   0.890122 0.457354 0.692098 -0.094472
C11   C     C_R   0.079358 0.459487 0.224537 0.347059
C12   C     C_R   0.920645 0.540657 0.775449 0.347009
C13   C     C_R   0.125162 0.481163 0.128610 -0.185764
C14   C     C_R   0.874862 0.519032 0.871391 -0.185439
H3    H     H_    0.102343 0.418897 0.064040 0.231973
H4    H     H_    0.897674 0.581335 0.935935 0.232026
C15   C     C_R   0.200401 0.581815 0.113744 0.302141
C16   C     C_R   0.799672 0.418358 0.886307 0.301756
C17   C     C_R   0.930716 0.543815 0.416799 0.417824
C18   C     C_R   0.069281 0.456229 0.583211 0.417781
C19   C     C_R   0.873548 0.507383 0.504790 -0.139334
C20   C     C_R   0.126450 0.492651 0.495216 -0.139314
C21   C     C_R   0.943281 0.470237 0.590694 -0.080912
C22   C     C_R   0.056718 0.529813 0.409317 -0.080854
C23   C     C_R   0.425427 0.173379 0.146340 0.264827
C24   C     C_R   0.574280 0.826662 0.853715 0.264838
C25   C     C_R   0.420144 0.146203 0.249507 0.323694
C26   C     C_R   0.579658 0.853815 0.750550 0.323703
C27   C     C_R   0.523601 0.101314 0.301757 -0.269513
C28   C     C_R   0.476246 0.898687 0.698225 -0.269578
C29   C     C_R   0.632876 0.082287 0.249454 0.255869
C30   C     C_R   0.366915 0.917704 0.750449 0.255842
C31   C     C_R   0.633940 0.095431 0.143100 0.282282
C32   C     C_R   0.365744 0.904542 0.856791 0.282660
C33   C     C_R   0.529841 0.140538 0.091127 0.164299
C34   C     C_R   0.469795 0.859479 0.908845 0.164111
C35   C     C_R   0.511586 0.927914 0.411274 -0.123151
C36   C     C_R   0.488378 0.072085 0.588722 -0.123112
H5    H     H_    0.520154 0.872282 0.341409 0.193783
H6    H     H_    0.479803 0.127718 0.658587 0.193836
C37   C     C_R   0.500024 0.873107 0.504688 -0.101304
C38   C     C_R   0.499944 0.126893 0.495309 -0.101320
C39   C     C_R   0.488125 0.946189 0.594907 0.086333
C40   C     C_R   0.511818 0.053810 0.405086 0.086320
N1    N     N_1   0.500030 0.500030 0.268070 -0.127629
N2    N     N_1   0.499970 0.499970 0.731930 -0.127576
C41   C     C_1   0.500344 0.499832 0.173588 0.168592
C42   C     C_1   0.499658 0.500161 0.826412 0.168914
C43   C     C_1   0.500275 0.499922 0.050694 -0.005455
C44   C     C_1   0.499729 0.500064 0.949306 -0.005403
O9    O     O_3   0.237879 0.596681 0.015893 -0.688896
H7    H     H_    0.276726 0.677716 0.011619 0.383784
O10   O     O_3   0.762257 0.403511 0.984173 -0.688975
H8    H     H_    0.723850 0.322264 0.988561 0.383782
O11   O     O_3   0.739149 0.046877 0.299388 -0.604145
H9    H     H_    0.733349 0.062980 0.373853 0.351220
O12   O     O_3   0.260686 0.953122 0.700454 -0.604160
H10   H     H_    0.266564 0.937064 0.625991 0.351224
N3    N     N_R   0.738268 0.054887 0.087276 0.211529
O13   O     O_R   0.761666 0.098414 0.999506 -0.224803
O14   O     O_R   0.805663 0.966700 0.120144 -0.223477
N4    N     N_R   0.261341 0.945031 0.912532 0.211792
O15   O     O_R   0.237680 0.901239 0.000140 -0.224439
O16   O     O_R   0.194114 0.033379 0.879743 -0.223745
O17   O     O_3   0.311255 0.761025 0.191698 -0.657800
H11   H     H_    0.377966 0.733382 0.148111 0.340623
O18   O     O_3   0.688767 0.239139 0.808414 -0.657783
H12   H     H_    0.622239 0.266706 0.852239 0.340978
N5    N     N_R   0.001266 0.354244 0.234925 0.186948
O19   O     O_R   0.996846 0.300245 0.321004 -0.284071
O20   O     O_R   0.941644 0.305194 0.155446 -0.262429
N6    N     N_R   0.998715 0.645900 0.765010 0.186866
O21   O     O_R   0.003061 0.699884 0.678919 -0.284111
O22   O     O_R   0.058395 0.694964 0.844454 -0.262215
O23   O     O_3   0.860510 0.592695 0.338839 -0.683335
H13   H     H_    0.911781 0.644137 0.297150 0.348006
O24   O     O_3   0.139484 0.407354 0.661174 -0.683354
H14   H     H_    0.088211 0.355922 0.702869 0.347997
O25   O     O_3   0.530087 0.143935 0.986189 -0.703061
H15   H     H_    0.445351 0.139097 0.957717 0.353125
O26   O     O_3   0.469430 0.856121 0.013781 -0.703139
H16   H     H_    0.554138 0.860967 0.042316 0.353006
O27   O     O_3   0.324543 0.225528 0.100557 -0.632952
H17   H     H_    0.351620 0.275081 0.044220 0.330942
O28   O     O_3   0.675142 0.774560 0.899576 -0.632895
H18   H     H_    0.648032 0.725033 0.955916 0.330931
N7    N     N_R   0.308376 0.164126 0.300930 0.190693
O29   O     O_R   0.257462 0.074658 0.346150 -0.290680
O30   O     O_R   0.255491 0.269616 0.300345 -0.305763
N8    N     N_R   0.691478 0.835889 0.699202 0.190740
O31   O     O_R   0.742431 0.925349 0.654000 -0.290583
O32   O     O_R   0.744364 0.730401 0.699835 -0.305812

loop_
_geom_bond_atom_site_label_1
_geom_bond_atom_site_label_2
_geom_bond_distance
_ccdc_geom_bond_type
O23   H13   0.989728 S    
C15   O9    1.379989 S    
O26   H16   0.989109 S    
C31   N3    1.446668 S    
O27   H17   0.990097 S    
N5    O19   1.301307 A    
C25   C27   1.408615 A    
C9    C22   1.486048 S    
O17   H11   0.988477 S    
O5    C3    1.223441 A    
C10   C21   1.486019 S    
C36   C38   1.399145 A    
N4    O16   1.301784 A    
O1    C1    1.220194 A    
C12   C14   1.403157 A    
N1    C41   1.240192 T    
N2    C42   1.240193 T    
O28   H18   0.990076 S    
C23   O27   1.380949 S    
C42   C44   1.613100 S    
C31   C33   1.413397 A    
O4    Cu1   1.993366 S    
N8    O31   1.301170 A    
C18   O24   1.387439 S    
C35   H5    1.085457 S    
C36   H6    1.085465 S    
C17   C19   1.407357 A    
C23   C33   1.420821 A    
C24   C34   1.420827 A    
C43   C44   1.330649 T    
C26   C28   1.408621 A    
Cu1   Cu2   2.433015 S    
C27   C29   1.418074 A    
O2    C2    1.220191 A    
C28   C30   1.418064 A    
C24   O28   1.380960 S    
N5    O20   1.301600 A    
C30   C32   1.410307 A    
C5    C15   1.421805 A    
C32   C34   1.413297 A    
C37   C39   1.410031 A    
C13   C15   1.396394 A    
C38   C40   1.410031 A    
C41   C43   1.613100 S    
C17   O23   1.387444 S    
N4    O15   1.300373 A    
O11   H9    0.989900 S    
C18   C21   1.400405 A    
C1    C38   1.449772 S    
N6    O21   1.301302 A    
O4    C2    1.221808 A    
C34   O26   1.379704 S    
O25   H15   0.989116 S    
N3    O14   1.301833 A    
C7    H1    1.084361 S    
Cu1   N2    1.827785 S    
C7    C9    1.401929 A    
O18   H12   0.988560 S    
C18   C20   1.407367 A    
O7    Cu2   1.996884 S    
C27   C40   1.484460 S    
C28   C39   1.484432 S    
O7    C3    1.222304 A    
C25   N7    1.434546 S    
N7    O29   1.301176 A    
O6    C4    1.223451 A    
C30   O12   1.383711 S    
N8    O32   1.298813 A    
C29   C31   1.410385 A    
O3    Cu2   1.993366 S    
O8    C4    1.222291 A    
C29   O11   1.383721 S    
N7    O30   1.298811 A    
C14   C16   1.396392 A    
C9    C11   1.419929 A    
C10   C12   1.419932 A    
O1    Cu1   1.976207 S    
C2    C37   1.449774 S    
O24   H14   0.989728 S    
C32   N4    1.446591 S    
C5    C7    1.395438 A    
Cu2   N1    1.827786 S    
O6    Cu2   1.982194 S    
C11   N5    1.444394 S    
C8    C10   1.401931 A    
C33   O25   1.379699 S    
C3    C20   1.458513 S    
N6    O22   1.301599 A    
O3    C1    1.221804 A    
O8    Cu1   1.996885 S    
C13   H3    1.083346 S    
C35   C40   1.385191 A    
C14   H4    1.083324 S    
C36   C39   1.385189 A    
C6    O18   1.375727 S    
C12   N6    1.444361 S    
N3    O13   1.300454 A    
C23   C25   1.402926 A    
C24   C26   1.402920 A    
C5    O17   1.375710 S    
C35   C37   1.399152 A    
C19   C21   1.415683 A    
C20   C22   1.415691 A    
C8    H2    1.084344 S    
C11   C13   1.403170 A    
O12   H10   0.989897 S    
O2    Cu2   1.976205 S    
C16   O10   1.379920 S    
C26   N8    1.434554 S    
O9    H7    0.985779 S    
O5    Cu1   1.982197 S    
C6    C8    1.395442 A    
O10   H8    0.986007 S    
C17   C22   1.400414 A    
C4    C19   1.458502 S    
C6    C16   1.421798 A    
