data_mof_unit_59703.cif
_audit_creation_date              2012-12-10T16:46:05-0500
_audit_creation_method            fapswitch 2.2
_symmetry_space_group_name_H-M    P1
_symmetry_Int_Tables_number       1
_space_group_crystal_system       triclinic
_cell_length_a                    10.737585
_cell_length_b                    8.673937
_cell_length_c                    7.486256
_cell_angle_alpha                 102.933058
_cell_angle_beta                  95.008777
_cell_angle_gamma                 92.719037
_cell_volume                      675.353009008

loop_
_atom_site_label
_atom_site_type_symbol
_atom_type_description
_atom_site_fract_x
_atom_site_fract_y
_atom_site_fract_z
_atom_type_partial_charge
C1    C     C_R   0.496161 0.199821 0.453276 0.866740
C2    C     C_3   0.876649 0.493962 0.496834 0.042287
C3    C     C_3   0.935587 0.665834 0.518365 -0.193458
C4    C     C_3   0.909133 0.381778 0.317099 -0.389495
C5    C     C_2   0.494519 0.031784 0.427135 -0.358757
C6    C     C_2   0.506495 0.968259 0.572808 -0.312472
C7    C     C_R   0.259852 0.491345 0.498869 0.755639
C8    C     C_R   0.504285 0.800183 0.546702 0.909593
C9    C     C_R   0.739315 0.495989 0.498511 0.753112
C10   C     C_3   0.077015 0.418897 0.657963 -0.203493
C11   C     C_3   0.933495 0.429462 0.662218 -0.371704
C12   C     C_3   0.080174 0.662950 0.515161 -0.183977
C13   C     C_3   0.052333 0.379601 0.313180 -0.121163
C14   C     C_3   0.120822 0.488854 0.496549 -0.117232
Cu1   Cu    Cu3+1 0.514070 0.517380 0.684380 0.967341
Cu2   Cu    Cu3+1 0.485930 0.482620 0.315620 0.988759
H1    H     H_    0.122736 0.492633 0.789995 0.143543
H2    H     H_    0.864109 0.416864 0.193945 0.207739
H3    H     H_    0.108734 0.704479 0.393402 0.189967
H4    H     H_    0.483405 0.960026 0.286843 0.183606
H5    H     H_    0.517514 0.040008 0.713103 0.183275
H6    H     H_    0.401025 0.377612 0.948370 0.245984
H7    H     H_    0.599131 0.622250 0.051563 0.239758
H8    H     H_    0.883882 0.313896 0.661616 0.212917
H9    H     H_    0.916317 0.510404 0.794524 0.178708
H10   H     H_    0.914087 0.734785 0.655507 0.103301
H11   H     H_    0.077450 0.255452 0.306084 0.185667
H12   H     H_    0.869139 0.259433 0.310074 0.169898
N1    N     N_2   0.464720 0.456420 0.038520 -0.208659
N2    N     N_2   0.535280 0.543580 0.961480 -0.220132
O1    O     O_R   0.509140 0.286130 0.619770 -0.592463
O2    O     O_R   0.485380 0.256770 0.308360 -0.572381
O3    O     O_R   0.329570 0.514650 0.655700 -0.600854
O4    O     O_R   0.305810 0.485300 0.344290 -0.547328
O5    O     O_R   0.514620 0.743230 0.691640 -0.571337
O6    O     O_R   0.490860 0.713870 0.380230 -0.589984
O7    O     O_R   0.694190 0.514700 0.655710 -0.589103
O8    O     O_R   0.670430 0.485350 0.344300 -0.587953
C15   C     C_2   0.877034 0.752771 0.380962 0.390295
H13   H     H_    0.819237 0.850146 0.428316 0.078512
O9    O     O_2   0.891736 0.714374 0.217509 -0.593427
C16   C     C_2   0.118597 0.251556 0.646780 0.486091
H14   H     H_    0.217592 0.234323 0.670346 0.103649
O10   O     O_2   0.044115 0.135390 0.610737 -0.544814
C17   C     C_2   0.146106 0.777410 0.683913 0.417122
H15   H     H_    0.127805 0.766638 0.821019 0.081624
O11   O     O_2   0.219851 0.883616 0.667440 -0.532952
C18   C     C_2   0.088781 0.418794 0.137952 0.380991
H16   H     H_    0.065117 0.528875 0.102285 0.105187
O12   O     O_2   0.147267 0.325830 0.035717 -0.568168

loop_
_geom_bond_atom_site_label_1
_geom_bond_atom_site_label_2
_ccdc_geom_bond_type
C7    C14   S    
C13   C18   S    
C2    C4    S    
Cu1   O1    S    
N1    N2    D    
H6    N1    S    
C10   C16   S    
C13   H11   S    
C4    H2    S    
C18   O12   D    
C2    C3    S    
C3    C15   S    
C15   O9    D    
C5    H4    S    
C13   C14   S    
Cu2   O6    S    
C7    O3    A    
C16   O10   D    
C1    C5    S    
C2    C11   S    
C12   H3    S    
Cu1   O5    S    
C18   H16   S    
C4    H12   S    
C12   C14   S    
C6    H5    S    
C10   C11   S    
C17   O11   D    
C10   C14   S    
C5    C6    D    
C7    O4    A    
Cu2   O2    S    
C16   H14   S    
C11   H9    S    
C10   H1    S    
Cu1   Cu2   S    
C15   H13   S    
H7    N2    S    
C11   H8    S    
C1    O1    A    
Cu1   N2    S    
C9    O7    A    
C8    O6    A    
C4    C13   S    
C3    H10   S    
C9    O8    A    
C6    C8    S    
C3    C12   S    
Cu2   O4    S    
Cu2   N1    S    
C17   H15   S    
C2    C9    S    
Cu1   O3    S    
C1    O2    A    
Cu1   O7    S    
Cu2   O8    S    
C12   C17   S    
C8    O5    A    
