data_mof_unit_23180.cif
_audit_creation_date              2012-12-11T17:06:28-0500
_audit_creation_method            fapswitch 2.2
_symmetry_space_group_name_H-M    P1
_symmetry_Int_Tables_number       1
_space_group_crystal_system       triclinic
_cell_length_a                    6.955116
_cell_length_b                    14.526394
_cell_length_c                    15.957642
_cell_angle_alpha                 90.474535
_cell_angle_beta                  89.983635
_cell_angle_gamma                 89.955185
_cell_volume                      1612.18868243

loop_
_atom_site_label
_atom_site_type_symbol
_atom_type_description
_atom_site_fract_x
_atom_site_fract_y
_atom_site_fract_z
_atom_type_partial_charge
O1    O     O_R   0.494400 0.415450 0.412630 -0.547299
O2    O     O_R   0.823940 0.405730 0.586760 -0.551233
O3    O     O_R   0.994240 0.584550 0.587370 -0.530770
C1    C     C_R   0.655190 0.383568 0.615302 0.689026
O4    O     O_R   0.824110 0.404430 0.413240 -0.552929
O5    O     O_R   0.994420 0.583240 0.412620 -0.532177
C2    C     C_R   0.655361 0.382125 0.384306 0.666837
O6    O     O_R   0.494230 0.416760 0.587380 -0.544616
O7    O     O_3   0.660800 0.558670 0.500000 -0.322883
V1    V     V_3+5 0.935650 0.489120 0.500000 1.451791
O8    O     O_R   0.324140 0.594270 0.413240 -0.531588
C3    C     C_R   0.154969 0.616637 0.384691 0.709692
O9    O     O_R   0.323960 0.595570 0.586760 -0.499321
C4    C     C_R   0.155010 0.617937 0.615331 0.742437
V2    V     V_3+5 0.435660 0.510880 0.500000 1.547556
O10   O     O_3   0.160640 0.441330 0.500000 -0.394901
C5    C     C_3   0.067173 0.666639 0.773861 -0.235289
C6    C     C_3   0.240128 0.719324 0.812743 -0.233479
H1    H     H_    0.329819 0.695829 0.865985 0.120279
H2    H     H_    0.012476 0.598849 0.794837 0.129772
C7    C     C_3   0.121914 0.809149 0.810087 -0.124214
C8    C     C_3   0.948895 0.757209 0.772189 -0.029800
C9    C     C_3   0.025962 0.777602 0.682966 -0.140806
C10   C     C_3   0.198781 0.830590 0.721654 -0.214756
C11   C     C_3   0.313873 0.739969 0.723790 0.706693
C12   C     C_3   0.143892 0.687686 0.685358 -0.107651
H3    H     H_    0.797823 0.764828 0.793479 0.176623
H4    H     H_    0.937478 0.801049 0.629306 0.176439
H5    H     H_    0.254786 0.898074 0.700524 0.139544
C13   C     C_R   0.262328 0.820516 0.243955 0.054710
C14   C     C_R   0.117795 0.815322 0.183011 -0.096311
C15   C     C_R   0.971114 0.749924 0.195788 -0.154708
H6    H     H_    0.852513 0.744727 0.152158 0.109927
C16   C     C_R   0.982805 0.686199 0.261911 -0.103770
H7    H     H_    0.872713 0.633899 0.266904 0.107230
C17   C     C_R   0.140407 0.686637 0.317805 -0.146533
C18   C     C_R   0.272105 0.759151 0.310219 0.104707
C19   C     C_3   0.486824 0.761346 0.310750 0.341582
C20   C     C_3   0.475520 0.827318 0.236749 -0.458253
H8    H     H_    0.552927 0.693665 0.295402 0.019967
H9    H     H_    0.529018 0.796599 0.177171 0.130851
H10   H     H_    0.528243 0.898188 0.249984 0.217729
C21   C     C_R   0.493490 0.316041 0.741573 0.102463
C22   C     C_R   0.647632 0.317210 0.685083 -0.108310
C23   C     C_R   0.799060 0.254700 0.698832 -0.171544
H11   H     H_    0.921296 0.253159 0.657054 0.134987
C24   C     C_R   0.787814 0.188972 0.762975 -0.167019
H12   H     H_    0.902410 0.139122 0.769037 0.129474
C25   C     C_R   0.624452 0.183616 0.814966 -0.109885
C26   C     C_R   0.481960 0.250744 0.804827 0.096111
C27   C     C_3   0.270879 0.239180 0.792861 -0.404284
C28   C     C_3   0.283351 0.310786 0.724243 -0.400503
H13   H     H_    0.187304 0.262872 0.848379 0.172197
H14   H     H_    0.234027 0.169301 0.769013 0.170597
H15   H     H_    0.207829 0.376084 0.740252 0.162689
H16   H     H_    0.252857 0.282693 0.660625 0.173470
C29   C     C_R   0.492951 0.315382 0.256796 0.091435
C30   C     C_R   0.647401 0.316013 0.313172 -0.103933
C31   C     C_R   0.798918 0.253832 0.297539 -0.165377
H17   H     H_    0.921324 0.251843 0.339139 0.136272
C32   C     C_R   0.787694 0.189075 0.231522 -0.156861
H18   H     H_    0.902419 0.139401 0.224052 0.135213
C33   C     C_R   0.624321 0.184370 0.179359 -0.108725
C34   C     C_R   0.481420 0.251049 0.191686 0.095346
C35   C     C_3   0.270607 0.238811 0.203726 -0.401264
C36   C     C_3   0.283023 0.309310 0.274347 -0.398449
H19   H     H_    0.234641 0.168476 0.225647 0.177621
H20   H     H_    0.186310 0.263214 0.149057 0.169461
H21   H     H_    0.253413 0.280115 0.337210 0.177016
H22   H     H_    0.206665 0.374665 0.260364 0.158307
O11   O     O_R   0.771650 0.079500 0.908680 -0.541014
O12   O     O_R   0.441690 0.091800 0.082800 -0.539533
O13   O     O_R   0.271460 0.912980 0.083410 -0.538073
C37   C     C_R   0.610642 0.113805 0.112022 0.700782
O14   O     O_R   0.441930 0.090510 0.909280 -0.540793
O15   O     O_R   0.271690 0.911670 0.908660 -0.536287
C38   C     C_R   0.610946 0.112555 0.880627 0.701181
O16   O     O_R   0.771410 0.080810 0.083440 -0.540382
O17   O     O_3   0.605100 0.937580 0.996050 -0.369752
V3    V     V_3+5 0.330220 0.007110 0.996030 1.407581
O18   O     O_R   0.941980 0.900620 0.909250 -0.543915
C39   C     C_R   0.110917 0.878574 0.880416 0.712319
O19   O     O_R   0.941740 0.901920 0.082770 -0.541794
C40   C     C_R   0.110499 0.880180 0.111796 0.703946
V4    V     V_3+5 0.830220 0.985300 0.996000 1.408222
O20   O     O_3   0.105210 0.054870 0.996020 -0.372451
S1    S     S_3+6 0.579395 0.814885 0.403969 0.014428
O21   O     O_2   0.474704 0.903618 0.421342 -0.328136
O22   O     O_2   0.553312 0.751388 0.476908 -0.309011
O23   O     O_3   0.814682 0.836830 0.390735 -0.500130
H23   H     H_    0.862940 0.853251 0.447304 0.362570
F1    F     F_    0.502592 0.730935 0.697868 -0.686371

loop_
_geom_bond_atom_site_label_1
_geom_bond_atom_site_label_2
_ccdc_geom_bond_type
S1    O21   D    
C6    C7    S    
O11   C38   A    
C29   C36   S    
C1    O6    A    
O18   C39   A    
O23   H23   S    
C24   C25   A    
C36   H22   S    
C23   H11   S    
C5    C12   S    
C17   C18   A    
C16   H7    S    
O5    C3    A    
C13   C14   A    
C21   C28   S    
C36   H21   S    
V2    O10   S    
C5    H2    S    
C6    H1    S    
C9    C12   S    
C32   C33   A    
C10   H5    S    
V3    O20   S    
O11   V4    S    
O8    V2    S    
C24   H12   S    
C35   H19   S    
C9    C10   S    
O1    V2    S    
C3    C17   S    
O14   V3    S    
O13   C40   A    
C28   H15   S    
C31   H17   S    
O9    C4    A    
C6    C11   S    
C26   C27   S    
C20   H10   S    
C23   C24   A    
C31   C32   A    
C27   C28   S    
C10   C11   S    
O12   C37   A    
O15   C39   A    
O4    C2    A    
C1    C22   S    
C30   C31   A    
V4    O20   S    
C14   C40   S    
O17   V3    S    
C13   C18   A    
C27   H13   S    
C15   C16   A    
O2    C1    A    
C21   C22   A    
C18   C19   S    
O19   C40   A    
C35   H20   S    
C5    C6    S    
C9    H4    S    
C4    C12   S    
O14   C38   A    
O3    C4    A    
O16   V4    S    
O19   V4    S    
C35   C36   S    
O6    V2    S    
C8    H3    S    
O9    V2    S    
S1    O23   S    
O2    V1    S    
O17   V4    S    
C22   C23   A    
C29   C34   A    
O7    V1    S    
C11   F1    S    
C2    C30   S    
O1    C2    A    
C14   C15   A    
O15   V3    S    
O5    V1    S    
O8    C3    A    
C21   C26   A    
C33   C37   S    
C5    C8    S    
C19   S1    S    
C27   H14   S    
C15   H6    S    
S1    O22   D    
C11   C12   S    
O4    V1    S    
O12   V3    S    
O3    V1    S    
V1    O10   S    
C34   C35   S    
C19   H8    S    
C29   C30   A    
C19   C20   S    
O13   V3    S    
C25   C38   S    
C13   C20   S    
C16   C17   A    
O7    V2    S    
C32   H18   S    
C33   C34   A    
C7    C39   S    
C20   H9    S    
C25   C26   A    
C37   O16   A    
C7    C10   S    
C8    C9    S    
C7    C8    S    
O18   V4    S    
C28   H16   S    
