data_mof_unit_63104.cif
_audit_creation_date              2012-10-26T18:25:12-0400
_audit_creation_method            fapswitch 2.2
_symmetry_space_group_name_H-M    P1
_symmetry_Int_Tables_number       1
_space_group_crystal_system       triclinic
_cell_length_a                    21.7528
_cell_length_b                    21.776591
_cell_length_c                    21.281097
_cell_angle_alpha                 120.991204
_cell_angle_beta                  120.661108
_cell_angle_gamma                 89.921808
_cell_volume                      6951.63627811

loop_
_atom_site_label
_atom_site_type_symbol
_atom_type_description
_atom_site_fract_x
_atom_site_fract_y
_atom_site_fract_z
_atom_type_partial_charge
C1    C     C_R   0.084766 0.584700 0.669186 0.529404
C2    C     C_R   0.471545 0.742684 0.801594 -0.078923
C3    C     C_2   0.706874 0.864023 0.585145 0.264540
C4    C     C_2   0.606612 0.202689 0.260676 0.332525
C5    C     C_2   0.650762 0.291713 0.735942 0.228156
C6    C     C_2   0.249634 0.354961 0.369937 0.230218
C7    C     C_R   0.504476 0.777396 0.780672 0.287272
C8    C     C_R   0.117365 0.498793 0.497722 0.550858
C9    C     C_R   0.474688 0.743197 0.689836 -0.033623
C10   C     C_R   0.412185 0.674495 0.620099 -0.090984
C11   C     C_R   0.379294 0.638536 0.640282 0.033174
C12   C     C_1   0.136483 0.636180 0.771718 -0.028175
C13   C     C_1   0.179168 0.678689 0.856692 -0.036973
C14   C     C_1   0.229470 0.728962 0.957466 0.006591
C15   C     C_1   0.271818 0.771347 0.042447 0.019135
C16   C     C_R   0.980664 0.227816 0.214777 -0.089489
C17   C     C_1   0.322033 0.821649 0.143238 -0.010207
C18   C     C_1   0.364376 0.864108 0.228220 -0.016481
C19   C     C_R   0.954431 0.444970 0.710710 -0.067623
C20   C     C_R   0.915231 0.415309 0.330797 0.548433
C21   C     C_R   0.890236 0.439844 0.638455 0.277725
C22   C     C_R   0.883992 0.506569 0.643901 0.036682
C23   C     C_R   0.941922 0.577673 0.722183 -0.137753
C24   C     C_R   0.005273 0.582350 0.794440 -0.118096
C25   C     C_R   0.011761 0.516056 0.788522 -0.129556
C26   C     C_R   0.751642 0.504738 0.568071 -0.103037
C27   C     C_R   0.248390 0.428993 0.433648 -0.000749
C28   C     C_R   0.686576 0.502495 0.499343 0.016490
C29   C     C_R   0.686283 0.499837 0.431419 0.022405
C30   C     C_R   0.752097 0.501023 0.435131 -0.084316
C31   C     C_R   0.816283 0.501784 0.502764 0.027965
C32   C     C_R   0.882285 0.500916 0.501745 0.548350
C33   C     C_R   0.816325 0.503320 0.569652 0.010390
C34   C     C_R   0.577780 0.430407 0.265431 0.222614
C35   C     C_R   0.515408 0.429555 0.194635 0.013543
C36   C     C_R   0.496772 0.496036 0.215848 -0.081919
C37   C     C_R   0.538753 0.562513 0.305951 -0.013366
C38   C     C_R   0.313184 0.497760 0.500519 0.023642
C39   C     C_R   0.598965 0.562128 0.376014 -0.147795
C40   C     C_R   0.619102 0.496786 0.356436 0.035216
C41   C     C_1   0.863528 0.363948 0.228237 -0.004142
C42   C     C_1   0.820869 0.321549 0.143248 -0.016555
C43   C     C_1   0.770569 0.271305 0.042455 0.016164
C44   C     C_R   0.034943 0.237414 0.295595 -0.093231
C45   C     C_1   0.728214 0.228973 0.957475 0.010995
C46   C     C_1   0.677982 0.178742 0.856709 -0.017770
C47   C     C_1   0.635609 0.136217 0.771732 0.005699
C48   C     C_R   0.499095 0.620174 0.500012 0.565236
C49   C     C_R   0.312738 0.565233 0.566332 -0.020540
C50   C     C_R   0.380021 0.499028 0.500225 0.589628
C51   C     C_R   0.501317 0.379603 0.499484 0.590031
C52   C     C_R   0.619959 0.501877 0.499752 0.567619
C53   C     C_R   0.500979 0.119612 0.502103 0.539574
C54   C     C_R   0.415475 0.915400 0.330777 0.521978
C55   C     C_R   0.499909 0.881419 0.499729 0.536444
C56   C     C_R   0.100606 0.303395 0.366084 -0.067161
C57   C     C_R   0.584523 0.084732 0.669214 0.547065
C58   C     C_R   0.274683 0.489933 0.225904 -0.136780
C59   C     C_R   0.341429 0.553288 0.284391 -0.035401
C60   C     C_R   0.247011 0.563683 0.562420 -0.109050
C61   C     C_R   0.358231 0.618144 0.366027 0.053817
C62   C     C_R   0.305605 0.620078 0.385994 -0.028928
C63   C     C_R   0.239126 0.556412 0.327721 0.258637
C64   C     C_R   0.223897 0.491195 0.247888 -0.062432
C65   C     C_R   0.432242 0.747615 0.427805 -0.007499
C66   C     C_R   0.498970 0.813978 0.497800 -0.018000
C67   C     C_R   0.564218 0.817513 0.568266 0.058896
C68   C     C_R   0.111680 0.360537 0.356283 0.016105
C69   C     C_R   0.564719 0.752907 0.567015 0.203379
C70   C     C_R   0.497999 0.686945 0.499522 -0.054885
C71   C     C_R   0.182614 0.497222 0.495372 0.027374
C72   C     C_R   0.430656 0.684689 0.431133 -0.064112
C73   C     C_R   0.697264 0.910714 0.658302 0.049662
C74   C     C_R   0.759299 0.977547 0.740428 -0.137947
C75   C     C_R   0.755075 0.024499 0.812663 -0.145496
C76   C     C_R   0.688598 0.005966 0.803868 -0.061636
C77   C     C_R   0.625649 0.940469 0.722720 0.252859
C78   C     C_R   0.629445 0.891262 0.649441 0.094978
C79   C     C_R   0.408916 0.201522 0.199594 -0.086518
C80   C     C_R   0.057003 0.350730 0.275148 -0.105133
C81   C     C_R   0.417773 0.218495 0.277137 -0.109879
C82   C     C_R   0.182007 0.429791 0.429752 -0.038374
C83   C     C_R   0.488595 0.232743 0.350671 -0.005153
C84   C     C_R   0.550167 0.228331 0.345137 -0.099965
C85   C     C_R   0.541549 0.209797 0.266500 0.052866
C86   C     C_R   0.469959 0.196539 0.193340 0.241915
C87   C     C_R   0.498168 0.181801 0.433403 -0.132703
C88   C     C_R   0.501332 0.186416 0.502854 0.003040
C89   C     C_R   0.503952 0.253886 0.570681 -0.054263
C90   C     C_R   0.504668 0.316691 0.568530 -0.133940
C91   C     C_R   0.500405 0.312057 0.498189 0.022607
C92   C     C_R   0.991932 0.284235 0.204395 -0.120364
C93   C     C_R   0.409193 0.673661 0.731816 -0.141070
C94   C     C_R   0.495847 0.243348 0.428872 -0.020253
C95   C     C_R   0.439951 0.250287 0.637832 -0.078187
C96   C     C_R   0.440910 0.257812 0.707556 -0.103097
C97   C     C_R   0.509708 0.276965 0.786236 -0.111259
C98   C     C_R   0.577778 0.288443 0.795388 -0.075197
C99   C     C_R   0.577851 0.280044 0.725249 0.029329
C100  C     C_R   0.507821 0.261004 0.645707 0.000423
C101  C     C_2   0.469871 0.360095 0.098438 0.277379
C102  C     C_2   0.521229 0.633302 0.327769 0.235253
C103  C     C_2   0.366669 0.744545 0.350328 0.297503
Cl1   Cl    Cl    0.583280 0.863432 0.868194 -0.485011
Cl2   Cl    Cl    0.818801 0.349428 0.542113 -0.523427
Cl3   Cl    Cl    0.605083 0.349111 0.241289 -0.608158
Cl4   Cl    Cl    0.175065 0.558350 0.354928 -0.619314
Cl5   Cl    Cl    0.650846 0.755742 0.650268 -0.562252
Cl6   Cl    Cl    0.542676 0.921385 0.715372 -0.554388
Cl7   Cl    Cl    0.453292 0.171479 0.091568 -0.569923
Cu1   Cu    Cu3+1 0.000010 0.438210 0.500020 1.023919
Cu2   Cu    Cu3+1 0.999990 0.561790 0.499980 1.012621
Cu3   Cu    Cu3+1 0.457530 0.457560 0.415050 0.992074
Cu4   Cu    Cu3+1 0.542470 0.542480 0.584950 1.041340
Cu5   Cu    Cu3+1 0.561810 0.000000 0.500000 1.013819
Cu6   Cu    Cu3+1 0.438190 0.000000 0.500000 1.021981
H1    H     H_    0.930022 0.176579 0.160098 0.130884
H2    H     H_    0.026316 0.193562 0.303426 0.124057
H3    H     H_    0.449649 0.496277 0.161939 0.204383
H4    H     H_    0.631544 0.613355 0.445860 0.137491
H5    H     H_    0.172605 0.441731 0.202669 0.139071
H6    H     H_    0.262579 0.439627 0.163787 0.125951
H7    H     H_    0.380593 0.551059 0.267037 0.150592
H8    H     H_    0.316269 0.671065 0.446649 0.146915
H9    H     H_    0.142706 0.310105 0.428164 0.121112
H10   H     H_    0.811545 0.993519 0.748847 0.111785
H11   H     H_    0.803430 0.075694 0.875602 0.130152
H12   H     H_    0.500151 0.769378 0.673108 0.195426
H13   H     H_    0.685872 0.042970 0.860332 0.166762
H14   H     H_    0.353846 0.190782 0.143360 0.152527
H15   H     H_    0.369227 0.219816 0.279611 0.154235
H16   H     H_    0.065226 0.394136 0.266488 0.162171
H17   H     H_    0.604248 0.237733 0.401579 0.184323
H18   H     H_    0.495310 0.129067 0.380938 0.132603
H19   H     H_    0.507591 0.369092 0.621378 0.141122
H20   H     H_    0.386156 0.235931 0.577366 0.129691
H21   H     H_    0.388268 0.249170 0.700769 0.132189
H22   H     H_    0.510386 0.283206 0.840463 0.142457
H23   H     H_    0.390574 0.648293 0.550544 0.098883
H24   H     H_    0.630461 0.304014 0.857568 0.163587
H25   H     H_    0.950193 0.276472 0.141541 0.122599
H26   H     H_    0.245965 0.614851 0.612422 0.132730
H27   H     H_    0.384654 0.647227 0.749162 0.120155
H28   H     H_    0.494351 0.768942 0.871839 0.155029
H29   H     H_    0.483540 0.308391 0.080351 0.212644
H30   H     H_    0.551550 0.682612 0.398077 0.166768
H31   H     H_    0.376669 0.780537 0.333036 0.117679
H32   H     H_    0.762839 0.877185 0.600032 0.107282
H33   H     H_    0.600401 0.187004 0.199899 0.198071
H34   H     H_    0.061103 0.519802 0.844403 0.137406
H35   H     H_    0.651884 0.286704 0.683158 0.126397
H36   H     H_    0.199192 0.314812 0.300160 0.113119
H37   H     H_    0.959769 0.393894 0.706814 0.151528
H38   H     H_    0.937620 0.629474 0.727481 0.124808
H39   H     H_    0.049360 0.637427 0.855092 0.135961
H40   H     H_    0.751703 0.506413 0.619942 0.143418
H41   H     H_    0.752804 0.499847 0.383904 0.147429
O1    O     O_R   0.061970 0.509790 0.623960 -0.492201
O2    O     O_R   0.447790 0.090160 0.499970 -0.500064
O3    O     O_R   0.490230 0.938030 0.376060 -0.482669
O4    O     O_R   0.061960 0.614160 0.623930 -0.492885
O5    O     O_R   0.385840 0.938030 0.376050 -0.496287
O6    O     O_R   0.552210 0.909840 0.500030 -0.479458
O7    O     O_R   0.447820 0.909840 0.500030 -0.485945
O8    O     O_R   0.614160 0.061970 0.623950 -0.494143
O9    O     O_R   0.509770 0.061970 0.623940 -0.472771
O10   O     O_R   0.090190 0.447820 0.500020 -0.513540
O11   O     O_R   0.090170 0.552190 0.499990 -0.480503
O12   O     O_R   0.535870 0.626050 0.571740 -0.450410
O13   O     O_R   0.938040 0.385840 0.376070 -0.477250
O14   O     O_R   0.938030 0.490210 0.376040 -0.484151
O15   O     O_R   0.909830 0.447810 0.500010 -0.458168
O16   O     O_R   0.909810 0.552180 0.499980 -0.518963
O17   O     O_R   0.464140 0.554340 0.428270 -0.534528
O18   O     O_2   0.415925 0.359576 0.037503 -0.498500
O19   O     O_2   0.473001 0.637511 0.267827 -0.503013
O20   O     O_2   0.301078 0.703199 0.305665 -0.477922
O21   O     O_2   0.653195 0.811961 0.507537 -0.512843
O22   O     O_2   0.668430 0.214243 0.323991 -0.432080
O23   O     O_R   0.373960 0.464160 0.428260 -0.486095
O24   O     O_2   0.710798 0.306978 0.804060 -0.496372
O25   O     O_2   0.305584 0.336490 0.396066 -0.508063
O26   O     O_R   0.445680 0.535880 0.571730 -0.513827
O27   O     O_R   0.464130 0.373990 0.428260 -0.480055
O28   O     O_R   0.535860 0.445700 0.571730 -0.518329
O29   O     O_R   0.554320 0.464170 0.428270 -0.497166
O30   O     O_R   0.626040 0.535880 0.571740 -0.496931
O31   O     O_R   0.552180 0.090160 0.499970 -0.505339

loop_
_geom_bond_atom_site_label_1
_geom_bond_atom_site_label_2
_ccdc_geom_bond_type
C68   C80   A    
C30   H41   S    
C20   O13   A    
C87   C88   A    
C80   H16   S    
Cu4   O12   S    
C2    H28   S    
C41   C42   T    
C26   H40   S    
C50   O26   A    
C62   H8    S    
C20   C41   S    
C103  H31   S    
C38   C49   A    
C31   C32   S    
C45   C46   S    
C4    H33   S    
C1    C12   S    
C101  H29   S    
C62   C63   A    
Cu4   O28   S    
C6    O25   D    
C83   C84   A    
C34   C40   A    
Cu6   O5    S    
C36   C37   A    
C86   Cl7   S    
C53   O31   A    
C55   O7    A    
Cu1   O15   S    
C39   H4    S    
C85   C86   A    
C30   C31   A    
C81   H15   S    
Cu2   O14   S    
C57   O8    A    
C27   C38   A    
C102  O19   D    
Cu5   Cu6   S    
Cu2   O11   S    
C87   C94   A    
C7    C9    A    
C34   C35   A    
C73   C74   A    
C36   H3    S    
C8    O11   A    
C2    C7    A    
C60   H26   S    
C95   C96   A    
C73   C78   A    
C31   C33   A    
C52   O30   A    
Cu5   O8    S    
C9    C10   A    
C16   C44   A    
C93   H27   S    
C24   H39   S    
C28   C52   S    
C71   C82   A    
C6    H36   S    
C88   C89   A    
C11   C93   A    
C66   C67   A    
C32   O15   A    
C1    O4    A    
C3    H32   S    
C13   C14   S    
C59   H7    S    
C87   H18   S    
Cu6   O9    S    
C61   C62   A    
C67   C78   S    
C52   O29   A    
C19   C25   A    
C5    O24   D    
C81   C83   A    
C69   Cl5   S    
C97   C98   A    
C48   O17   A    
C76   C77   A    
C27   C82   A    
C58   C64   A    
Cu5   O31   S    
C84   H17   S    
C58   H6    S    
C9    H12   S    
C59   C61   A    
C74   C75   A    
C89   C100  S    
C34   Cl3   S    
C5    C99   S    
C24   C25   A    
Cu6   O2    S    
C51   O27   A    
C39   C40   A    
C79   C81   A    
C95   C100  A    
C4    C85   S    
C60   C71   A    
C58   C59   A    
C77   C78   A    
C83   C94   S    
C54   O5    A    
Cu4   O30   S    
C48   O12   A    
C98   H24   S    
C25   H34   S    
C103  O20   D    
C35   C36   A    
C80   C92   A    
C50   O23   A    
C75   C76   A    
C29   C30   A    
C11   C49   S    
C8    O10   A    
C47   C57   S    
C43   C45   T    
C76   H13   S    
C44   C56   A    
C26   C33   A    
C6    C27   S    
C44   H2    S    
C23   C24   A    
Cu1   O1    S    
C96   C97   A    
Cu3   O23   S    
C17   C18   T    
C74   H10   S    
C56   H9    S    
C84   C85   A    
C77   Cl6   S    
C92   H25   S    
C49   C60   A    
C38   C50   S    
C61   C72   S    
C98   C99   A    
C7    Cl1   S    
C19   H37   S    
C51   O28   A    
C101  O18   D    
Cu1   O10   S    
C42   C43   S    
C65   C103  S    
C4    O22   D    
C63   Cl4   S    
C97   H22   S    
C96   H21   S    
C55   C66   S    
C53   O2    A    
Cu3   Cu4   S    
C15   C17   S    
C22   C33   S    
C46   C47   T    
C28   C29   A    
C8    C71   S    
Cu1   Cu2   S    
C19   C21   A    
C14   C15   T    
Cu6   O7    S    
C2    C93   A    
C48   C70   S    
C35   C101  S    
C70   C72   A    
C16   C92   A    
C57   O9    A    
C65   C72   A    
C32   O16   A    
C26   C28   A    
C5    H35   S    
C99   C100  A    
Cu5   O3    S    
Cu1   O13   S    
C68   C82   S    
C55   O6    A    
C37   C39   A    
C56   C68   A    
C16   H1    S    
C102  H30   S    
C91   C94   A    
C90   H19   S    
C79   H14   S    
C1    O1    A    
C90   C91   A    
C37   C102  S    
Cu3   O29   S    
C29   C40   S    
C95   H20   S    
Cu2   O16   S    
C53   C88   S    
C75   H11   S    
C65   C66   A    
Cu5   O6    S    
C69   C70   A    
C3    C73   S    
Cu2   O4    S    
C10   C11   A    
C18   C54   S    
C54   O3    A    
C63   C64   A    
Cu3   O27   S    
C20   O14   A    
C12   C13   T    
Cu4   O26   S    
C10   H23   S    
C23   H38   S    
C51   C91   S    
C22   C23   A    
C3    O21   D    
C67   C69   A    
C89   C90   A    
C21   C22   A    
C79   C86   A    
C21   Cl2   S    
C64   H5    S    
Cu3   O17   S    
