data_mof_unit_46122.cif
_audit_creation_date              2013-03-05T16:22:58-0500
_audit_creation_method            fapswitch 2.2
_symmetry_space_group_name_H-M    P1
_symmetry_Int_Tables_number       1
_space_group_crystal_system       triclinic
_cell_length_a                    23.441203
_cell_length_b                    10.486041
_cell_length_c                    9.772369
_cell_angle_alpha                 90.437412
_cell_angle_beta                  89.804706
_cell_angle_gamma                 90.072935
_cell_volume                      2402.01540438

loop_
_atom_site_label
_atom_site_type_symbol
_atom_site_description
_atom_site_fract_x
_atom_site_fract_y
_atom_site_fract_z
_atom_type_partial_charge
O1    O     O_R   0.500000 0.313960 0.616610 -0.615223
O2    O     O_R   0.500000 0.686040 0.383390 -0.631698
O3    O     O_R   0.500030 0.313950 0.383350 -0.629311
O4    O     O_R   0.499970 0.686050 0.616650 -0.619457
C1    C     C_R   0.500022 0.257526 0.499416 0.886108
C2    C     C_R   0.500152 0.742425 0.500582 0.869875
O5    O     O_R   0.416140 0.499970 0.616650 -0.592195
O6    O     O_R   0.583860 0.500030 0.383350 -0.636675
O7    O     O_R   0.416170 0.499960 0.383400 -0.599740
O8    O     O_R   0.583830 0.500040 0.616600 -0.555002
C3    C     C_R   0.389461 0.499179 0.500093 0.937974
C4    C     C_R   0.610654 0.502702 0.499900 0.919447
Zn1   Zn    Zn3+2 0.499980 0.500010 0.655740 1.016691
Zn2   Zn    Zn3+2 0.500020 0.499990 0.344260 0.962548
C5    C     C_R   0.879958 0.627343 0.485046 0.615355
C6    C     C_R   0.121289 0.412475 0.433082 0.610914
N1    N     N_R   0.852827 0.512651 0.470383 -0.343108
N2    N     N_R   0.148361 0.523458 0.467758 -0.345432
C7    C     C_R   0.881932 0.402211 0.446152 0.610863
C8    C     C_R   0.119418 0.633844 0.492863 0.614308
C9    C     C_R   0.941339 0.403629 0.438831 -0.072130
C10   C     C_R   0.059950 0.634679 0.488830 -0.069353
C11   C     C_R   0.970608 0.518851 0.463496 -0.033470
C12   C     C_R   0.030676 0.519730 0.462219 -0.032460
C13   C     C_R   0.939868 0.632657 0.490461 -0.130429
C14   C     C_R   0.061388 0.405721 0.435573 -0.133345
C15   C     C_R   0.971702 0.291418 0.411814 -0.138668
C16   C     C_R   0.029528 0.746785 0.516440 -0.141802
C17   C     C_R   0.031136 0.290351 0.412151 0.325340
C18   C     C_R   0.970060 0.746773 0.520439 0.318900
O9    O     O_2   0.848635 0.735001 0.492117 -0.459121
O10   O     O_2   0.152751 0.310345 0.395647 -0.455120
O11   O     O_2   0.853276 0.291256 0.430765 -0.497339
O12   O     O_2   0.148295 0.741727 0.523707 -0.491582
H1    H     H_    0.949281 0.202467 0.394143 0.248343
H2    H     H_    0.051928 0.834585 0.540455 0.245660
C19   C     C_R   0.242526 0.576649 0.381993 -0.095389
C20   C     C_R   0.760001 0.479462 0.366859 -0.095093
H3    H     H_    0.223002 0.624384 0.296160 0.188471
H4    H     H_    0.780873 0.458451 0.270237 0.196041
C21   C     C_R   0.301239 0.567401 0.389033 -0.227253
C22   C     C_R   0.701155 0.478402 0.374440 -0.228842
H5    H     H_    0.326524 0.611070 0.309021 0.199952
H6    H     H_    0.677530 0.454132 0.282759 0.196803
C23   C     C_R   0.327178 0.503770 0.498101 -0.206224
C24   C     C_R   0.673199 0.507579 0.497971 -0.216042
C25   C     C_R   0.293338 0.448859 0.602477 0.205656
C26   C     C_R   0.705521 0.539125 0.615943 0.207547
C27   C     C_R   0.233574 0.458611 0.594874 0.263138
C28   C     C_R   0.765443 0.536802 0.608555 0.265388
C29   C     C_R   0.208758 0.522172 0.483435 0.134552
C30   C     C_R   0.792191 0.507925 0.482716 0.131199
C31   C     C_3   0.547106 0.043239 0.564292 -0.162789
C32   C     C_3   0.453377 0.956588 0.435642 -0.178888
C33   C     C_3   0.547287 0.957176 0.435363 -0.149384
C34   C     C_3   0.453203 0.042549 0.564566 -0.144565
H7    H     H_    0.585526 0.917410 0.383093 0.159737
H8    H     H_    0.414874 0.081282 0.617058 0.203870
H9    H     H_    0.585177 0.083459 0.616454 0.159578
H10   H     H_    0.415295 0.916355 0.383526 0.153998
C35   C     C_3   0.500313 0.877529 0.501664 0.014243
C36   C     C_3   0.500135 0.122326 0.498294 0.002964
C37   C     C_3   0.500156 0.960817 0.630738 -0.138925
C38   C     C_3   0.500330 0.038988 0.369186 -0.147219
H11   H     H_    0.500097 0.924992 0.737374 0.151357
H12   H     H_    0.500390 0.074809 0.262550 0.147004
C39   C     C_3   0.489252 0.386519 0.048197 -0.169295
C40   C     C_3   0.510819 0.613500 0.951794 -0.127092
C41   C     C_3   0.537511 0.424705 0.952112 0.206299
C42   C     C_3   0.462532 0.575302 0.047858 0.177047
H13   H     H_    0.481124 0.291273 0.093152 0.145063
H14   H     H_    0.518955 0.708717 0.906774 0.149935
N3    N     N_3   0.499960 0.500030 0.863290 -0.094707
N4    N     N_3   0.500040 0.499970 0.136710 -0.095713
C43   C     C_3   0.450761 0.463757 0.951363 -0.074029
C44   C     C_3   0.549343 0.536228 0.048721 -0.058032
H15   H     H_    0.409502 0.434965 0.905937 0.210793
H16   H     H_    0.590860 0.564430 0.094237 0.163556
N5    N     N_3   0.580152 0.339604 0.893184 -0.369988
H17   H     H_    0.603140 0.300894 0.974296 0.183983
H18   H     H_    0.558412 0.263934 0.846624 0.183208
N6    N     N_3   0.419671 0.659919 0.106674 -0.422534
H19   H     H_    0.396739 0.698675 0.025495 0.183067
H20   H     H_    0.441225 0.735632 0.153651 0.189538
N7    N     N_R   0.059323 0.169757 0.396899 0.258912
O13   O     O_R   0.045974 0.094798 0.295212 -0.308856
O14   O     O_R   0.087607 0.123282 0.499420 -0.260718
N8    N     N_R   0.941826 0.861037 0.565240 0.257463
O15   O     O_R   0.956469 0.970142 0.513255 -0.327849
O16   O     O_R   0.911770 0.859873 0.677443 -0.251457
N9    N     N_R   0.318963 0.382271 0.714368 0.227646
O17   O     O_R   0.353472 0.287518 0.690712 -0.406402
O18   O     O_R   0.303517 0.407821 0.839641 -0.349475
N10   N     N_R   0.678199 0.574353 0.742276 0.247521
O19   O     O_R   0.688208 0.510104 0.852994 -0.351377
O20   O     O_R   0.648516 0.678966 0.750041 -0.367782
N11   N     N_R   0.197887 0.399336 0.696084 0.243693
O21   O     O_R   0.155121 0.461191 0.749696 -0.341720
O22   O     O_R   0.205981 0.280751 0.729109 -0.245608
N12   N     N_R   0.799205 0.566305 0.727261 0.241489
O23   O     O_R   0.842390 0.494814 0.759444 -0.340657
O24   O     O_R   0.788297 0.667477 0.800673 -0.256469

loop_
_geom_bond_atom_site_label_1
_geom_bond_atom_site_label_2
_geom_bond_distance
_ccdc_geom_bond_type
C37   H11   1.110414 S    
C15   C17   1.393281 A    
N3    C43   1.487493 S    
N8    O16   1.301437 A    
N11   O21   1.301190 A    
C31   H9    1.110404 S    
C25   C27   1.407060 A    
C32   H10   1.110465 S    
N7    O13   1.301076 A    
O5    C3    1.301266 A    
N4    C44   1.488861 S    
O1    C1    1.285097 A    
Zn2   N4    2.028251 S    
C2    C35   1.416670 S    
C7    C9    1.394222 A    
C12   C14   1.418280 A    
C20   C22   1.381185 A    
C19   C29   1.392036 A    
C5    C13   1.406554 A    
C39   H13   1.110159 S    
C20   C30   1.392991 A    
C41   C44   1.523139 S    
C22   C24   1.403522 A    
C23   C25   1.415446 A    
O4    Zn1   1.990732 S    
C35   C37   1.528707 S    
C6    O10   1.348643 S    
C36   C38   1.529278 S    
C27   C29   1.408895 A    
C42   N4    1.472557 S    
C28   C30   1.409477 A    
C11   C12   1.408082 A    
C41   N3    1.472952 S    
C17   N7    1.434040 S    
O6    C4    1.302638 A    
C8    O12   1.350209 S    
C26   C28   1.406485 A    
C9    C15   1.398885 A    
C10   C16   1.399727 A    
C21   H5    1.083507 S    
O2    C2    1.284854 A    
C22   H6    1.083385 S    
C42   N6    1.455221 S    
N1    C30   1.426900 S    
N11   O22   1.301367 A    
N2    C29   1.424654 S    
C24   C26   1.418482 A    
C31   C33   1.544194 S    
C6    C14   1.405986 A    
C32   C34   1.543534 S    
N7    O14   1.301396 A    
O4    C2    1.283055 A    
C7    O11   1.350391 S    
N9    O17   1.300884 A    
N5    H18   1.044682 S    
C15   H1    1.083030 S    
C40   N3    1.487819 S    
C39   C41   1.522861 S    
C38   H12   1.110402 S    
O7    Zn2   2.001133 S    
N9    O18   1.301463 A    
C43   H15   1.106234 S    
C31   C36   1.526888 S    
C40   H14   1.110170 S    
C33   C38   1.543229 S    
N12   O24   1.301296 A    
C34   C37   1.542666 S    
C39   N4    1.487424 S    
N10   O20   1.301373 A    
O7    C3    1.299137 A    
O3    Zn2   1.990733 S    
O8    C4    1.300881 A    
C4    C24   1.467014 S    
C8    C10   1.394733 A    
C26   N10   1.434946 S    
N6    H20   1.044681 S    
C33   H7    1.110336 S    
C10   C12   1.409159 A    
C41   N5    1.455172 S    
C39   C43   1.544319 S    
C18   N8    1.434354 S    
C13   C18   1.418651 A    
C5    N1    1.366537 A    
O6    Zn2   2.003368 S    
Zn1   N3    2.028252 S    
C25   N9    1.435678 S    
C44   H16   1.110244 S    
O3    C1    1.283279 A    
O8    Zn1   2.001135 S    
N2    C8    1.362668 A    
C5    O9    1.348674 S    
C32   C35   1.526234 S    
C40   C44   1.545528 S    
C28   N12   1.438028 S    
C9    C11   1.408275 A    
C19   H3    1.083147 S    
C20   H4    1.083249 S    
C31   C37   1.543110 S    
C32   C38   1.543043 S    
C33   C35   1.526707 S    
C16   C18   1.394402 A    
N12   O23   1.301290 A    
N1    C7    1.363611 A    
C34   H8    1.109038 S    
C1    C36   1.417677 S    
C34   C36   1.526649 S    
C11   C13   1.417366 A    
C19   C21   1.381832 A    
N10   O19   1.301102 A    
O2    Zn2   1.985183 S    
C3    C23   1.461033 S    
C27   N11   1.437623 S    
N5    H17   1.044918 S    
O5    Zn1   2.003366 S    
O1    Zn1   1.985185 S    
N8    O15   1.300577 A    
C16   H2    1.083859 S    
C14   C17   1.418986 A    
C6    N2    1.365819 A    
N6    H19   1.044909 S    
C42   C43   1.522363 S    
C40   C42   1.523241 S    
C21   C23   1.402599 A    
