data_mof_unit_49960.cif
_audit_creation_date              2012-12-10T16:52:38-0500
_audit_creation_method            fapswitch 2.2
_symmetry_space_group_name_H-M    P1
_symmetry_Int_Tables_number       1
_space_group_crystal_system       triclinic
_cell_length_a                    12.960283
_cell_length_b                    10.904756
_cell_length_c                    9.796357
_cell_angle_alpha                 91.662087
_cell_angle_beta                  97.785802
_cell_angle_gamma                 90.371873
_cell_volume                      1371.09045416

loop_
_atom_site_label
_atom_site_type_symbol
_atom_type_description
_atom_site_fract_x
_atom_site_fract_y
_atom_site_fract_z
_atom_type_partial_charge
C1    C     C_R   0.497560 0.265806 0.497893 0.877377
C2    C     C_2   0.486814 0.134158 0.493283 -0.211043
C3    C     C_2   0.447380 0.422775 0.910195 0.086174
C4    C     C_R   0.300383 0.497508 0.472301 0.840501
C5    C     C_2   0.470352 0.407550 0.063742 0.520618
C6    C     C_R   0.505659 0.734432 0.502991 0.746330
C7    C     C_R   0.699075 0.498764 0.527529 0.865411
C8    C     C_R   0.812270 0.497845 0.545674 -0.193094
C9    C     C_R   0.186603 0.486374 0.454685 -0.211280
C10   C     C_R   0.027857 0.376704 0.359519 0.345261
C11   C     C_R   0.132302 0.408693 0.352463 0.349510
C12   C     C_R   0.026334 0.528806 0.549007 -0.023369
C13   C     C_R   0.133222 0.546973 0.550051 -0.257692
C14   C     C_3   0.620098 0.649133 0.894780 0.301785
C15   C     C_3   0.706313 0.692087 0.008960 -0.439540
C16   C     C_3   0.736287 0.826018 0.993522 -0.751369
C17   C     C_3   0.384313 0.650055 0.093180 0.106655
C18   C     C_3   0.371227 0.772413 0.020647 -0.409716
C19   C     C_3   0.266115 0.829620 0.035954 -0.779820
C20   C     C_3   0.153363 0.423120 0.126784 0.121488
C21   C     C_3   0.170390 0.342322 0.001974 -0.301166
C22   C     C_3   0.140480 0.408177 0.867397 -0.884128
C23   C     C_R   0.972341 0.438065 0.457225 -0.122825
C24   C     C_R   0.864847 0.417670 0.464645 0.391226
C25   C     C_R   0.866219 0.584978 0.634908 -0.273743
C26   C     C_R   0.972846 0.599280 0.639614 0.416074
C27   C     C_2   0.516158 0.931733 0.397965 -0.237597
C28   C     C_2   0.525120 0.865947 0.512935 0.235493
C29   C     C_2   0.528009 0.064975 0.400423 -0.026576
Cl1   Cl    Cl    0.792493 0.288815 0.387440 -0.489649
Cl2   Cl    Cl    0.453370 0.256501 0.113492 -0.634053
Cl3   Cl    Cl    0.973584 0.262833 0.237478 -0.487224
Cl4   Cl    Cl    0.034230 0.713143 0.755087 -0.659732
Cl5   Cl    Cl    0.575680 0.928309 0.678011 -0.639502
Cu1   Cu    Cu3+1 0.500020 0.500020 0.638640 1.005772
Cu2   Cu    Cu3+1 0.499980 0.499980 0.361360 1.055969
H1    H     H_    0.443863 0.093577 0.568667 0.186332
H2    H     H_    0.776169 0.634149 0.004787 0.239864
H3    H     H_    0.765550 0.838251 0.893259 0.287923
H4    H     H_    0.798824 0.854001 0.077823 0.275340
H5    H     H_    0.667981 0.885980 0.999638 0.281954
H6    H     H_    0.360095 0.661042 0.196729 0.189203
H7    H     H_    0.331615 0.582794 0.031273 0.084074
H8    H     H_    0.434333 0.837345 0.064238 0.241411
H9    H     H_    0.376472 0.757168 0.909143 0.232590
H10   H     H_    0.201860 0.765057 0.995512 0.283009
H11   H     H_    0.256961 0.915263 0.977083 0.286270
H12   H     H_    0.388116 0.365080 0.850694 0.096614
H13   H     H_    0.261202 0.852497 0.146124 0.247542
H14   H     H_    0.201171 0.507907 0.130419 0.116506
H15   H     H_    0.069980 0.451161 0.112748 0.160174
H16   H     H_    0.253129 0.316016 0.009978 0.236292
H17   H     H_    0.122612 0.257148 0.000344 0.272048
H18   H     H_    0.187262 0.493708 0.866286 0.258211
H19   H     H_    0.056415 0.430985 0.854672 0.288038
H20   H     H_    0.155479 0.347648 0.779258 0.268668
H21   H     H_    0.824605 0.644841 0.698369 0.187086
H22   H     H_    0.176524 0.609497 0.624920 0.222154
H23   H     H_    0.498492 0.886908 0.297188 0.160106
H24   H     H_    0.566555 0.106254 0.321114 0.228465
H25   H     H_    0.551894 0.710197 0.895620 0.160786
H26   H     H_    0.650919 0.659103 0.796274 0.165375
H27   H     H_    0.680265 0.681707 0.111478 0.271668
N1    N     N_2   0.498860 0.498660 0.846770 -0.030553
N2    N     N_2   0.498840 0.498630 0.152900 0.007602
O1    O     O_R   0.500020 0.321960 0.617050 -0.567187
O2    O     O_3   0.489505 0.612888 0.102014 -0.528936
O3    O     O_3   0.182633 0.357864 0.248836 -0.555446
O4    O     O_R   0.499980 0.321920 0.382890 -0.517276
O5    O     O_R   0.349010 0.500000 0.598060 -0.607130
O6    O     O_R   0.348980 0.499950 0.363910 -0.584640
O7    O     O_R   0.500020 0.678080 0.617110 -0.592047
O8    O     O_R   0.499980 0.678040 0.382950 -0.594109
O9    O     O_R   0.651020 0.500050 0.636090 -0.577266
O10   O     O_R   0.650990 0.500000 0.401940 -0.530967
O11   O     O_3   0.594630 0.525463 0.915847 -0.482274

loop_
_geom_bond_atom_site_label_1
_geom_bond_atom_site_label_2
_ccdc_geom_bond_type
C20   H14   S    
C23   C24   A    
Cu2   O6    S    
C15   H2    S    
C7    O10   A    
Cu1   N1    S    
Cu2   O10   S    
C18   H8    S    
C10   C23   A    
C21   H17   S    
C19   H13   S    
C26   Cl4   S    
Cu1   Cu2   S    
C12   C23   A    
C29   H24   S    
C3    C5    S    
C4    O5    A    
C17   C18   S    
N1    O11   S    
C19   H10   S    
C28   Cl5   S    
C7    C8    S    
Cu1   O9    S    
C25   C26   A    
C27   H23   S    
C21   C22   S    
C11   O3    S    
C6    O7    A    
C8    C25   A    
C9    C11   A    
C2    H1    S    
C22   H19   S    
C25   H21   S    
C16   H4    S    
C2    C29   D    
C14   O11   S    
C5    N2    D    
C8    C24   A    
Cu1   O7    S    
C1    C2    S    
C7    O9    A    
C19   H11   S    
C21   H16   S    
C20   H15   S    
C3    N1    D    
Cu2   O4    S    
C24   Cl1   S    
C17   O2    S    
C27   C29   S    
C10   C11   A    
C16   H3    S    
C15   C16   S    
C14   H26   S    
C18   H9    S    
C10   Cl3   S    
C3    H12   S    
C27   C28   D    
C1    O4    A    
C9    C13   A    
C20   C21   S    
C6    O8    A    
C22   H18   S    
C18   C19   S    
Cu2   O8    S    
C17   H7    S    
C15   H27   S    
Cu2   N2    S    
C22   H20   S    
C13   H22   S    
Cu1   O1    S    
C12   C13   A    
C4    C9    S    
C17   H6    S    
C14   H25   S    
N2    O2    S    
C16   H5    S    
C20   O3    S    
C4    O6    A    
C6    C28   S    
C14   C15   S    
Cu1   O5    S    
C12   C26   A    
C5    Cl2   S    
C1    O1    A    
