data_mof_unit_51534.cif
_audit_creation_date              2013-03-05T15:53:52-0500
_audit_creation_method            fapswitch 2.2
_symmetry_space_group_name_H-M    P1
_symmetry_Int_Tables_number       1
_space_group_crystal_system       triclinic
_cell_length_a                    15.547714
_cell_length_b                    15.419027
_cell_length_c                    19.305838
_cell_angle_alpha                 77.191287
_cell_angle_beta                  98.705512
_cell_angle_gamma                 111.622629
_cell_volume                      4183.04674499

loop_
_atom_site_label
_atom_site_type_symbol
_atom_site_description
_atom_site_fract_x
_atom_site_fract_y
_atom_site_fract_z
_atom_type_partial_charge
Zn1   Zn    Zn3+2 0.413740 0.413730 0.441720 0.977955
Zn2   Zn    Zn3+2 0.558890 0.431320 0.575310 0.999626
Zn3   Zn    Zn3+2 0.433530 0.561080 0.541290 0.968080
Zn4   Zn    Zn3+2 0.593840 0.593870 0.441680 0.987405
O1    O     O_3   0.500000 0.500000 0.500000 -0.496131
O2    O     O_R   0.716100 0.590510 0.475920 -0.648057
O3    O     O_R   0.289200 0.414810 0.442470 -0.608217
O4    O     O_R   0.514260 0.299330 0.569480 -0.638188
O5    O     O_R   0.480430 0.695350 0.512130 -0.631180
O6    O     O_R   0.533750 0.444440 0.667550 -0.627831
O7    O     O_R   0.573150 0.573190 0.344350 -0.619291
O8    O     O_R   0.446010 0.535260 0.643730 -0.646846
O9    O     O_R   0.447090 0.447110 0.344370 -0.589322
O10   O     O_R   0.412670 0.287020 0.475980 -0.659071
O11   O     O_R   0.592640 0.718300 0.442410 -0.630435
O12   O     O_R   0.691640 0.476740 0.569450 -0.638778
O13   O     O_R   0.303050 0.517940 0.512160 -0.654943
C1    C     C_R   0.746917 0.542013 0.528725 0.893611
C2    C     C_R   0.252212 0.457240 0.472885 0.807146
C3    C     C_R   0.454373 0.248977 0.528679 0.796294
C4    C     C_R   0.547199 0.751927 0.473505 0.856993
C5    C     C_R   0.488802 0.487256 0.688426 0.989330
C6    C     C_R   0.510728 0.514153 0.310294 0.858899
C7    C     C_R   0.510723 0.525025 0.232159 -0.269615
C8    C     C_R   0.453334 0.450403 0.196745 0.456370
C9    C     C_R   0.456107 0.461135 0.123315 -0.274442
C10   C     C_R   0.518789 0.541609 0.085398 -0.121080
C11   C     C_R   0.575660 0.617546 0.119315 -0.072975
C12   C     C_R   0.567139 0.611177 0.192177 0.446506
C13   C     C_R   0.600900 0.559434 0.863292 0.430786
C14   C     C_R   0.577448 0.567638 0.789167 -0.171906
C15   C     C_R   0.443971 0.419716 0.810993 0.333828
C16   C     C_R   0.467187 0.412974 0.884470 0.331856
C17   C     C_R   0.544087 0.483774 0.910260 -0.164788
C18   C     C_2   0.522219 0.543912 0.009045 0.452494
C19   C     C_2   0.556165 0.486204 0.986935 0.035913
C20   C     C_R   0.501379 0.494106 0.763517 -0.268726
H1    H     H_    0.410009 0.405605 0.095398 0.151441
C21   C     C_R   0.982423 0.584092 0.621702 -0.276691
H2    H     H_    0.134313 0.540804 0.660232 0.138350
H3    H     H_    0.019278 0.607531 0.670356 0.168678
C22   C     C_R   0.844756 0.555318 0.540856 -0.243843
C23   C     C_R   0.109434 0.420757 0.389468 0.500053
C24   C     C_R   0.029033 0.440620 0.362193 -0.307477
C25   C     C_R   0.987177 0.476385 0.401999 -0.224557
C26   C     C_R   0.019771 0.485787 0.473237 0.105219
C27   C     C_R   0.104487 0.471026 0.500185 0.012726
C28   C     C_R   0.973401 0.514538 0.517290 -0.008798
C29   C     C_R   0.020037 0.542954 0.582011 0.030137
C30   C     C_R   0.101460 0.525352 0.608584 -0.191431
C31   C     C_R   0.139394 0.483840 0.570507 -0.165088
C32   C     C_R   0.880439 0.511008 0.501903 0.346908
C33   C     C_R   0.897248 0.595472 0.599551 0.402114
C34   C     C_R   0.152845 0.445287 0.455810 -0.199652
H4    H     H_    0.930595 0.498358 0.375068 0.228570
H5    H     H_    0.000930 0.431791 0.308319 0.175344
H6    H     H_    0.196879 0.462945 0.597091 0.152891
C35   C     C_R   0.374750 0.990510 0.613715 0.554164
C36   C     C_R   0.435218 0.147397 0.542390 -0.144112
C37   C     C_R   0.609751 0.914293 0.398635 0.321808
C38   C     C_R   0.595240 0.000036 0.370451 0.428771
C39   C     C_R   0.533587 0.025396 0.401926 -0.196882
C40   C     C_R   0.511428 0.981301 0.473356 -0.043219
C41   C     C_R   0.526972 0.894963 0.501726 0.030486
C42   C     C_R   0.472019 0.018215 0.516910 0.043930
C43   C     C_R   0.432701 0.961143 0.580813 -0.027811
C44   C     C_R   0.454792 0.878668 0.610374 -0.050677
C45   C     C_R   0.504419 0.849395 0.571688 -0.212428
C46   C     C_R   0.478010 0.113292 0.501961 -0.290928
C47   C     C_R   0.380447 0.086202 0.597392 -0.157816
C48   C     C_R   0.565104 0.855687 0.459646 -0.278016
H7    H     H_    0.521221 0.163830 0.461547 0.140619
H8    H     H_    0.528095 0.791643 0.598081 0.185991
O14   O     O_3   0.386696 0.372633 0.232687 -0.620805
C49   C     C_3   0.396698 0.286188 0.228872 0.137720
H9    H     H_    0.407185 0.250073 0.284367 0.187111
H10   H     H_    0.457557 0.294288 0.200569 0.161885
C50   C     C_3   0.307428 0.223251 0.193705 -0.391577
H11   H     H_    0.246963 0.216853 0.221274 0.237272
H12   H     H_    0.298202 0.256209 0.137098 0.212487
C51   C     C_3   0.309447 0.124264 0.196882 -0.891915
H13   H     H_    0.371859 0.128669 0.172974 0.288131
H14   H     H_    0.246680 0.082824 0.166738 0.256765
H15   H     H_    0.309937 0.086608 0.252995 0.271025
O15   O     O_3   0.409104 0.343187 0.932104 -0.659763
C52   C     C_3   0.423890 0.256820 0.937369 0.119624
H16   H     H_    0.498779 0.267239 0.936790 0.111909
H17   H     H_    0.384231 0.221149 0.892389 0.207728
C53   C     C_3   0.389101 0.192658 0.007434 -0.368750
H18   H     H_    0.426565 0.229128 0.052549 0.230669
H19   H     H_    0.313803 0.178911 0.008111 0.233681
C54   C     C_3   0.404493 0.098320 0.017323 -0.923119
H20   H     H_    0.367746 0.060659 0.972709 0.276604
H21   H     H_    0.377042 0.052835 0.068000 0.268082
H22   H     H_    0.479761 0.110340 0.019528 0.266485
O16   O     O_3   0.862310 0.634297 0.642309 -0.637992
C55   C     C_3   0.838881 0.712550 0.602495 0.090689
H23   H     H_    0.762820 0.688876 0.588422 0.177261
H24   H     H_    0.875213 0.745059 0.552507 0.113114
C56   C     C_3   0.863992 0.788857 0.648209 -0.301333
H25   H     H_    0.828636 0.758140 0.698487 0.227896
H26   H     H_    0.940126 0.814440 0.662067 0.223125
C57   C     C_3   0.835205 0.872613 0.608947 -0.964326
H27   H     H_    0.871604 0.905813 0.559285 0.251886
H28   H     H_    0.853903 0.926597 0.643532 0.272648
H29   H     H_    0.759014 0.848832 0.595327 0.273455
O17   O     O_3   0.820684 0.455946 0.454478 -0.663075
C58   C     C_3   0.774540 0.362677 0.490784 0.119721
H30   H     H_    0.699551 0.343399 0.472857 0.156474
H31   H     H_    0.779488 0.355299 0.550036 0.138262
C59   C     C_3   0.811204 0.292113 0.471548 -0.376356
H32   H     H_    0.809360 0.301204 0.412692 0.232508
H33   H     H_    0.884118 0.305914 0.493924 0.229203
C60   C     C_3   0.753788 0.189837 0.501233 -0.970287
H34   H     H_    0.754371 0.178939 0.560109 0.282638
H35   H     H_    0.783401 0.140823 0.487630 0.253501
H36   H     H_    0.681204 0.172577 0.477662 0.261405
O18   O     O_3   0.152839 0.391418 0.346204 -0.613609
C61   C     C_3   0.103380 0.294968 0.341264 0.096699
H37   H     H_    0.114317 0.284411 0.288621 0.168350
H38   H     H_    0.026883 0.273932 0.343031 0.106723
C62   C     C_3   0.140808 0.229727 0.399651 -0.310258
H39   H     H_    0.215660 0.246699 0.394027 0.259390
H40   H     H_    0.133323 0.241369 0.452875 0.203848
C63   C     C_3   0.088669 0.125519 0.395108 -1.006172
H41   H     H_    0.013961 0.106410 0.402357 0.261519
H42   H     H_    0.117728 0.080288 0.437761 0.273301
H43   H     H_    0.095877 0.111464 0.342664 0.270875
C64   C     C_2   0.329894 0.122735 0.637112 0.455526
H44   H     H_    0.323720 0.191966 0.617549 0.015470
O19   O     O_2   0.295612 0.076955 0.692607 -0.511209
C65   C     C_2   0.631293 0.655438 0.741070 0.392009
H45   H     H_    0.679953 0.715290 0.763547 0.105120
O20   O     O_2   0.622391 0.663256 0.676344 -0.625274
C66   C     C_2   0.437989 0.826298 0.684332 0.440929
H46   H     H_    0.426552 0.750838 0.696658 0.045559
O21   O     O_2   0.442916 0.867381 0.732855 -0.513557
O22   O     O_3   0.311040 0.926483 0.660427 -0.559993
C67   C     C_3   0.236204 0.865979 0.622287 0.085525
H47   H     H_    0.200069 0.802537 0.661232 0.170323
H48   H     H_    0.259584 0.839057 0.582179 0.111227
C68   C     C_3   0.166567 0.914889 0.586759 -0.357029
H49   H     H_    0.141631 0.938406 0.627845 0.256211
H50   H     H_    0.200581 0.978123 0.546876 0.201998
C69   C     C_3   0.083659 0.848283 0.548946 -0.975290
H51   H     H_    0.106539 0.825639 0.506303 0.275657
H52   H     H_    0.034335 0.885424 0.524586 0.267129
H53   H     H_    0.047638 0.784883 0.587680 0.274093
O23   O     O_3   0.654350 0.881757 0.358824 -0.611940
C70   C     C_3   0.746517 0.897618 0.388334 0.094093
H54   H     H_    0.748916 0.866598 0.446260 0.134903
H55   H     H_    0.786875 0.974962 0.381072 0.120749
C71   C     C_3   0.791503 0.850672 0.349793 -0.250091
H56   H     H_    0.751345 0.773318 0.356424 0.267964
H57   H     H_    0.790204 0.881219 0.291993 0.228959
C72   C     C_3   0.891793 0.865483 0.378693 -0.986127
H58   H     H_    0.933816 0.942257 0.370631 0.268038
H59   H     H_    0.921868 0.829590 0.350145 0.284534
H60   H     H_    0.894900 0.834981 0.436284 0.256004
C73   C     C_2   0.479735 0.082354 0.355981 0.383313
H61   H     H_    0.416152 0.081425 0.373265 0.068871
O24   O     O_2   0.503121 0.128052 0.297418 -0.577751
O25   O     O_3   0.629653 0.049574 0.305608 -0.581937
C74   C     C_3   0.702211 0.134571 0.316709 0.132581
H62   H     H_    0.760074 0.119001 0.352363 0.094311
H63   H     H_    0.677408 0.179470 0.340904 0.168283
C75   C     C_3   0.738939 0.190460 0.245024 -0.282931
H64   H     H_    0.766995 0.147888 0.221293 0.215431
H65   H     H_    0.681176 0.204237 0.208255 0.256337
C76   C     C_3   0.815283 0.284928 0.253308 -0.975379
H66   H     H_    0.787644 0.330215 0.274229 0.280618
H67   H     H_    0.842163 0.322777 0.200702 0.277352
H68   H     H_    0.873325 0.272753 0.290363 0.245388
O26   O     O_3   0.366761 0.350742 0.785836 -0.643453
C77   C     C_3   0.293065 0.386455 0.763907 0.084194
H69   H     H_    0.250985 0.351285 0.719426 0.154435
H70   H     H_    0.316497 0.464307 0.742680 0.120513
C78   C     C_3   0.231085 0.362507 0.825034 -0.303983
H71   H     H_    0.207318 0.284836 0.845541 0.242977
H72   H     H_    0.271147 0.399747 0.869066 0.239975
C79   C     C_3   0.146777 0.392874 0.800605 -0.996974
H73   H     H_    0.169374 0.470976 0.782888 0.263558
H74   H     H_    0.102341 0.372855 0.845597 0.274489
H75   H     H_    0.105265 0.357428 0.756089 0.274345
C80   C     C_2   0.598439 0.420130 0.035045 0.298616
H76   H     H_    0.609395 0.365754 0.013955 0.069472
O27   O     O_2   0.624750 0.427401 0.097042 -0.571929
C81   C     C_2   0.644248 0.702101 0.078849 0.438069
H77   H     H_    0.641904 0.712893 0.021273 0.122209
O28   O     O_2   0.706147 0.759727 0.109265 -0.537439
O29   O     O_3   0.673696 0.630067 0.891275 -0.632952
C82   C     C_3   0.759918 0.624011 0.881931 0.029345
H78   H     H_    0.812094 0.696889 0.877299 0.178377
H79   H     H_    0.760150 0.598603 0.832182 0.132360
C83   C     C_3   0.790244 0.560728 0.946287 -0.330087
H80   H     H_    0.784916 0.582524 0.996184 0.253870
H81   H     H_    0.743931 0.485975 0.947019 0.199606
C84   C     C_3   0.889832 0.566949 0.942961 -0.919076
H82   H     H_    0.896477 0.544707 0.893672 0.267516
H83   H     H_    0.909156 0.519271 0.989756 0.266738
H84   H     H_    0.938406 0.640644 0.943828 0.266491
O30   O     O_3   0.611612 0.690770 0.223368 -0.576914
C85   C     C_3   0.547133 0.734297 0.228466 0.094329
H85   H     H_    0.545137 0.735076 0.285590 0.198031
H86   H     H_    0.474327 0.696905 0.208174 0.082223
C86   C     C_3   0.579199 0.836692 0.188149 -0.284962
H87   H     H_    0.649912 0.876048 0.209806 0.258574
H88   H     H_    0.581916 0.837141 0.130908 0.225685
C87   C     C_3   0.513351 0.887037 0.194490 -0.868590
H89   H     H_    0.443534 0.852173 0.169069 0.241605
H90   H     H_    0.540536 0.962154 0.167236 0.279801
H91   H     H_    0.507016 0.885440 0.251303 0.293537
O31   O     O_3   0.489952 0.606596 0.958341 -0.641793
C88   C     C_3   0.394343 0.584593 0.963523 0.058859
H92   H     H_    0.384784 0.615243 0.007624 0.152258
H93   H     H_    0.356057 0.506374 0.973112 0.145631
C89   C     C_3   0.353443 0.627692 0.893298 -0.292712
H94   H     H_    0.390928 0.705572 0.881948 0.258937
H95   H     H_    0.362640 0.596637 0.849332 0.215458
C90   C     C_3   0.250369 0.608633 0.895884 -0.959888
H96   H     H_    0.211503 0.531129 0.907425 0.267121
H97   H     H_    0.222429 0.638918 0.843605 0.271073
H98   H     H_    0.239916 0.642205 0.937719 0.272097

loop_
_geom_bond_atom_site_label_1
_geom_bond_atom_site_label_2
_geom_bond_distance
_ccdc_geom_bond_type
C85   H85   1.110795 S    
C40   C42   1.425351 A    
C67   H48   1.114885 S    
O25   C74   1.413479 S    
C86   C87   1.526931 S    
C78   C79   1.525498 S    
C23   C24   1.394671 A    
C55   C56   1.527486 S    
C90   H97   1.110513 S    
C55   H23   1.110907 S    
C66   H46   1.086082 S    
C77   H70   1.116434 S    
O15   C52   1.412491 S    
C24   C25   1.386343 A    
C89   C90   1.525685 S    
C85   H86   1.119005 S    
C14   C65   1.496151 S    
C11   C12   1.411198 A    
C9    C10   1.395451 A    
O4    C3    1.267510 A    
C4    C48   1.487682 S    
Zn1   O1    1.930312 S    
C41   C45   1.407811 A    
C74   H62   1.113212 S    
C8    O14   1.387779 S    
C11   C81   1.491043 S    
C22   C33   1.411441 A    
C13   C14   1.411615 A    
C67   C68   1.535916 S    
C52   H17   1.111993 S    
C79   H75   1.110958 S    
C76   H66   1.110912 S    
O8    C5    1.281028 A    
C87   H91   1.110059 S    
C58   H30   1.111540 S    
O9    C6    1.273603 A    
C81   O28   1.220880 D    
C19   C80   1.490554 S    
C41   C48   1.416622 A    
C16   O15   1.384028 S    
C7    C12   1.421745 A    
C56   H25   1.111060 S    
Zn3   O8    1.923294 S    
C55   H24   1.115155 S    
O26   C77   1.417777 S    
C72   H59   1.110251 S    
C35   C43   1.421890 A    
C59   H33   1.109856 S    
C59   H32   1.110872 S    
C32   O17   1.388559 S    
C58   H31   1.117806 S    
C65   H45   1.084427 S    
C70   C71   1.528483 S    
C63   H43   1.110924 S    
C6    C7    1.480360 S    
C84   H82   1.111015 S    
C31   H6    1.079826 S    
C53   H19   1.111834 S    
Zn2   O12   1.932218 S    
C17   C19   1.470771 S    
C50   C51   1.525611 S    
C83   C84   1.525994 S    
C35   O22   1.387109 S    
C79   H74   1.110259 S    
C43   C44   1.414784 A    
C71   H56   1.111973 S    
C38   O25   1.383614 S    
O18   C61   1.417729 S    
C33   O16   1.389013 S    
C74   H63   1.113927 S    
C68   C69   1.523537 S    
C54   H21   1.110311 S    
C90   H96   1.110591 S    
C51   H14   1.110277 S    
C69   H51   1.110781 S    
C77   C78   1.531797 S    
C61   H38   1.115340 S    
O2    C1    1.267349 A    
C85   C86   1.529576 S    
C26   C28   1.424060 A    
C15   C20   1.406909 A    
O30   C85   1.421312 S    
C69   H52   1.110097 S    
C40   C41   1.415743 A    
C44   C45   1.391924 A    
C45   H8    1.082463 S    
C82   C83   1.530454 S    
C78   H71   1.111515 S    
C7    C8    1.412439 A    
C75   H65   1.111907 S    
O14   C49   1.416320 S    
C75   H64   1.111730 S    
C13   C17   1.406195 A    
C86   H87   1.110602 S    
C9    H1    1.082904 S    
C27   C31   1.411959 A    
C36   C47   1.407244 A    
C37   C48   1.413878 A    
C10   C18   1.475175 S    
C8    C9    1.395745 A    
C79   H73   1.110232 S    
C5    C20   1.455301 S    
C15   O26   1.385508 S    
C88   C89   1.528089 S    
C54   H22   1.110947 S    
C51   H13   1.110127 S    
O29   C82   1.418185 S    
C15   C16   1.400219 A    
C14   C20   1.418764 A    
C81   H77   1.083862 S    
C53   C54   1.526158 S    
C18   C19   1.354697 D    
C82   H79   1.115734 S    
C57   H29   1.111407 S    
C56   C57   1.527071 S    
C46   H7    1.081943 S    
C44   C66   1.484992 S    
C49   H9    1.110866 S    
C39   C40   1.427621 A    
Zn3   O5    1.905185 S    
C70   H55   1.112037 S    
O10   C3    1.271057 A    
C18   O31   1.390420 S    
C24   H5    1.082852 S    
C23   C34   1.415617 A    
C60   H35   1.110467 S    
C87   H89   1.110764 S    
O31   C88   1.411765 S    
O17   C58   1.420945 S    
Zn4   O7    1.934693 S    
O16   C55   1.416801 S    
C84   H84   1.110835 S    
C56   H26   1.111371 S    
C30   C31   1.384212 A    
C61   H37   1.111034 S    
C57   H28   1.110184 S    
O12   C1    1.259345 A    
C13   O29   1.387917 S    
C3    C36   1.451968 S    
C49   H10   1.117441 S    
C25   H4    1.078017 S    
C36   C46   1.387584 A    
C27   C34   1.422093 A    
C75   C76   1.525707 S    
C2    C34   1.480661 S    
Zn4   O2    1.931310 S    
C28   C29   1.418912 A    
C89   H94   1.111709 S    
C42   C43   1.421470 A    
O3    C2    1.285823 A    
C63   H41   1.110977 S    
C39   C73   1.493602 S    
Zn2   O1    1.924211 S    
C71   H57   1.111125 S    
C62   H40   1.111277 S    
Zn2   O6    1.947703 S    
C57   H27   1.111155 S    
C51   H15   1.110226 S    
C69   H53   1.107992 S    
C52   H16   1.116677 S    
C64   H44   1.084953 S    
C61   C62   1.533390 S    
C66   O21   1.220790 D    
C26   C27   1.420677 A    
C72   H58   1.109741 S    
C12   O30   1.386754 S    
C22   C32   1.404823 A    
C21   C29   1.398603 A    
Zn1   O3    1.944774 S    
C72   H60   1.108315 S    
C35   C47   1.410725 A    
Zn4   O1    1.926049 S    
Zn3   O1    1.972307 S    
C52   C53   1.528002 S    
C78   H72   1.110358 S    
C67   H47   1.111111 S    
C60   H34   1.110686 S    
C89   H95   1.112461 S    
C70   H54   1.115403 S    
C58   C59   1.532002 S    
O6    C5    1.276670 A    
C73   H61   1.084495 S    
C62   C63   1.525655 S    
C1    C22   1.447191 S    
C53   H18   1.111900 S    
C88   H93   1.117336 S    
C77   H69   1.111081 S    
O23   C70   1.412161 S    
C82   H78   1.111029 S    
C50   H11   1.112030 S    
C71   C72   1.524962 S    
O5    C4    1.293527 A    
C80   H76   1.084144 S    
C21   C33   1.390661 A    
O11   C4    1.290244 A    
C76   H67   1.110252 S    
Zn4   O11   1.928725 S    
C42   C46   1.400364 A    
C88   H92   1.113015 S    
O7    C6    1.274330 A    
C54   H20   1.110755 S    
O13   C2    1.289840 A    
C16   C17   1.402856 A    
Zn3   O13   1.923598 S    
C59   C60   1.526067 S    
C50   H12   1.110484 S    
C37   O23   1.382716 S    
C74   C75   1.527017 S    
C38   C39   1.413825 A    
C49   C50   1.530788 S    
C60   H36   1.108302 S    
C80   O27   1.220629 D    
O22   C67   1.418294 S    
C23   O18   1.385957 S    
C83   H80   1.111742 S    
C25   C26   1.411587 A    
H2    C30   1.083218 S    
C28   C32   1.414029 A    
Zn1   O9    1.932722 S    
C21   H3    1.084543 S    
C65   O20   1.219967 D    
C29   C30   1.390803 A    
C47   C64   1.491110 S    
Zn2   O4    1.916557 S    
C10   C11   1.408272 A    
C63   H42   1.110650 S    
C87   H90   1.110548 S    
C68   H49   1.111374 S    
C37   C38   1.399485 A    
C84   H83   1.110409 S    
Zn1   O10   1.913445 S    
C64   O19   1.220858 D    
C62   H39   1.111694 S    
C86   H88   1.110662 S    
C90   H98   1.110762 S    
C68   H50   1.110659 S    
C73   O24   1.220395 D    
C83   H81   1.109686 S    
C76   H68   1.109611 S    
