data_mof_unit_51644.cif
_audit_creation_date              2013-03-05T16:19:42-0500
_audit_creation_method            fapswitch 2.2
_symmetry_space_group_name_H-M    P1
_symmetry_Int_Tables_number       1
_space_group_crystal_system       triclinic
_cell_length_a                    10.768367
_cell_length_b                    9.869662
_cell_length_c                    26.916793
_cell_angle_alpha                 89.676736
_cell_angle_beta                  93.393853
_cell_angle_gamma                 90.1775
_cell_volume                      2855.6470245

loop_
_atom_site_label
_atom_site_type_symbol
_atom_site_description
_atom_site_fract_x
_atom_site_fract_y
_atom_site_fract_z
_atom_type_partial_charge
O1    O     O_R   0.314910 0.616040 0.499990 -0.643952
O2    O     O_R   0.314910 0.383960 0.499990 -0.642925
C1    C     C_R   0.258639 0.499739 0.500984 0.866479
O3    O     O_R   0.500140 0.616020 0.428740 -0.624079
O4    O     O_R   0.500140 0.383980 0.428740 -0.617507
C2    C     C_R   0.504200 0.500693 0.405653 0.860222
Zn1   Zn    Zn3+2 0.500150 0.654960 0.499980 0.917748
Zn2   Zn    Zn3+2 0.500150 0.345040 0.499980 0.899294
O5    O     O_R   0.685320 0.616040 0.499970 -0.630784
O6    O     O_R   0.685320 0.383960 0.499970 -0.650175
O7    O     O_R   0.500090 0.616050 0.571230 -0.601407
O8    O     O_R   0.500090 0.383950 0.571230 -0.639718
C3    C     C_R   0.742286 0.499756 0.504916 0.912451
C4    C     C_R   0.501899 0.499550 0.594756 0.937816
C5    C     C_R   0.618985 0.627348 0.177285 0.550007
O9    O     O_2   0.536315 0.716279 0.193940 -0.489686
N1    N     N_R   0.652652 0.517366 0.205963 -0.359267
C6    C     C_R   0.724528 0.416276 0.188452 0.526586
C7    C     C_R   0.543740 0.400385 0.272418 -0.072867
C8    C     C_R   0.505555 0.396535 0.321152 -0.234886
C9    C     C_R   0.602950 0.615530 0.336617 -0.219416
C10   C     C_R   0.643567 0.617557 0.288700 -0.099516
C11   C     C_R   0.613666 0.510823 0.256099 0.284747
C12   C     C_R   0.724080 0.532925 0.108697 -0.123745
C13   C     C_R   0.665276 0.644566 0.129965 -0.135775
C14   C     C_R   0.648495 0.766232 0.102250 0.356763
C15   C     C_R   0.756524 0.417142 0.138161 -0.010313
C16   C     C_R   0.534270 0.504865 0.353354 -0.037540
H1    H     H_    0.628904 0.698993 0.361090 0.150223
H2    H     H_    0.698521 0.702549 0.276779 0.161756
C17   C     C_R   0.537182 0.497272 0.648548 -0.261624
C18   C     C_R   0.742567 0.654104 0.977247 0.070279
C19   C     C_R   0.772802 0.407384 0.981609 0.055661
C20   C     C_R   0.753867 0.527759 0.953358 0.085661
C21   C     C_R   0.742256 0.773397 0.947927 -0.206063
C22   C     C_R   0.737850 0.766683 0.896221 -0.115242
C23   C     C_R   0.729462 0.641058 0.872393 -0.048356
C24   C     C_R   0.739391 0.521235 0.900907 -0.058549
C25   C     C_R   0.728542 0.394801 0.877183 -0.027520
C26   C     C_R   0.692702 0.390758 0.826312 0.573051
N2    N     N_R   0.679163 0.508661 0.799422 -0.332983
C27   C     C_R   0.705181 0.631910 0.820827 0.578159
C28   C     C_R   0.511490 0.559882 0.734977 0.074803
C29   C     C_R   0.468551 0.562244 0.684377 0.294788
C30   C     C_R   0.648656 0.432782 0.663547 -0.236173
C31   C     C_R   0.698218 0.440087 0.712475 0.364021
C32   C     C_R   0.629894 0.503938 0.748588 0.115442
O10   O     O_2   0.701596 0.745358 0.792547 -0.501357
C33   C     C_R   0.724619 0.655293 0.028983 0.000174
C34   C     C_R   0.745975 0.535357 0.057372 0.077616
C35   C     C_R   0.783273 0.415483 0.034161 0.014827
C36   C     C_R   0.679026 0.770225 0.052607 -0.285149
H3    H     H_    0.734191 0.860449 0.875063 0.196739
H4    H     H_    0.745694 0.873239 0.964110 0.141114
H5    H     H_    0.660942 0.863745 0.032611 0.177945
O11   O     O_2   0.762524 0.315538 0.219683 -0.562692
C37   C     C_R   0.818261 0.307726 0.115877 0.189720
H6    H     H_    0.453678 0.309810 0.333601 0.152010
H7    H     H_    0.519272 0.317689 0.247418 0.169538
C38   C     C_R   0.771361 0.281974 0.956485 -0.204836
C39   C     C_R   0.746855 0.275861 0.905192 -0.110347
O12   O     O_2   0.668383 0.270415 0.804198 -0.519223
C40   C     C_R   0.826371 0.306581 0.064183 -0.185316
H8    H     H_    0.779532 0.186360 0.976092 0.143124
H9    H     H_    0.701422 0.383585 0.636182 0.229084
H10   H     H_    0.740085 0.177274 0.887716 0.189204
H11   H     H_    0.869940 0.220599 0.047734 0.146312
C41   C     C_3   0.078700 0.635060 0.529105 -0.154923
C42   C     C_3   0.081307 0.368300 0.533832 -0.076188
H12   H     H_    0.106773 0.718541 0.503918 0.150312
H13   H     H_    0.096648 0.280930 0.508760 0.147707
C43   C     C_3   0.934306 0.639570 0.527549 0.201210
C44   C     C_3   0.938398 0.374165 0.539046 0.165508
H14   H     H_    0.905133 0.715802 0.498387 0.078755
H15   H     H_    0.899354 0.282102 0.519842 0.091051
H16   H     H_    0.087280 0.582860 0.430079 0.188891
H17   H     H_    0.095466 0.401945 0.431923 0.189827
H18   H     H_    0.876227 0.564288 0.429540 0.196081
H19   H     H_    0.886052 0.385079 0.438490 0.204089
C45   C     C_3   0.061869 0.491872 0.451992 -0.531055
C46   C     C_3   0.123497 0.498885 0.505523 0.072543
C47   C     C_3   0.880167 0.499620 0.508647 -0.106137
C48   C     C_3   0.919450 0.483898 0.454063 -0.527943
C49   C     C_3   0.376397 0.080678 0.479357 0.099295
C50   C     C_3   0.378692 0.917964 0.477030 0.097745
H20   H     H_    0.305663 0.108138 0.506162 0.106998
H21   H     H_    0.303055 0.882183 0.500445 0.116842
H22   H     H_    0.576969 0.111539 0.427774 0.163281
H23   H     H_    0.601599 0.876868 0.432939 0.155776
C51   C     C_3   0.595461 0.080611 0.467175 -0.229100
C52   C     C_3   0.602119 0.920967 0.470747 -0.259118
C53   C     C_3   0.523916 0.082458 0.550162 0.016750
C54   C     C_3   0.513302 0.920944 0.550914 -0.014843
N3    N     N_3   0.499750 0.138610 0.498940 -0.068345
N4    N     N_3   0.499750 0.861390 0.498940 -0.072441
H24   H     H_    0.451125 0.122525 0.573848 0.147466
H25   H     H_    0.425927 0.897882 0.569669 0.152466
H26   H     H_    0.688391 0.124792 0.477136 0.157890
H27   H     H_    0.693706 0.891893 0.488801 0.162125
C55   C     C_3   0.874827 0.189798 0.145070 -0.709116
H28   H     H_    0.801382 0.131703 0.162861 0.308265
H29   H     H_    0.923166 0.118129 0.121117 0.207488
H30   H     H_    0.944961 0.227356 0.173661 0.250672
N5    N     N_R   0.818649 0.383454 0.725139 0.263080
O13   O     O_R   0.847412 0.264618 0.708730 -0.262372
O14   O     O_R   0.900417 0.450484 0.752843 -0.321772
C56   C     C_3   0.143681 0.671552 0.579878 -0.589219
H31   H     H_    0.096012 0.627185 0.611214 0.322921
H32   H     H_    0.241330 0.637679 0.582704 0.235300
H33   H     H_    0.145193 0.783264 0.584669 0.252584
C57   C     C_3   0.160158 0.328590 0.582109 -0.712523
H34   H     H_    0.172428 0.413046 0.608483 0.286291
H35   H     H_    0.117081 0.241720 0.601009 0.285032
H36   H     H_    0.253892 0.291925 0.574382 0.219523
N6    N     N_R   0.885596 0.691404 0.573812 0.216738
O15   O     O_R   0.910013 0.816095 0.586612 -0.404675
O16   O     O_R   0.803469 0.625020 0.597863 -0.396254
N7    N     N_R   0.907217 0.361097 0.591359 0.205719
O17   O     O_R   0.879916 0.240652 0.607154 -0.404027
O18   O     O_R   0.951567 0.445992 0.624614 -0.295128
C58   C     C_3   0.325711 0.145969 0.429588 -0.819828
H37   H     H_    0.227624 0.114576 0.421505 0.198581
H38   H     H_    0.320344 0.256235 0.430363 0.277860
H39   H     H_    0.380716 0.117833 0.397736 0.229233
C59   C     C_3   0.340075 0.858179 0.425195 -0.800569
H40   H     H_    0.323954 0.748523 0.426958 0.271050
H41   H     H_    0.247969 0.896787 0.411301 0.202899
H42   H     H_    0.408635 0.880698 0.397146 0.235684
C60   C     C_3   0.647714 0.136358 0.573989 -0.688552
H43   H     H_    0.728557 0.084627 0.558864 0.242365
H44   H     H_    0.662637 0.243077 0.566577 0.282716
H45   H     H_    0.649471 0.125238 0.615143 0.251387
C61   C     C_3   0.614607 0.850162 0.585000 -0.593149
H46   H     H_    0.690495 0.910049 0.602825 0.251673
H47   H     H_    0.573253 0.801670 0.617460 0.257969
H48   H     H_    0.660767 0.776647 0.562623 0.297839
N8    N     N_R   0.606619 0.889024 0.124293 0.239380
O19   O     O_R   0.532046 0.970403 0.098779 -0.378254
O20   O     O_R   0.658889 0.930616 0.166306 -0.375235
N9    N     N_R   0.353822 0.627570 0.670174 0.170985
O21   O     O_R   0.250277 0.571064 0.681957 -0.385597
O22   O     O_R   0.354780 0.756034 0.659175 -0.413695
C62   C     C_3   0.429030 0.615846 0.773634 -0.647931
H49   H     H_    0.337257 0.564309 0.770825 0.269965
H50   H     H_    0.466098 0.599029 0.812387 0.194938
H51   H     H_    0.415638 0.726308 0.767541 0.272869

loop_
_geom_bond_atom_site_label_1
_geom_bond_atom_site_label_2
_geom_bond_distance
_ccdc_geom_bond_type
C62   H51   1.110158 S    
C51   N3    1.494816 S    
C44   H15   1.116599 S    
N2    C27   1.369976 A    
C28   C62   1.514986 S    
C21   C22   1.391701 A    
C12   C15   1.419976 A    
C4    C17   1.475083 S    
C14   N8    1.437813 S    
N5    O14   1.301246 A    
C61   H46   1.095964 S    
C30   C31   1.393608 A    
Zn1   O7    1.953807 S    
N8    O20   1.301003 A    
C43   N6    1.474333 S    
N1    C11   1.437896 S    
C41   C46   1.578568 S    
C22   C23   1.399366 A    
N9    O22   1.300525 A    
C54   C61   1.548813 S    
C45   C48   1.539672 S    
O4    C2    1.307601 A    
O7    C4    1.309160 A    
C5    C13   1.404236 A    
C62   H49   1.108852 S    
C53   H24   1.114086 S    
C26   O12   1.349538 S    
C5    N1    1.365801 A    
C23   C27   1.400478 A    
C42   H13   1.116658 S    
O5    C3    1.305443 A    
N7    O17   1.298945 A    
C53   C54   1.597926 S    
C58   H39   1.107631 S    
C22   H3    1.083491 S    
C50   C59   1.551411 S    
H18   C48   1.114409 S    
C2    C16   1.463378 S    
C7    C8    1.398016 A    
N6    O16   1.299967 A    
C1    C46   1.467553 S    
C61   H48   1.085788 S    
C56   H31   1.101088 S    
C42   C44   1.554825 S    
C41   C56   1.542034 S    
Zn2   O8    1.958057 S    
H23   C52   1.108813 S    
C36   H5    1.078277 S    
C6    O11   1.347222 S    
C60   H45   1.111594 S    
C54   N4    1.519370 S    
O1    Zn1   2.030228 S    
C9    C10   1.386221 A    
C21   H4    1.079284 S    
C56   H32   1.102573 S    
O3    Zn1   1.957806 S    
C39   H10   1.083525 S    
C53   N3    1.491834 S    
N5    O13   1.300364 A    
C34   C35   1.411517 A    
C50   H21   1.114366 S    
C12   C34   1.415237 A    
C25   C39   1.399699 A    
C40   H11   1.080546 S    
C17   C29   1.407744 A    
C18   C21   1.413615 A    
C35   C40   1.404459 A    
C49   C50   1.607831 S    
C43   H14   1.116463 S    
C15   C37   1.423695 A    
C25   C26   1.401229 A    
C27   O10   1.349736 S    
C8    C16   1.402389 A    
C7    H7    1.082717 S    
C49   C58   1.553588 S    
C37   C55   1.510155 S    
C31   N5    1.435423 S    
C3    C47   1.482209 S    
C55   H30   1.110273 S    
C38   C39   1.391805 A    
O1    C1    1.297196 A    
C18   C20   1.415097 A    
C7    C11   1.405944 A    
C28   C29   1.412279 A    
C23   C24   1.407093 A    
C14   C36   1.395153 A    
C59   H42   1.107947 S    
N6    O15   1.301705 A    
C41   C43   1.553733 S    
C33   C36   1.407370 A    
C55   H29   1.110921 S    
N1    C6    1.367462 A    
N2    C32   1.438915 S    
Zn2   N3    2.037733 S    
C57   H35   1.108893 S    
C49   N3    1.511606 S    
C12   C13   1.413206 A    
C58   H37   1.109281 S    
O3    C2    1.301989 A    
C26   N2    1.370517 A    
C9    C16   1.404197 A    
H22   C51   1.108744 S    
C47   C48   1.561475 S    
C19   C38   1.413399 A    
C30   H9    1.075376 S    
C59   H40   1.096777 S    
C56   H33   1.110758 S    
C8    H6    1.083045 S    
C54   H25   1.116037 S    
C44   C47   1.590120 S    
C59   H41   1.107066 S    
C60   H43   1.109641 S    
H17   C45   1.114001 S    
C62   H50   1.106374 S    
C31   C32   1.406319 A    
C44   N7    1.471636 S    
C10   H2    1.083131 S    
C57   H34   1.100507 S    
C20   C24   1.412991 A    
Zn2   O6    2.029487 S    
O2    Zn2   2.032566 S    
C6    C15   1.416424 A    
H16   C45   1.113925 S    
C37   C40   1.399440 A    
O8    C4    1.307540 A    
C45   C46   1.552074 S    
O6    C3    1.299180 A    
O4    Zn2   1.953554 S    
C19   C35   1.415053 A    
Zn1   N4    2.037444 S    
N8    O19   1.301567 A    
C38   H8    1.079913 S    
C53   C60   1.539385 S    
C13   C14   1.416461 A    
H19   C48   1.113957 S    
C50   N4    1.506220 S    
C51   C52   1.579619 S    
C24   C25   1.406354 A    
C9    H1    1.083287 S    
N9    O21   1.300334 A    
C55   H28   1.105680 S    
C19   C20   1.415722 A    
C29   N9    1.426329 S    
C57   H36   1.104990 S    
C42   C57   1.558472 S    
N7    O18   1.298755 A    
C18   C33   1.417325 A    
C58   H38   1.090380 S    
C42   C46   1.573018 S    
C52   N4    1.492235 S    
Zn1   O5    2.031825 S    
C41   H12   1.116364 S    
C33   C34   1.417261 A    
C17   C30   1.397680 A    
C61   H47   1.109396 S    
C10   C11   1.399386 A    
C49   H20   1.114790 S    
O2    C1    1.296229 A    
C52   H27   1.111125 S    
C28   C32   1.418277 A    
C51   H26   1.109184 S    
C43   C47   1.573031 S    
C5    O9    1.349226 S    
C60   H44   1.084159 S    
