data_mof_unit_12336.cif
_audit_creation_date              2012-12-10T18:21:55-0500
_audit_creation_method            fapswitch 2.2
_symmetry_space_group_name_H-M    P1
_symmetry_Int_Tables_number       1
_space_group_crystal_system       triclinic
_cell_length_a                    19.367516
_cell_length_b                    10.60586
_cell_length_c                    9.401607
_cell_angle_alpha                 90.526867
_cell_angle_beta                  91.290021
_cell_angle_gamma                 89.956451
_cell_volume                      1930.60483903

loop_
_atom_site_label
_atom_site_type_symbol
_atom_type_description
_atom_site_fract_x
_atom_site_fract_y
_atom_site_fract_z
_atom_type_partial_charge
C1    C     C_R   0.500160 0.259486 0.499205 0.834031
C2    C     C_3   0.500917 0.038480 0.362455 -0.274052
C3    C     C_3   0.529117 0.600760 0.053035 -0.028606
C4    C     C_3   0.470802 0.399376 0.947024 -0.044555
C5    C     C_3   0.466890 0.596613 0.948714 -0.033829
C6    C     C_3   0.533137 0.403525 0.051278 -0.054769
C7    C     C_3   0.562326 0.504319 0.952731 -0.062495
C8    C     C_3   0.437650 0.496079 0.047294 -0.064325
C9    C     C_R   0.367488 0.498450 0.498443 0.843051
C10   C     C_R   0.632575 0.498422 0.501413 0.843677
C11   C     C_R   0.255702 0.537876 0.614808 -0.273842
C12   C     C_R   0.499935 0.740522 0.500765 0.839133
C13   C     C_R   0.743629 0.526088 0.378821 -0.251522
C14   C     C_R   0.183992 0.542604 0.612069 -0.238735
C15   C     C_R   0.815291 0.530152 0.378715 -0.257812
C16   C     C_R   0.145900 0.512003 0.487527 -0.079749
C17   C     C_R   0.853819 0.514779 0.505151 -0.074627
C18   C     C_R   0.181564 0.477054 0.363411 0.372264
C19   C     C_R   0.819527 0.492845 0.633246 0.348020
C20   C     C_R   0.253917 0.462240 0.370325 0.319553
C21   C     C_R   0.747356 0.475216 0.630356 0.328686
C22   C     C_R   0.291410 0.498981 0.494284 -0.162957
C23   C     C_3   0.556922 0.042922 0.572190 -0.318735
C24   C     C_R   0.708753 0.499682 0.504247 -0.170220
C25   C     C_R   0.929612 0.517212 0.500062 0.460960
C26   C     C_R   0.069503 0.515548 0.490612 0.442398
C27   C     C_3   0.156571 0.540403 0.134096 0.097069
C28   C     C_3   0.097220 0.635811 0.133233 -0.362573
C29   C     C_3   0.103625 0.730120 0.012697 -0.920966
C30   C     C_3   0.849911 0.589573 0.841914 0.090918
C31   C     C_3   0.900453 0.584590 0.968828 -0.308580
C32   C     C_3   0.897129 0.705097 0.058578 -0.955926
C33   C     C_3   0.284215 0.282605 0.253513 0.083771
C34   C     C_3   0.443328 0.957049 0.427667 -0.308866
C35   C     C_3   0.331603 0.229955 0.139501 -0.333869
C36   C     C_3   0.321904 0.088168 0.119560 -0.948381
C37   C     C_3   0.724311 0.303022 0.763553 0.089892
C38   C     C_3   0.677688 0.253133 0.879288 -0.353119
C39   C     C_3   0.692829 0.114972 0.911757 -0.947620
C40   C     C_3   0.659949 0.995437 0.332263 0.061312
C41   C     C_3   0.719753 0.933611 0.255895 -0.788358
C42   C     C_3   0.344079 0.005463 0.681817 0.047805
C43   C     C_3   0.277001 0.065425 0.729445 -0.776717
C44   C     C_3   0.556143 0.957682 0.438694 0.523961
C45   C     C_3   0.444056 0.042353 0.560984 0.523212
C46   C     C_3   0.499622 0.877281 0.502495 -0.087366
C47   C     C_3   0.500600 0.122754 0.497314 -0.088112
C48   C     C_3   0.499252 0.961540 0.637379 -0.276854
Cu1   Cu    Cu3+1 0.500020 0.499990 0.643150 0.950886
Cu2   Cu    Cu3+1 0.499980 0.500010 0.356850 0.947797
H1    H     H_    0.283253 0.565065 0.711859 0.175119
H2    H     H_    0.502374 0.072737 0.251311 0.150794
H3    H     H_    0.438932 0.677668 0.900509 0.103282
H4    H     H_    0.560892 0.322296 0.099578 0.110388
H5    H     H_    0.553863 0.685281 0.102560 0.137881
H6    H     H_    0.446120 0.314734 0.897629 0.138586
H7    H     H_    0.157341 0.492005 0.028812 0.169591
H8    H     H_    0.206874 0.591052 0.146479 0.139529
H9    H     H_    0.047408 0.584860 0.119882 0.251547
H10   H     H_    0.097162 0.687860 0.236353 0.214429
H11   H     H_    0.153313 0.782039 0.022896 0.251820
H12   H     H_    0.715566 0.543042 0.279852 0.185685
H13   H     H_    0.060545 0.799080 0.017216 0.269369
H14   H     H_    0.100756 0.680634 0.908167 0.262230
H15   H     H_    0.796487 0.597432 0.882458 0.164478
H16   H     H_    0.861786 0.675155 0.778646 0.138853
H17   H     H_    0.887960 0.502320 0.035932 0.223920
H18   H     H_    0.953829 0.572509 0.929843 0.247810
H19   H     H_    0.913281 0.787436 0.995209 0.265952
H20   H     H_    0.932438 0.696881 0.152721 0.267052
H21   H     H_    0.843816 0.720966 0.096170 0.255322
H22   H     H_    0.230305 0.251548 0.229049 0.181698
H23   H     H_    0.614793 0.510760 0.909024 0.170732
H24   H     H_    0.301407 0.243571 0.358407 0.146801
H25   H     H_    0.320285 0.277226 0.036526 0.215750
H26   H     H_    0.386233 0.249385 0.171242 0.229641
H27   H     H_    0.328890 0.039500 0.222670 0.261128
H28   H     H_    0.360519 0.051314 0.044160 0.255892
H29   H     H_    0.269312 0.067587 0.075863 0.260217
H30   H     H_    0.778993 0.281932 0.793646 0.188927
H31   H     H_    0.710572 0.252767 0.661923 0.103797
H32   H     H_    0.685739 0.309713 0.978402 0.218602
H33   H     H_    0.622852 0.262555 0.843459 0.225608
H34   H     H_    0.385046 0.494916 0.090982 0.168692
H35   H     H_    0.688362 0.056318 0.813621 0.256798
H36   H     H_    0.655220 0.080018 0.989537 0.256415
H37   H     H_    0.745764 0.104913 0.958201 0.263401
H38   H     H_    0.681306 0.048180 0.426213 0.135599
H39   H     H_    0.634169 0.062566 0.257717 0.133347
H40   H     H_    0.700242 0.881715 0.160020 0.243926
H41   H     H_    0.756877 0.006797 0.222580 0.205632
H42   H     H_    0.746926 0.866475 0.327889 0.254370
H43   H     H_    0.370752 0.963920 0.776423 0.137477
H44   H     H_    0.330933 0.929272 0.603457 0.136017
H45   H     H_    0.158426 0.570650 0.708508 0.174120
H46   H     H_    0.248118 0.103876 0.636065 0.244624
H47   H     H_    0.244570 0.993742 0.781489 0.201148
H48   H     H_    0.288158 0.143337 0.806224 0.256420
H49   H     H_    0.840722 0.547690 0.279655 0.184542
H50   H     H_    0.603102 0.082443 0.628168 0.143902
H51   H     H_    0.397249 0.916042 0.372630 0.138816
H52   H     H_    0.497830 0.927257 0.748495 0.147621
N1    N     N_R   0.030510 0.470656 0.379702 -0.187470
N2    N     N_R   0.968337 0.561984 0.611321 -0.210403
N3    N     N_R   0.961976 0.472010 0.383864 -0.260356
N4    N     N_R   0.036908 0.561302 0.606622 -0.267244
N5    N     N_3   0.500050 0.499970 0.858290 -0.151517
N6    N     N_3   0.499950 0.500030 0.141710 -0.152039
O1    O     O_R   0.500030 0.316850 0.620870 -0.570144
O2    O     O_3   0.856942 0.478489 0.759189 -0.604189
O3    O     O_3   0.288042 0.415587 0.253377 -0.624868
O4    O     O_3   0.714720 0.434732 0.751083 -0.619656
O5    O     O_3   0.613843 0.901066 0.375090 -0.583803
O6    O     O_3   0.385613 0.099034 0.621517 -0.589933
O7    O     O_R   0.499970 0.683150 0.379130 -0.567672
O8    O     O_R   0.500000 0.316860 0.379090 -0.605173
O9    O     O_R   0.500000 0.683140 0.620910 -0.600216
O10   O     O_R   0.400160 0.499980 0.620930 -0.588386
O11   O     O_R   0.599840 0.500020 0.379070 -0.590267
O12   O     O_R   0.400130 0.499990 0.379150 -0.548219
O13   O     O_R   0.599870 0.500010 0.620850 -0.544229
O14   O     O_3   0.145630 0.447173 0.238414 -0.599775

loop_
_geom_bond_atom_site_label_1
_geom_bond_atom_site_label_2
_ccdc_geom_bond_type
C29   H13   S    
C38   H33   S    
C42   H43   S    
C6    C7    S    
C35   C36   S    
C43   H48   S    
C39   H37   S    
C4    C8    S    
C10   O13   A    
C26   N4    A    
N2    N4    A    
C25   N3    A    
Cu1   N5    S    
C31   H17   S    
C35   H25   S    
C30   O2    S    
Cu2   O12   S    
C5    H3    S    
C28   C29   S    
C19   C21   A    
C3    C7    S    
C36   H27   S    
C30   C31   S    
C33   C35   S    
C11   C14   A    
C9    C22   S    
C19   O2    S    
Cu2   O7    S    
C37   O4    S    
C10   O11   A    
C33   H22   S    
C1    O1    A    
C3    H5    S    
C45   O6    S    
C42   O6    S    
Cu1   O9    S    
C13   H12   S    
Cu1   O10   S    
C2    C44   S    
C34   C46   S    
C1    O8    A    
C40   H39   S    
Cu2   O8    S    
C12   O7    A    
C2    C34   S    
C45   C47   S    
C41   H40   S    
C29   H14   S    
Cu1   O13   S    
C42   H44   S    
C38   H32   S    
Cu2   N6    S    
C9    O10   A    
C37   H31   S    
C28   H9    S    
C6    H4    S    
C8    N6    S    
C37   H30   S    
C27   O14   S    
C44   C46   S    
C32   H21   S    
C46   C48   S    
C28   H10   S    
C16   C26   S    
C31   H18   S    
C4    N5    S    
C29   H11   S    
C35   H26   S    
C34   H51   S    
C23   C47   S    
Cu2   O11   S    
C7    H23   S    
C27   H7    S    
C1    C47   S    
C32   H20   S    
C10   C24   S    
C36   H29   S    
C23   C44   S    
C13   C24   A    
C37   C38   S    
C26   N1    A    
C20   O3    S    
C40   O5    S    
C48   H52   S    
C43   H46   S    
N1    N3    A    
C34   C45   S    
C30   H16   S    
C2    H2    S    
C18   O14   S    
C33   O3    S    
C12   C46   S    
C40   C41   S    
C41   H41   S    
C20   C22   A    
C44   O5    S    
C13   C15   A    
C2    C47   S    
C7    N5    S    
C4    C6    S    
C42   C43   S    
C39   H35   S    
C14   H45   S    
C21   O4    S    
Cu1   O1    S    
C5    N5    S    
C45   C48   S    
C15   C17   A    
C23   C48   S    
C14   C16   A    
C8    H34   S    
C31   C32   S    
C43   H47   S    
C15   H49   S    
C3    C5    S    
C27   H8    S    
C5    C8    S    
C25   N2    A    
C32   H19   S    
C3    N6    S    
C11   C22   A    
C17   C25   S    
C40   H38   S    
C36   H28   S    
C38   C39   S    
C17   C19   A    
C23   H50   S    
C18   C20   A    
C30   H15   S    
C11   H1    S    
C12   O9    A    
C33   H24   S    
C41   H42   S    
C16   C18   A    
Cu1   Cu2   S    
C21   C24   A    
C27   C28   S    
C9    O12   A    
C6    N6    S    
C39   H36   S    
C4    H6    S    
