data_mof_unit_5371.cif
_audit_creation_date              2012-12-10T17:32:23-0500
_audit_creation_method            fapswitch 2.2
_symmetry_space_group_name_H-M    P1
_symmetry_Int_Tables_number       1
_space_group_crystal_system       triclinic
_cell_length_a                    15.546943
_cell_length_b                    15.479864
_cell_length_c                    15.554943
_cell_angle_alpha                 91.395657
_cell_angle_beta                  72.117299
_cell_angle_gamma                 111.777501
_cell_volume                      3291.36709494

loop_
_atom_site_label
_atom_site_type_symbol
_atom_type_description
_atom_site_fract_x
_atom_site_fract_y
_atom_site_fract_z
_atom_type_partial_charge
C1    C     C_R   0.461634 0.258041 0.464237 0.506828
C2    C     C_R   0.529743 0.505680 0.113190 -0.114815
C3    C     C_R   0.610634 0.669279 0.130081 -0.113517
C4    C     C_R   0.534112 0.741229 0.536752 0.493973
C5    C     C_R   0.431573 0.424423 0.838741 0.026312
C6    C     C_R   0.314381 0.005703 0.464873 0.211254
C7    C     C_R   0.439896 0.159247 0.454865 -0.018659
C8    C     C_R   0.637125 0.895649 0.568210 -0.147919
C9    C     C_R   0.661648 0.990996 0.572351 -0.110122
C10   C     C_R   0.605345 0.034546 0.552121 0.108556
C11   C     C_R   0.521404 0.981899 0.526972 0.038562
C12   C     C_R   0.386346 0.299943 0.955063 -0.121034
C13   C     C_R   0.489631 0.882828 0.535585 0.009029
C14   C     C_R   0.465736 0.022960 0.496903 0.000768
C15   C     C_R   0.372175 0.965059 0.490503 0.025448
C16   C     C_R   0.756198 0.551496 0.463180 0.500008
C17   C     C_R   0.337534 0.868470 0.512321 -0.097968
C18   C     C_R   0.394995 0.828296 0.534047 -0.121640
C19   C     C_R   0.500512 0.119663 0.471921 -0.124299
C20   C     C_R   0.347832 0.102776 0.450758 -0.099701
C21   C     C_R   0.551838 0.840535 0.549208 0.014418
C22   C     C_R   0.018512 0.612286 0.333373 -0.088542
C23   C     C_R   0.430722 0.364364 0.007600 -0.103658
C24   C     C_R   0.859138 0.570448 0.445425 0.043315
C25   C     C_R   0.072176 0.382661 0.641781 0.130238
C26   C     C_R   0.976352 0.378465 0.671387 0.210375
C27   C     C_R   0.945796 0.425137 0.618589 -0.134693
C28   C     C_R   0.242736 0.448392 0.535347 0.505063
C29   C     C_R   0.008326 0.472399 0.532263 -0.014710
C30   C     C_R   0.103338 0.469724 0.499249 -0.008387
C31   C     C_R   0.979359 0.521470 0.477068 0.049176
C32   C     C_R   0.044893 0.564085 0.389357 0.066139
C33   C     C_R   0.134213 0.554207 0.355975 -0.112905
C34   C     C_R   0.474055 0.461371 0.978671 0.038183
C35   C     C_R   0.161707 0.505543 0.408830 -0.095267
C36   C     C_R   0.886445 0.527431 0.504380 -0.105733
C37   C     C_R   0.925537 0.614150 0.360761 -0.095702
C38   C     C_R   0.137446 0.430358 0.557041 -0.024809
C39   C     C_R   0.551579 0.551753 0.259248 0.494059
C40   C     C_R   0.448313 0.450102 0.742575 0.499061
C41   C     C_R   0.606526 0.694581 0.046979 -0.117584
C42   C     C_R   0.570887 0.575173 0.163726 0.040632
C43   C     C_R   0.387732 0.329309 0.870935 -0.107042
C44   C     C_R   0.469170 0.491603 0.895196 0.031857
C45   C     C_R   0.521540 0.529499 0.029885 0.035067
C46   C     C_R   0.560020 0.626020 0.997967 0.048849
C47   C     C_R   0.547708 0.653974 0.919794 -0.126483
C48   C     C_R   0.500861 0.588127 0.870542 -0.107690
F1    F     F_    0.629538 0.125998 0.566423 -0.180421
F2    F     F_    0.102688 0.343621 0.697974 -0.121885
H1    H     H_    0.640783 0.723360 0.170264 0.123799
H2    H     H_    0.572848 0.727520 0.897395 0.121488
H3    H     H_    0.831142 0.494329 0.568130 0.110744
H4    H     H_    0.872404 0.422466 0.646802 0.157716
H5    H     H_    0.228572 0.494726 0.376472 0.147594
H6    H     H_    0.635696 0.768145 0.023009 0.125740
H7    H     H_    0.499236 0.434664 0.143807 0.103495
H8    H     H_    0.357765 0.276861 0.829344 0.151980
H9    H     H_    0.429079 0.335630 0.070656 0.113702
H10   H     H_    0.353344 0.226130 0.978544 0.137470
H11   H     H_    0.488037 0.614540 0.814007 0.147215
H12   H     H_    0.265532 0.822097 0.512949 0.207062
H13   H     H_    0.301256 0.135308 0.438544 0.160673
H14   H     H_    0.258495 0.890790 0.326159 0.339281
H15   H     H_    0.886940 0.181364 0.739333 0.338811
H16   H     H_    0.573106 0.166820 0.467809 0.157129
H17   H     H_    0.685316 0.864946 0.579987 0.156187
H18   H     H_    0.725574 0.031882 0.590940 0.145631
H19   H     H_    0.361977 0.753776 0.553232 0.153770
H20   H     H_    0.903749 0.646123 0.314293 0.124086
H21   H     H_    0.182428 0.582568 0.287557 0.116565
H22   H     H_    0.068238 0.644735 0.266510 0.124936
O1    O     O_3   0.500000 0.500000 0.500000 -0.448495
O2    O     O_R   0.588830 0.499590 0.285390 -0.533726
O3    O     O_R   0.395900 0.395880 0.699370 -0.533857
O4    O     O_R   0.493280 0.582590 0.315890 -0.543504
O5    O     O_R   0.521980 0.521940 0.699340 -0.543719
O6    O     O_2   0.128214 0.891492 0.545558 -0.232217
O7    O     O_2   0.158586 0.999252 0.417362 -0.269534
O8    O     O_3   0.207818 0.855979 0.383345 -0.517330
O9    O     O_2   0.924040 0.375958 0.851360 -0.207392
O10   O     O_2   0.791680 0.303104 0.787033 -0.279269
O11   O     O_3   0.904175 0.214789 0.790525 -0.460939
O12   O     O_R   0.708210 0.582550 0.530770 -0.526953
O13   O     O_R   0.270260 0.395900 0.573760 -0.511467
O14   O     O_R   0.537060 0.322180 0.411040 -0.529333
O15   O     O_R   0.484470 0.699370 0.484430 -0.544499
O16   O     O_R   0.404710 0.279110 0.530840 -0.532235
O17   O     O_R   0.573760 0.699350 0.573690 -0.547258
O18   O     O_R   0.714470 0.499570 0.411000 -0.535864
O19   O     O_R   0.307050 0.521980 0.484470 -0.553242
S1    S     S_3+6 0.198288 0.938488 0.453877 0.007823
S2    S     S_3+6 0.895562 0.318562 0.777983 0.052556
Zn1   Zn    Zn3+2 0.574690 0.574670 0.574650 0.950202
Zn2   Zn    Zn3+2 0.583640 0.456100 0.403530 0.956523
Zn3   Zn    Zn3+2 0.447120 0.574690 0.447120 0.930157
Zn4   Zn    Zn3+2 0.394550 0.394550 0.574700 0.976509

loop_
_geom_bond_atom_site_label_1
_geom_bond_atom_site_label_2
_ccdc_geom_bond_type
C3    C42   A    
C16   O18   A    
C27   C29   A    
C16   O12   A    
C27   H4    S    
O18   Zn2   S    
C4    O15   A    
C45   C46   A    
O1    Zn4   S    
C12   C23   A    
C26   C27   A    
C24   C36   A    
C22   C32   A    
C13   C18   A    
C2    C42   A    
C12   C43   A    
C25   C38   A    
C11   C14   A    
H15   O11   S    
O11   S2    S    
O5    Zn1   S    
O3    Zn4   S    
C30   C38   A    
C19   H16   S    
C39   O2    A    
O17   Zn1   S    
C25   F2    S    
O19   Zn3   S    
C36   H3    S    
C43   H8    S    
C6    C15   A    
C47   C48   A    
C8    C9    A    
C41   C46   A    
C9    C10   A    
O16   Zn4   S    
C18   H19   S    
C5    C43   A    
C16   C24   S    
O10   S2    D    
C1    C7    S    
C37   H20   S    
H14   O8    S    
O1    Zn1   S    
C14   C19   A    
C22   H22   S    
C24   C37   A    
C39   C42   S    
C2    C45   A    
C2    H7    S    
C35   H5    S    
C34   C44   A    
O14   Zn2   S    
C3    H1    S    
O6    S1    D    
C25   C26   A    
C22   C37   A    
O8    S1    S    
C23   H9    S    
C41   H6    S    
C29   C30   A    
C17   H12   S    
O9    S2    D    
C31   C32   A    
C28   C38   S    
C23   C34   A    
O15   Zn3   S    
C17   C18   A    
C13   C21   A    
C34   C45   A    
O12   Zn1   S    
C39   O4    A    
O7    S1    D    
C30   C35   A    
C5    C44   A    
C7    C19   A    
O1    Zn2   S    
C4    O17   A    
C1    O14   A    
C15   C17   A    
C46   C47   A    
C3    C41   A    
C31   C36   A    
O2    Zn2   S    
C8    C21   A    
C47   H2    S    
C6    C20   A    
C40   O3    A    
C32   C33   A    
C20   H13   S    
C9    H18   S    
C29   C31   A    
O4    Zn3   S    
C4    C21   S    
C11   C13   A    
C48   H11   S    
C1    O16   A    
C6    S1    S    
C33   C35   A    
C28   O19   A    
C40   O5    A    
C26   S2    S    
O13   Zn4   S    
C10   C11   A    
C33   H21   S    
C12   H10   S    
C8    H17   S    
C7    C20   A    
C5    C40   S    
C28   O13   A    
C14   C15   A    
O1    Zn3   S    
C10   F1    S    
C44   C48   A    
