data_mof_unit_9552.cif
_audit_creation_date              2012-12-10T20:35:46-0500
_audit_creation_method            fapswitch 2.2
_symmetry_space_group_name_H-M    P1
_symmetry_Int_Tables_number       1
_space_group_crystal_system       triclinic
_cell_length_a                    15.740597
_cell_length_b                    10.650085
_cell_length_c                    9.858934
_cell_angle_alpha                 89.273011
_cell_angle_beta                  89.686491
_cell_angle_gamma                 90.043306
_cell_volume                      1652.58049829

loop_
_atom_site_label
_atom_site_type_symbol
_atom_type_description
_atom_site_fract_x
_atom_site_fract_y
_atom_site_fract_z
_atom_type_partial_charge
C1    C     C_R   0.505010 0.259972 0.500821 0.889893
C2    C     C_3   0.949158 0.416243 0.615958 -0.450454
C3    C     C_3   0.917225 0.503174 0.499531 0.230481
C4    C     C_3   0.952505 0.640520 0.516787 0.363976
C5    C     C_3   0.051375 0.635500 0.513673 -0.464253
C6    C     C_1   0.825689 0.501707 0.498982 -0.047905
C7    C     C_1   0.174425 0.498564 0.499662 -0.070001
C8    C     C_1   0.249638 0.499406 0.500396 -0.219205
C9    C     C_R   0.529774 0.061940 0.623085 0.147863
C10   C     C_R   0.525601 0.129787 0.501897 -0.191222
C11   C     C_R   0.544986 0.069962 0.379725 -0.215670
C12   C     C_R   0.338354 0.500073 0.500276 0.911902
C13   C     C_R   0.546167 0.939359 0.375055 0.176389
C14   C     C_R   0.525428 0.871614 0.496199 -0.137583
C15   C     C_R   0.527690 0.934064 0.619576 0.049656
C16   C     C_3   0.473180 0.923255 0.743985 -0.458841
C17   C     C_3   0.476843 0.065984 0.749734 -0.028673
C18   C     C_R   0.426228 0.483700 0.072629 0.179492
C19   C     C_R   0.571650 0.527474 0.070864 -0.135967
C20   C     C_R   0.571728 0.527120 0.927023 -0.149063
C21   C     C_R   0.425455 0.485197 0.929913 0.218149
C22   C     C_3   0.365976 0.374299 0.929847 -0.076766
C23   C     C_R   0.505586 0.740273 0.498608 0.894237
C24   C     C_3   0.368977 0.373284 0.084161 -0.496935
C25   C     C_R   0.661684 0.499993 0.499622 0.906549
C26   C     C_3   0.047517 0.420114 0.622370 -0.012806
C27   C     C_3   0.048513 0.442690 0.362640 0.041326
C28   C     C_3   0.950066 0.447266 0.364203 -0.433035
C29   C     C_1   0.750445 0.500677 0.498975 -0.166472
C30   C     C_3   0.082834 0.498125 0.498232 0.272535
H1    H     H_    0.926069 0.318859 0.598464 0.201085
H2    H     H_    0.065585 0.469724 0.716851 0.168942
H3    H     H_    0.921695 0.443799 0.715326 0.169918
H4    H     H_    0.552653 0.123907 0.286445 0.176096
H5    H     H_    0.408518 0.887015 0.721715 0.178271
H6    H     H_    0.506263 0.873566 0.828407 0.218138
H7    H     H_    0.414140 0.111968 0.734460 0.158356
H8    H     H_    0.629836 0.547937 0.123984 0.162566
H9    H     H_    0.630006 0.547141 0.872429 0.164222
H10   H     H_    0.394111 0.289353 0.884136 0.183305
H11   H     H_    0.308086 0.397386 0.135360 0.212946
H12   H     H_    0.401603 0.289312 0.127207 0.191777
H13   H     H_    0.068271 0.342712 0.356919 0.168800
H14   H     H_    0.925024 0.350164 0.352448 0.162710
H15   H     H_    0.925065 0.501840 0.276242 0.217652
H16   H     H_    0.078569 0.675313 0.608024 0.167003
H17   H     H_    0.077133 0.695744 0.430457 0.201196
N1    N     N_R   0.499430 0.499140 0.142800 -0.108293
N2    N     N_R   0.499430 0.499180 0.857150 -0.126533
O1    O     O_R   0.500010 0.316790 0.614690 -0.620710
O2    O     O_R   0.500000 0.316760 0.385350 -0.621492
O3    O     O_R   0.377150 0.500020 0.614720 -0.613257
O4    O     O_R   0.377140 0.499990 0.385380 -0.610197
O5    O     O_R   0.500000 0.683240 0.614650 -0.612882
O6    O     O_R   0.499990 0.683210 0.385310 -0.614321
O7    O     O_R   0.622860 0.500010 0.614620 -0.625317
O8    O     O_R   0.622850 0.499980 0.385280 -0.621257
Zn1   Zn    Zn3+2 0.500010 0.500020 0.653130 0.940206
Zn2   Zn    Zn3+2 0.499990 0.499980 0.346870 0.941294
I1    I     I_    0.908404 0.765203 0.355586 -0.473449
C31   C     C_3   0.564213 0.878855 0.240082 -0.835290
H18   H     H_    0.613768 0.805437 0.252143 0.254563
H19   H     H_    0.505205 0.837696 0.198357 0.248687
H20   H     H_    0.588428 0.948112 0.163966 0.219513
C32   C     C_3   0.526812 0.114663 0.871376 -0.876377
H21   H     H_    0.588493 0.064902 0.882597 0.251095
H22   H     H_    0.539900 0.216486 0.858164 0.258479
H23   H     H_    0.488921 0.100248 0.965630 0.232681
C33   C     C_3   0.084091 0.286159 0.636269 -0.935014
H24   H     H_    0.059252 0.241129 0.730708 0.252039
H25   H     H_    0.065716 0.226660 0.549693 0.250295
H26   H     H_    0.154357 0.288060 0.643637 0.247020
C34   C     C_3   0.276916 0.404298 0.876427 -0.859513
H27   H     H_    0.275133 0.392992 0.765292 0.257033
H28   H     H_    0.230277 0.336923 0.920903 0.240343
H29   H     H_    0.257124 0.501250 0.902533 0.244876
C35   C     C_3   0.084577 0.506008 0.232870 -0.925579
H30   H     H_    0.060838 0.456154 0.142288 0.242488
H31   H     H_    0.064769 0.605616 0.224005 0.274151
H32   H     H_    0.154994 0.500921 0.230514 0.248306
C36   C     C_3   0.921903 0.701473 0.649989 -0.890015
H33   H     H_    0.946989 0.651491 0.740651 0.221958
H34   H     H_    0.944731 0.800070 0.654371 0.258450
H35   H     H_    0.851478 0.703047 0.656189 0.255441

loop_
_geom_bond_atom_site_label_1
_geom_bond_atom_site_label_2
_ccdc_geom_bond_type
C26   H2    S    
O6    Zn2   S    
C31   H20   S    
C18   C21   A    
C24   H12   S    
C34   H27   S    
C19   C20   A    
C25   O7    A    
C3    C6    S    
C21   N2    A    
C36   H33   S    
O4    Zn2   S    
C7    C8    T    
C35   H30   S    
C5    H17   S    
N1    Zn2   S    
C18   C24   S    
C3    C28   S    
C16   H5    S    
O5    Zn1   S    
O8    Zn2   S    
C15   C16   S    
C33   H25   S    
C31   H19   S    
C12   O3    A    
C4    C36   S    
C16   C17   S    
C32   H22   S    
C1    O1    A    
C12   O4    A    
C7    C30   S    
C13   C14   A    
C27   C30   S    
C24   H11   S    
C34   H28   S    
C33   H24   S    
C25   O8    A    
C36   H34   S    
C35   H31   S    
C25   C29   S    
C28   H15   S    
O1    Zn1   S    
C20   H9    S    
C19   N1    A    
C28   H14   S    
N2    Zn1   S    
C2    H1    S    
C14   C23   S    
C33   H26   S    
C20   N2    A    
C19   H8    S    
C8    C12   S    
C32   H23   S    
C22   H10   S    
C4    I1    S    
C2    C26   S    
C17   H7    S    
C1    O2    A    
O3    Zn1   S    
C2    H3    S    
C9    C17   S    
C26   C30   S    
C34   H29   S    
C22   C24   S    
O2    Zn2   S    
C3    C4    S    
C36   H35   S    
C23   O5    A    
C5    C30   S    
C9    C10   A    
C35   H32   S    
C11   H4    S    
C1    C10   S    
C4    C5    S    
C27   C35   S    
C18   N1    A    
C23   O6    A    
C5    H16   S    
C17   C32   S    
C2    C3    S    
C9    C15   A    
C16   H6    S    
C11   C13   A    
O7    Zn1   S    
C31   H18   S    
C10   C11   A    
C27   H13   S    
C6    C29   T    
C13   C31   S    
C32   H21   S    
C27   C28   S    
C26   C33   S    
C14   C15   A    
C22   C34   S    
C21   C22   S    
