data_mof_unit_35693.cif
_audit_creation_date              2012-12-11T14:25:43-0500
_audit_creation_method            fapswitch 2.2
_symmetry_space_group_name_H-M    P1
_symmetry_Int_Tables_number       1
_space_group_crystal_system       triclinic
_cell_length_a                    6.935226
_cell_length_b                    14.772515
_cell_length_c                    16.225772
_cell_angle_alpha                 90.626743
_cell_angle_beta                  89.866683
_cell_angle_gamma                 90.419703
_cell_volume                      1662.19394224

loop_
_atom_site_label
_atom_site_type_symbol
_atom_type_description
_atom_site_fract_x
_atom_site_fract_y
_atom_site_fract_z
_atom_type_partial_charge
O1    O     O_R   0.494490 0.416160 0.413410 -0.542266
O2    O     O_R   0.823830 0.407240 0.585990 -0.559983
O3    O     O_R   0.994160 0.583840 0.586590 -0.552893
C1    C     C_R   0.653821 0.384535 0.612976 0.695285
O4    O     O_R   0.824200 0.405280 0.414020 -0.545813
O5    O     O_R   0.994530 0.581860 0.413390 -0.542583
C2    C     C_R   0.654785 0.385487 0.384325 0.738419
O6    O     O_R   0.494110 0.418140 0.586610 -0.496334
O7    O     O_3   0.660810 0.557940 0.500000 -0.393108
V1    V     V_3+5 0.935650 0.489250 0.500000 1.497843
O8    O     O_R   0.324250 0.592760 0.414010 -0.563388
C3    C     C_R   0.157278 0.610705 0.382994 0.655427
O9    O     O_R   0.323880 0.594720 0.585980 -0.533903
C4    C     C_R   0.155973 0.616559 0.615170 0.813091
V2    V     V_3+5 0.435660 0.510750 0.500000 1.524903
O10   O     O_3   0.160630 0.442060 0.500000 -0.359301
C5    C     C_3   0.008116 0.651181 0.755191 0.490418
H1    H     H_    0.864674 0.635955 0.727716 0.043084
C6    C     C_3   0.980027 0.724530 0.823786 0.396678
H2    H     H_    0.830736 0.750991 0.818955 0.057967
H3    H     H_    0.922178 0.768360 0.633247 0.136509
H4    H     H_    0.923899 0.878340 0.732853 0.088990
C7    C     C_3   0.071563 0.777597 0.656624 -0.562448
C8    C     C_3   0.354572 0.700926 0.727098 0.513328
C9    C     C_3   0.149720 0.685173 0.686545 -0.248998
C10   C     C_3   0.124851 0.804479 0.811747 -0.334617
C11   C     C_3   0.070790 0.848783 0.728152 0.463932
C12   C     C_3   0.335976 0.766126 0.803973 -0.261697
H5    H     H_    0.434424 0.825251 0.795441 0.195177
H6    H     H_    0.157106 0.802860 0.603584 0.253813
C13   C     C_2   0.997585 0.702472 0.276410 -0.237853
C14   C     C_2   0.158628 0.661449 0.304278 -0.128986
H7    H     H_    0.865041 0.696844 0.311896 0.118704
C15   C     C_2   0.985370 0.752028 0.197003 -0.000407
C16   C     C_2   0.116870 0.817637 0.178745 -0.234600
H8    H     H_    0.235298 0.829939 0.221248 0.110648
C17   C     C_2   0.777164 0.205559 0.777725 -0.067412
C18   C     C_2   0.616398 0.182128 0.819300 -0.218047
H9    H     H_    0.911401 0.171278 0.791003 0.155778
H10   H     H_    0.483405 0.218668 0.810938 0.213638
C19   C     C_2   0.786923 0.280078 0.716592 -0.192841
C20   C     C_2   0.634864 0.311623 0.674014 0.484752
H11   H     H_    0.929325 0.308149 0.704620 0.147938
C21   C     C_2   0.766624 0.228774 0.198839 -0.032891
C22   C     C_2   0.620549 0.167027 0.184984 -0.217282
C23   C     C_2   0.786482 0.281214 0.277669 -0.030117
C24   C     C_2   0.637496 0.325667 0.311454 -0.256254
H12   H     H_    0.929886 0.290474 0.303385 0.157416
H13   H     H_    0.496403 0.320501 0.282687 0.155265
O11   O     O_R   0.770850 0.076180 0.907410 -0.550463
O12   O     O_R   0.440600 0.088970 0.079950 -0.548377
O13   O     O_R   0.270430 0.912340 0.080550 -0.545730
C25   C     C_R   0.610109 0.110819 0.108542 0.619466
O14   O     O_R   0.441120 0.087010 0.907980 -0.535507
O15   O     O_R   0.270950 0.910370 0.907350 -0.526741
C26   C     C_R   0.610436 0.109703 0.881042 0.719107
O16   O     O_R   0.770320 0.078150 0.080620 -0.555822
O17   O     O_3   0.604200 0.936340 0.994000 -0.336128
V3    V     V_3+5 0.329300 0.004970 0.993950 1.532958
O18   O     O_R   0.941240 0.899420 0.907920 -0.532131
C27   C     C_R   0.110668 0.875308 0.880873 0.842942
O19   O     O_R   0.940720 0.901380 0.079890 -0.527230
C28   C     C_R   0.108687 0.878945 0.107315 0.777560
V4    V     V_3+5 0.829310 0.983370 0.993880 1.559002
O20   O     O_3   0.104280 0.052120 0.993920 -0.393419
F1    F     F_    0.196927 0.919200 0.710429 -0.615403
C29   C     C_2   0.337606 0.654858 0.253560 0.402528
H14   H     H_    0.476913 0.650351 0.283480 0.012970
O21   O     O_2   0.330650 0.648969 0.178489 -0.496183
C30   C     C_2   0.826079 0.723842 0.141267 0.527052
H15   H     H_    0.699649 0.691201 0.166871 0.046537
O22   O     O_2   0.839205 0.730568 0.066570 -0.439171
F2    F     F_    0.073387 0.571205 0.788883 -0.569371
F3    F     F_    0.456865 0.273464 0.681954 -0.665860
C31   C     C_2   0.910373 0.251245 0.133579 0.402037
H16   H     H_    0.884537 0.233622 0.069510 0.062658
O23   O     O_2   0.058985 0.292094 0.150683 -0.529429
C32   C     C_2   0.478219 0.141005 0.249664 0.408396
H17   H     H_    0.335063 0.118108 0.231812 0.060299
O24   O     O_2   0.522191 0.139219 0.322450 -0.509846
F4    F     F_    0.995494 0.687348 0.901463 -0.581297
C33   C     C_2   0.503319 0.737805 0.666635 0.308312
H18   H     H_    0.608839 0.692354 0.639732 0.078640
O25   O     O_2   0.505377 0.817063 0.646025 -0.508497
F5    F     F_    0.424260 0.617275 0.751391 -0.669445
C34   C     C_2   0.402048 0.720679 0.882420 0.573442
H19   H     H_    0.338232 0.657069 0.901565 0.200937
O26   O     O_2   0.531007 0.754026 0.924114 -0.493769

loop_
_geom_bond_atom_site_label_1
_geom_bond_atom_site_label_2
_ccdc_geom_bond_type
O15   V3    S    
O11   V4    S    
C19   C20   D    
C6    H2    S    
C1    O6    A    
C24   H13   S    
C10   C11   S    
O19   C28   A    
C12   H5    S    
C10   C27   S    
O5    C3    A    
C32   O24   D    
V2    O10   S    
C15   C16   D    
C6    C10   S    
C8    C33   S    
O19   V4    S    
O8    V2    S    
C16   H8    S    
C13   H7    S    
C30   H15   S    
O1    V2    S    
C7    C11   S    
O7    V1    S    
C15   C30   S    
C22   C25   S    
O9    C4    A    
C3    C14   S    
C5    F2    S    
C19   H11   S    
C21   C23   S    
C23   H12   S    
O14   V3    S    
O17   V4    S    
O14   C26   A    
C20   F3    S    
C29   H14   S    
C7    H6    S    
C8    C9    S    
O4    C2    A    
C25   O16   A    
C34   H19   S    
O17   V3    S    
O11   C26   A    
O18   C27   A    
O12   C25   A    
C2    C24   S    
C21   C31   S    
O2    C1    A    
C31   H16   S    
C17   C18   D    
O13   V3    S    
C13   C14   D    
C5    H1    S    
C13   C15   S    
C31   O23   D    
C22   C32   S    
O3    C4    A    
C14   C29   S    
O6    V2    S    
C33   O25   D    
H4    C11   S    
H3    C7    S    
C12   C34   S    
O12   V3    S    
O2    V1    S    
C21   C22   D    
O16   V4    S    
C8    F5    S    
C23   C24   D    
O1    C2    A    
C8    C12   S    
O13   C28   A    
O5    V1    S    
C16   C28   S    
O8    C3    A    
C10   C12   S    
O18   V4    S    
C5    C9    S    
V4    O20   S    
O9    V2    S    
O7    V2    S    
O4    V1    S    
C17   H9    S    
O3    V1    S    
V1    O10   S    
V3    O20   S    
C18   H10   S    
C32   H17   S    
C1    C20   S    
O15   C27   A    
C5    C6    S    
C34   O26   D    
C7    C9    S    
C4    C9    S    
C17   C19   S    
C18   C26   S    
C33   H18   S    
C11   F1    S    
C30   O22   D    
C29   O21   D    
C6    F4    S    
