data_mof_unit_43337.cif
_audit_creation_date              2012-12-10T17:51:23-0500
_audit_creation_method            fapswitch 2.2
_symmetry_space_group_name_H-M    P1
_symmetry_Int_Tables_number       1
_space_group_crystal_system       triclinic
_cell_length_a                    9.870442
_cell_length_b                    10.716247
_cell_length_c                    16.665063
_cell_angle_alpha                 91.776529
_cell_angle_beta                  84.892004
_cell_angle_gamma                 90.641131
_cell_volume                      1754.82471196

loop_
_atom_site_label
_atom_site_type_symbol
_atom_type_description
_atom_site_fract_x
_atom_site_fract_y
_atom_site_fract_z
_atom_type_partial_charge
C1    C     C_R   0.501291 0.738882 0.491478 0.870930
C2    C     C_R   0.531405 0.554191 0.265894 -0.026250
C3    C     C_R   0.263364 0.876364 0.440883 -0.306296
C4    C     C_R   0.480708 0.501914 0.653584 0.846164
C5    C     C_R   0.133073 0.930988 0.453111 0.556090
C6    C     C_R   0.121266 0.043997 0.496660 -0.213384
C7    C     C_R   0.236419 0.107649 0.519375 -0.264867
C8    C     C_R   0.368356 0.058182 0.500145 0.102307
C9    C     C_R   0.378025 0.934299 0.472438 0.061311
C10   C     C_R   0.501237 0.871304 0.480707 -0.103923
C11   C     C_R   0.620167 0.937007 0.494271 -0.213742
C12   C     C_R   0.341992 0.551992 0.781566 -0.221887
C13   C     C_R   0.616256 0.063911 0.504859 -0.215165
C14   C     C_R   0.491840 0.125689 0.507753 -0.122959
C15   C     C_R   0.846201 0.667624 0.603428 -0.147826
C16   C     C_R   0.497516 0.259778 0.504983 0.892106
C17   C     C_R   0.910209 0.750440 0.654018 -0.186943
C18   C     C_R   0.050255 0.749321 0.654662 -0.192645
C19   C     C_R   0.127034 0.665643 0.604537 -0.154954
C20   C     C_R   0.065792 0.582015 0.551346 0.163902
C21   C     C_R   0.920989 0.582492 0.551039 0.179640
C22   C     C_R   0.934781 0.421346 0.450997 -0.131446
C23   C     C_R   0.442240 0.684953 0.167888 -0.058526
C24   C     C_R   0.078176 0.421428 0.450979 -0.146499
C25   C     C_R   0.519207 0.507657 0.347109 0.860986
C26   C     C_R   0.467782 0.519000 0.740880 -0.030427
C27   C     C_R   0.583547 0.512536 0.783351 -0.179260
C28   C     C_R   0.574471 0.541641 0.865172 -0.228453
C29   C     C_R   0.449877 0.579418 0.905246 0.070330
C30   C     C_R   0.333246 0.582130 0.863475 -0.154962
C31   C     C_3   0.032272 0.784362 0.368327 0.060918
C32   C     C_3   0.895285 0.749789 0.338255 -0.781213
C33   C     C_3   0.322452 0.436649 0.043676 0.115738
C34   C     C_R   0.430612 0.634300 0.243592 -0.239949
C35   C     C_3   0.211671 0.397392 0.107463 -0.837933
C36   C     C_R   0.648505 0.532050 0.213787 -0.212598
C37   C     C_R   0.658355 0.580330 0.136912 -0.198225
C38   C     C_R   0.552061 0.651857 0.112825 0.208998
C39   C     C_2   0.438614 0.606199 0.992414 0.433103
C40   C     C_2   0.541672 0.664046 0.026817 -0.361016
H1    H     H_    0.681345 0.486126 0.753312 0.156170
H2    H     H_    0.850484 0.815142 0.693469 0.146088
H3    H     H_    0.342208 0.657147 0.284417 0.135226
H4    H     H_    0.099827 0.813049 0.694655 0.147224
H5    H     H_    0.233585 0.668844 0.609789 0.205136
H6    H     H_    0.137570 0.357244 0.411075 0.159245
H7    H     H_    0.729352 0.474071 0.231440 0.147159
H8    H     H_    0.631609 0.695238 0.990286 0.124729
H9    H     H_    0.235926 0.608608 0.894118 0.158230
H10   H     H_    0.360625 0.741851 0.150041 0.152897
H11   H     H_    0.251166 0.557531 0.749931 0.155821
H12   H     H_    0.743722 0.554465 0.094463 0.131872
H13   H     H_    0.664591 0.533068 0.897114 0.128560
H14   H     H_    0.075635 0.698059 0.390637 0.157033
H15   H     H_    0.099179 0.820726 0.316706 0.132777
H16   H     H_    0.847321 0.833683 0.315861 0.251465
H17   H     H_    0.909276 0.678595 0.288425 0.205595
H18   H     H_    0.827024 0.710607 0.387910 0.277967
H19   H     H_    0.421482 0.401868 0.061168 0.143213
H20   H     H_    0.300628 0.392321 0.984890 0.143322
H21   H     H_    0.110986 0.429208 0.091596 0.251450
H22   H     H_    0.209571 0.294118 0.111318 0.204718
H23   H     H_    0.716084 0.890421 0.498445 0.207025
H24   H     H_    0.231935 0.439100 0.167127 0.261243
H25   H     H_    0.276323 0.789207 0.407223 0.142560
H26   H     H_    0.021783 0.084398 0.511770 0.154885
H27   H     H_    0.218774 0.192451 0.555243 0.191823
H28   H     H_    0.711111 0.113269 0.511898 0.175550
H29   H     H_    0.885882 0.357173 0.411066 0.150451
H30   H     H_    0.738328 0.673018 0.607644 0.203058
N1    N     N_R   0.857140 0.501200 0.500750 -0.125370
N2    N     N_R   0.142740 0.501280 0.500770 -0.130107
O1    O     O_R   0.385310 0.683220 0.500000 -0.642103
O2    O     O_3   0.322967 0.568047 0.039272 -0.616135
O3    O     O_R   0.614640 0.683250 0.500010 -0.648090
O4    O     O_R   0.371780 0.500010 0.615800 -0.637035
O5    O     O_R   0.601110 0.500030 0.615800 -0.635250
O6    O     O_R   0.385360 0.316750 0.499990 -0.620857
O7    O     O_R   0.614690 0.316780 0.500000 -0.614695
O8    O     O_R   0.398890 0.499970 0.384200 -0.620873
O9    O     O_R   0.628220 0.499990 0.384200 -0.616897
O10   O     O_3   0.012600 0.875153 0.431440 -0.625282
Zn1   Zn    Zn3+2 0.346870 0.499980 0.499990 0.916105
Zn2   Zn    Zn3+2 0.653130 0.500020 0.500010 0.922922

loop_
_geom_bond_atom_site_label_1
_geom_bond_atom_site_label_2
_ccdc_geom_bond_type
C25   O8    A    
C19   C20   A    
C32   H18   S    
C12   H11   S    
C7    C8    A    
C26   C27   A    
C29   C30   A    
C31   O10   S    
C21   N1    A    
C36   C37   A    
C11   H23   S    
O7    Zn2   S    
O3    Zn2   S    
C36   H7    S    
C40   H8    S    
C18   C19   A    
C39   O2    S    
C17   H2    S    
O6    Zn1   S    
C8    C9    A    
C35   H24   S    
C14   C16   S    
C2    C25   S    
C9    C10   A    
C22   H29   S    
C2    C34   A    
C33   H19   S    
C13   C14   A    
C25   O9    A    
C3    H25   S    
C32   H17   S    
O8    Zn1   S    
O4    Zn1   S    
C34   H3    S    
C1    O3    A    
C39   C40   D    
C37   H12   S    
C23   H10   S    
O5    Zn2   S    
C12   C26   A    
C37   C38   A    
C3    C9    A    
C18   H4    S    
C27   H1    S    
C31   C32   S    
C15   C21   A    
C23   C34   A    
C29   C39   S    
C17   C18   A    
C35   H21   S    
C30   H9    S    
C33   H20   S    
C22   C24   A    
C22   N1    A    
O9    Zn2   S    
C24   N2    A    
N1    Zn2   S    
C2    C36   A    
C15   C17   A    
C15   H30   S    
C28   C29   A    
C8    C14   A    
C12   C30   A    
C1    C10   S    
C3    C5    A    
C4    C26   S    
C28   H13   S    
C19   H5    S    
C6    C7    A    
C23   C38   A    
C16   O7    A    
C24   H6    S    
C1    O1    A    
C4    O5    A    
C38   C40   S    
C5    O10   S    
C11   C13   A    
C5    C6    A    
C33   C35   S    
O1    Zn1   S    
C35   H22   S    
C16   O6    A    
C31   H14   S    
C4    O4    A    
N2    Zn1   S    
C10   C11   A    
C7    H27   S    
C33   O2    S    
C6    H26   S    
C20   C21   A    
C27   C28   A    
C20   N2    A    
C31   H15   S    
C32   H16   S    
C13   H28   S    
