data_mof_unit_8566.cif
_audit_creation_date              2012-12-10T18:05:50-0500
_audit_creation_method            fapswitch 2.2
_symmetry_space_group_name_H-M    P1
_symmetry_Int_Tables_number       1
_space_group_crystal_system       triclinic
_cell_length_a                    12.616304
_cell_length_b                    13.138746
_cell_length_c                    14.956044
_cell_angle_alpha                 90.003495
_cell_angle_beta                  102.379429
_cell_angle_gamma                 83.197913
_cell_volume                      2403.64327301

loop_
_atom_site_label
_atom_site_type_symbol
_atom_type_description
_atom_site_fract_x
_atom_site_fract_y
_atom_site_fract_z
_atom_type_partial_charge
C1    C     C_R   0.440262 0.690874 0.481193 0.889138
C2    C     C_R   0.440262 0.578950 0.803318 -0.085585
C3    C     C_R   0.502237 0.499166 0.768447 -0.114615
C4    C     C_R   0.500674 0.499939 0.672398 0.903822
C5    C     C_R   0.563619 0.417651 0.823544 -0.064769
C6    C     C_R   0.730776 0.060428 0.484050 0.012865
C7    C     C_R   0.597124 0.199189 0.509665 -0.060567
C8    C     C_R   0.296191 0.839094 0.448856 -0.183868
C9    C     C_R   0.262611 0.942776 0.430245 -0.167991
C10   C     C_R   0.339474 0.009928 0.425228 -0.052742
C11   C     C_R   0.452684 0.971668 0.444462 0.032815
C12   C     C_R   0.563747 0.411210 0.104513 0.083634
C13   C     C_R   0.481486 0.865739 0.438788 -0.003654
C14   C     C_R   0.538277 0.034062 0.467952 0.106744
C15   C     C_R   0.647049 0.995675 0.463772 0.103671
C16   C     C_R   0.560624 0.308483 0.511553 0.880251
C17   C     C_R   0.667580 0.895755 0.434597 -0.212749
C18   C     C_R   0.584504 0.832344 0.417301 -0.078744
C19   C     C_R   0.518499 0.132196 0.500196 -0.191861
C20   C     C_R   0.704495 0.162700 0.504811 -0.199800
C21   C     C_R   0.405394 0.799165 0.453831 -0.126577
C22   C     C_R   0.076160 0.385030 0.343338 -0.084929
C23   C     C_R   0.353173 0.634434 0.023865 -0.223253
C24   C     C_R   0.803306 0.629185 0.609634 0.098975
C25   C     C_R   0.904522 0.664943 0.623309 -0.299212
C26   C     C_R   0.982558 0.622809 0.576995 -0.005040
C27   C     C_R   0.961483 0.537792 0.519831 -0.017859
C28   C     C_R   0.500331 0.496068 0.327646 0.913971
C29   C     C_R   0.853660 0.508720 0.502698 0.231498
C30   C     C_R   0.039645 0.484069 0.474908 -0.026738
C31   C     C_R   0.003414 0.421832 0.399475 0.090419
C32   C     C_R   0.897404 0.394456 0.384966 -0.191187
C33   C     C_R   0.826045 0.433857 0.438486 -0.162322
C34   C     C_R   0.353927 0.640818 0.931376 -0.011476
C35   C     C_R   0.153091 0.486458 0.503745 -0.041776
C36   C     C_R   0.186199 0.398972 0.372228 0.008722
C37   C     C_R   0.564628 0.411384 0.198480 -0.061904
C38   C     C_R   0.498620 0.489121 0.231881 -0.059000
C39   C     C_R   0.424656 0.558946 0.173322 -0.171640
C40   C     C_R   0.423859 0.560579 0.080892 0.095573
C41   C     C_R   0.494458 0.487909 0.045776 0.056345
C42   C     C_1   0.625471 0.328367 0.259089 0.141136
C43   C     C_1   0.842813 0.025651 0.480391 0.170662
C44   C     C_2   0.298837 0.112112 0.381171 0.912331
C45   C     C_R   0.428678 0.571879 0.894625 0.023714
C46   C     C_2   0.600020 0.744566 0.357369 0.981030
C47   C     C_2   0.040120 0.340170 0.251958 0.918835
C48   C     C_2   0.726522 0.677573 0.662741 0.971630
C49   C     C_1   0.074774 0.679298 0.581435 0.171309
C50   C     C_1   0.270873 0.714460 0.876836 0.190362
C51   C     C_1   0.400592 0.671287 0.746713 0.197160
C52   C     C_1   0.626362 0.336814 0.783391 0.170256
C53   C     C_R   0.495265 0.491709 0.952165 0.034132
C54   C     C_R   0.563632 0.415617 0.916836 0.083241
C55   C     C_R   0.629845 0.338631 0.975500 -0.183425
C56   C     C_R   0.630482 0.336884 0.067978 -0.155674
H1    H     H_    0.746751 0.868329 0.420715 0.172881
H2    H     H_    0.748526 0.405826 0.427083 0.205788
H3    H     H_    0.296830 0.687753 0.051800 0.155482
H4    H     H_    0.683034 0.279623 0.950739 0.166667
H5    H     H_    0.684354 0.277099 0.110538 0.174869
H6    H     H_    0.766740 0.214344 0.514004 0.166025
H7    H     H_    0.322315 0.222347 0.295429 0.363267
H8    H     H_    0.448261 0.775141 0.276916 0.290744
H9    H     H_    0.079994 0.247471 0.153566 0.353745
H10   H     H_    0.619229 0.799723 0.677235 0.343297
H11   H     H_    0.439794 0.158848 0.514906 0.156596
H12   H     H_    0.235678 0.789500 0.455532 0.191254
H13   H     H_    0.176108 0.970059 0.417510 0.191708
H14   H     H_    0.243471 0.376586 0.329546 0.156094
H15   H     H_    0.870263 0.338287 0.335197 0.195347
H16   H     H_    0.369496 0.614130 0.200615 0.160892
H17   H     H_    0.188711 0.519621 0.567271 0.151898
H18   H     H_    0.921226 0.728525 0.668536 0.171753
N1    N     N_R   0.222190 0.444670 0.452360 -0.119237
N2    N     N_R   0.776970 0.554790 0.547140 -0.163371
N3    N     N_1   0.673217 0.261134 0.306563 -0.217493
N4    N     N_1   0.932506 0.997832 0.477462 -0.181642
N5    N     N_1   0.147990 0.725634 0.585497 -0.186375
N6    N     N_1   0.203862 0.773390 0.833791 -0.170905
N7    N     N_1   0.370769 0.744827 0.701359 -0.174416
N8    N     N_1   0.676169 0.272627 0.751323 -0.194086
O1    O     O_R   0.366740 0.627160 0.477250 -0.614614
O2    O     O_R   0.358635 0.154209 0.324782 -0.788130
O3    O     O_2   0.689338 0.693492 0.367235 -0.565505
O4    O     O_R   0.516103 0.723524 0.285060 -0.812804
O5    O     O_2   0.948630 0.366520 0.205543 -0.627314
O6    O     O_R   0.113198 0.271495 0.216681 -0.794921
O7    O     O_2   0.723857 0.639774 0.736775 -0.615616
O8    O     O_R   0.667083 0.772759 0.633873 -0.798077
O9    O     O_R   0.544830 0.662520 0.507680 -0.605137
O10   O     O_R   0.410940 0.482340 0.616930 -0.626459
O11   O     O_R   0.589030 0.517700 0.647360 -0.589226
O12   O     O_R   0.455170 0.337480 0.492320 -0.607452
O13   O     O_R   0.633260 0.372840 0.522750 -0.651928
O14   O     O_R   0.410970 0.482300 0.352640 -0.646775
O15   O     O_R   0.589060 0.517660 0.383070 -0.592402
O16   O     O_2   0.212214 0.157650 0.391542 -0.617580
Zn1   Zn    Zn3+2 0.381090 0.476390 0.479680 0.960432
Zn2   Zn    Zn3+2 0.618910 0.523610 0.520320 0.997441

loop_
_geom_bond_atom_site_label_1
_geom_bond_atom_site_label_2
_ccdc_geom_bond_type
C28   O15   A    
C55   C56   A    
C1    C21   S    
C33   H2    S    
C27   C29   A    
H10   O8    S    
C29   N2    A    
C53   C54   A    
C43   N4    T    
C23   H3    S    
C35   N1    A    
C26   C27   A    
C37   C38   A    
C30   C35   A    
C9    H13   S    
C30   C31   A    
C11   C14   A    
C23   C40   A    
O14   Zn1   S    
C29   C33   A    
C12   C37   A    
C25   H18   S    
C37   C42   S    
C6    C15   A    
C44   O16   D    
C35   H17   S    
C8    C9    A    
C39   H16   S    
C5    C52   S    
C19   H11   S    
O9    Zn2   S    
C9    C10   A    
C51   N7    T    
C46   O3    D    
C22   C47   S    
C45   C53   A    
C1    O9    A    
O1    Zn1   S    
C55   H4    S    
C27   C30   A    
C18   C46   S    
H8    O4    S    
C36   H14   S    
C17   C18   A    
C32   H15   S    
C2    C45   A    
C34   C50   S    
C22   C31   A    
C10   C44   S    
C24   C48   S    
C5    C54   A    
C24   C25   A    
C2    C51   S    
C26   C49   S    
C39   C40   A    
O13   Zn2   S    
C24   N2    A    
C44   O2    S    
C25   C26   A    
C49   N5    T    
C47   O5    D    
C12   C41   A    
C36   N1    A    
C31   C32   A    
C28   C38   S    
C23   C34   A    
N1    Zn1   S    
C8    C21   A    
C13   C21   A    
C34   C45   A    
C52   N8    T    
O11   Zn2   S    
C41   C53   A    
C12   C56   A    
C13   C18   A    
C40   C41   A    
C8    H12   S    
C7    C19   A    
C6    C43   S    
C1    O1    A    
C3    C4    S    
O15   Zn2   S    
C6    C20   A    
H9    O6    S    
C15   C17   A    
C54   C55   A    
C7    C16   S    
C16   O13   A    
C56   H5    S    
C14   C19   A    
C3    C5    A    
C50   N6    T    
N2    Zn2   S    
C22   C36   A    
C16   O12   A    
H7    O2    S    
C28   O14   A    
C32   C33   A    
C2    C3    A    
C47   O6    S    
C11   C13   A    
C38   C39   A    
O12   Zn1   S    
C20   H6    S    
C10   C11   A    
C4    O11   A    
C42   N3    T    
C7    C20   A    
C14   C15   A    
C48   O8    S    
C46   O4    S    
C48   O7    D    
O10   Zn1   S    
C17   H1    S    
C4    O10   A    
