data_mof_unit_57891.cif
_audit_creation_date              2012-12-10T21:27:24-0500
_audit_creation_method            fapswitch 2.2
_symmetry_space_group_name_H-M    P1
_symmetry_Int_Tables_number       1
_space_group_crystal_system       triclinic
_cell_length_a                    10.285362
_cell_length_b                    16.103606
_cell_length_c                    16.710904
_cell_angle_alpha                 88.433689
_cell_angle_beta                  90.665994
_cell_angle_gamma                 105.314918
_cell_volume                      2668.53538896

loop_
_atom_site_label
_atom_site_type_symbol
_atom_type_description
_atom_site_fract_x
_atom_site_fract_y
_atom_site_fract_z
_atom_type_partial_charge
C1    C     C_R   0.496285 0.488835 0.653157 0.978708
C2    C     C_R   0.491913 0.509311 0.346460 0.948943
C3    C     C_R   0.531506 0.424331 0.784959 0.328214
C4    C     C_R   0.421967 0.580817 0.223541 0.321704
C5    C     C_R   0.419850 0.750213 0.471352 -0.196839
C6    C     C_R   0.582286 0.253313 0.529994 -0.251467
C7    C     C_R   0.421043 0.837682 0.475618 0.372498
C8    C     C_R   0.590002 0.166421 0.526015 0.397887
C9    C     C_R   0.527315 0.894899 0.517557 0.159557
C10   C     C_R   0.488822 0.108141 0.481372 0.196193
C11   C     C_R   0.622603 0.860413 0.557057 -0.481914
C12   C     C_R   0.391630 0.139614 0.440504 -0.526771
C13   C     C_R   0.614401 0.771895 0.553866 0.573878
C14   C     C_R   0.387577 0.225826 0.447142 0.626349
C15   C     C_R   0.747428 0.534893 0.502188 0.742385
C16   C     C_R   0.253370 0.465054 0.499461 0.745161
C17   C     C_2   0.893325 0.549498 0.514528 0.380159
C18   C     C_2   0.107435 0.447648 0.505642 0.346349
C19   C     C_2   0.927753 0.494562 0.567615 -0.215716
C20   C     C_2   0.062376 0.481975 0.568374 -0.193892
C21   C     C_R   0.472766 0.479327 0.738787 -0.306274
C22   C     C_R   0.452928 0.508162 0.261277 -0.333911
C23   C     C_R   0.385981 0.522971 0.773429 0.382478
C24   C     C_R   0.432789 0.430458 0.219226 0.393977
C25   C     C_R   0.360325 0.511117 0.855618 -0.386186
C26   C     C_R   0.384186 0.426784 0.141486 -0.370111
C27   C     C_R   0.420960 0.457630 0.902059 0.116782
C28   C     C_R   0.367277 0.500621 0.101412 0.113608
C29   C     C_R   0.499781 0.410571 0.866267 0.376288
C30   C     C_R   0.373942 0.575078 0.143816 0.375753
H1    H     H_    0.129996 0.511182 0.616168 0.161858
H2    H     H_    0.853026 0.451627 0.605592 0.117561
H3    H     H_    0.364146 0.366360 0.110761 0.184967
H4    H     H_    0.292219 0.542266 0.883573 0.179809
H5    H     H_    0.653961 0.300230 0.564391 0.176272
H6    H     H_    0.340926 0.706708 0.437985 0.208182
H7    H     H_    0.704502 0.902687 0.589475 0.193417
H8    H     H_    0.318593 0.096669 0.403230 0.183547
N1    N     N_2   0.411436 0.451936 0.986002 -0.129840
N2    N     N_2   0.358274 0.504212 0.017093 -0.132639
N3    N     N_R   0.515370 0.719110 0.509820 -0.139563
N4    N     N_R   0.484630 0.280890 0.490180 -0.130061
N5    N     N_2   0.539540 0.985182 0.525563 -0.085785
N6    N     N_2   0.481144 0.018477 0.472679 -0.093379
O1    O     O_R   0.494500 0.421750 0.612630 -0.581628
O2    O     O_R   0.505500 0.578250 0.387370 -0.563881
O3    O     O_R   0.504370 0.562470 0.618930 -0.576786
O4    O     O_R   0.495630 0.437530 0.381070 -0.540233
O5    O     O_R   0.679100 0.455920 0.498020 -0.618121
O6    O     O_R   0.320900 0.544080 0.501980 -0.601009
O7    O     O_R   0.688960 0.596630 0.504320 -0.573310
O8    O     O_R   0.311040 0.403370 0.495680 -0.592056
Zn1   Zn    Zn3+2 0.493410 0.406040 0.495790 0.991107
Zn2   Zn    Zn3+2 0.506590 0.593960 0.504210 0.989559
O9    O     O_3   0.712801 0.739000 0.589137 -0.631987
C31   C     C_3   0.703057 0.740174 0.673238 0.086098
H9    H     H_    0.597412 0.711273 0.693439 0.157262
H10   H     H_    0.738092 0.807273 0.694675 0.124729
C32   C     C_3   0.793394 0.687502 0.710000 -0.318701
H11   H     H_    0.767581 0.622787 0.683275 0.215128
H12   H     H_    0.900470 0.719768 0.695797 0.219994
C33   C     C_3   0.776534 0.677145 0.800617 -0.986211
H13   H     H_    0.802902 0.741193 0.828714 0.269906
H14   H     H_    0.844372 0.639204 0.825157 0.261823
H15   H     H_    0.670941 0.642518 0.815878 0.268294
O10   O     O_3   0.293693 0.257737 0.405011 -0.590347
C34   C     C_3   0.160031 0.210356 0.423741 0.055173
H16   H     H_    0.106519 0.255840 0.447385 0.189794
H17   H     H_    0.152012 0.158844 0.470973 0.121521
C35   C     C_3   0.087449 0.171505 0.347726 -0.351684
H18   H     H_    0.090392 0.223635 0.302287 0.241350
H19   H     H_    0.139593 0.125897 0.322615 0.216971
C36   C     C_3   0.940857 0.123796 0.364766 -0.951908
H20   H     H_    0.935822 0.069685 0.408304 0.268976
H21   H     H_    0.890622 0.097207 0.308377 0.266658
H22   H     H_    0.886016 0.168260 0.389358 0.272027
O11   O     O_3   0.017707 0.406168 0.446946 -0.653685
C37   C     C_3   0.076045 0.421726 0.369931 0.077119
H23   H     H_    0.157161 0.388316 0.364054 0.176065
H24   H     H_    0.118505 0.492171 0.358164 0.154196
C38   C     C_3   0.968047 0.387075 0.307057 -0.343373
H25   H     H_    0.924006 0.317088 0.318526 0.235668
H26   H     H_    0.886139 0.419894 0.311433 0.223249
C39   C     C_3   0.027269 0.401519 0.222904 -0.993791
H27   H     H_    0.077605 0.470712 0.211995 0.260235
H28   H     H_    0.945862 0.381136 0.177784 0.268832
H29   H     H_    0.101943 0.363565 0.215474 0.280960
O12   O     O_3   0.994518 0.603399 0.467247 -0.650784
C40   C     C_3   0.948417 0.656303 0.410950 0.060570
H30   H     H_    0.037434 0.708727 0.392414 0.173274
H31   H     H_    0.877997 0.689387 0.437625 0.173081
C41   C     C_3   0.891621 0.607311 0.335236 -0.353217
H32   H     H_    0.973451 0.587602 0.304410 0.221706
H33   H     H_    0.811123 0.548321 0.350394 0.205715
C42   C     C_3   0.832966 0.663577 0.278225 -0.986751
H34   H     H_    0.755310 0.687021 0.309418 0.281522
H35   H     H_    0.784725 0.625395 0.226410 0.262445
H36   H     H_    0.913737 0.719574 0.256055 0.265461
O13   O     O_3   0.446912 0.355383 0.256669 -0.579417
C43   C     C_3   0.554513 0.329630 0.222189 0.113124
H37   H     H_    0.649771 0.382373 0.224409 0.121546
H38   H     H_    0.531248 0.310996 0.158980 0.136647
C44   C     C_3   0.574938 0.251400 0.269490 -0.292564
H39   H     H_    0.618499 0.271937 0.329226 0.216941
H40   H     H_    0.475871 0.203604 0.278271 0.243946
C45   C     C_3   0.667806 0.207955 0.226003 -0.997649
H41   H     H_    0.620946 0.181462 0.168712 0.270609
H42   H     H_    0.685076 0.154219 0.264010 0.275739
H43   H     H_    0.766196 0.254482 0.213227 0.273545
O14   O     O_3   0.317561 0.568006 0.723205 -0.638144
C46   C     C_3   0.298008 0.642734 0.758064 0.084419
H44   H     H_    0.389544 0.678306 0.791378 0.136830
H45   H     H_    0.209653 0.624749 0.798758 0.141738
C47   C     C_3   0.267488 0.702155 0.691670 -0.323164
H46   H     H_    0.354469 0.721454 0.650200 0.215686
H47   H     H_    0.177567 0.667323 0.657053 0.229182
C48   C     C_3   0.240276 0.782769 0.725910 -0.998823
H48   H     H_    0.153296 0.764946 0.767526 0.270826
H49   H     H_    0.215961 0.823695 0.676537 0.257758
H50   H     H_    0.330652 0.820417 0.758333 0.271007
O15   O     O_3   0.556786 0.357178 0.913262 -0.638467
C49   C     C_3   0.487397 0.269937 0.901325 0.136826
H51   H     H_    0.562175 0.231387 0.907430 0.166713
H52   H     H_    0.441777 0.257379 0.840398 0.147873
C50   C     C_3   0.379067 0.238640 0.965455 -0.386677
H53   H     H_    0.425997 0.250277 0.025752 0.227669
H54   H     H_    0.301566 0.275128 0.959053 0.224784
C51   C     C_3   0.310500 0.142787 0.958301 -0.957431
H55   H     H_    0.261031 0.129781 0.898818 0.265852
H56   H     H_    0.232564 0.122267 0.005446 0.269488
H57   H     H_    0.385425 0.104558 0.966178 0.265064
O16   O     O_3   0.343184 0.644538 0.104930 -0.639578
C52   C     C_3   0.210783 0.646793 0.125098 0.107766
H58   H     H_    0.207419 0.715187 0.121868 0.163488
H59   H     H_    0.181761 0.623645 0.187621 0.139636
C53   C     C_3   0.108332 0.596269 0.064856 -0.374782
H60   H     H_    0.134234 0.624176 0.003685 0.229590
H61   H     H_    0.111807 0.527941 0.065309 0.230187
C54   C     C_3   0.965176 0.598841 0.084904 -0.965554
H62   H     H_    0.935187 0.566655 0.143965 0.271636
H63   H     H_    0.894245 0.564239 0.038758 0.276007
H64   H     H_    0.958134 0.666442 0.086259 0.268912
O17   O     O_3   0.613323 0.380024 0.749643 -0.591678
C55   C     C_3   0.749063 0.421914 0.766622 -0.305453
H65   H     H_    0.770446 0.423969 0.832017 0.203665
H66   H     H_    0.777510 0.488140 0.739969 0.137027
H67   H     H_    0.813980 0.385173 0.739589 0.174084
O18   O     O_3   0.426785 0.653596 0.267343 -0.593653
C56   C     C_3   0.520233 0.726566 0.233870 -0.204946
H68   H     H_    0.466615 0.764617 0.195925 0.194305
H69   H     H_    0.601700 0.710957 0.198594 0.143168
H70   H     H_    0.569273 0.768221 0.283388 0.168919
O19   O     O_3   0.689734 0.135346 0.564577 -0.627319
C57   C     C_3   0.807206 0.200067 0.584251 0.074153
H71   H     H_    0.786890 0.236205 0.636427 0.155409
H72   H     H_    0.842938 0.244690 0.532115 0.161036
C58   C     C_3   0.918913 0.157602 0.607927 -0.328379
H73   H     H_    0.883107 0.109584 0.657296 0.232217
H74   H     H_    0.943748 0.123228 0.555891 0.219709
C59   C     C_3   0.045612 0.224035 0.635601 -0.974426
H75   H     H_    0.081819 0.274255 0.588275 0.267238
H76   H     H_    0.126538 0.191720 0.649142 0.265161
H77   H     H_    0.024320 0.255329 0.690569 0.266586
O20   O     O_3   0.320161 0.865998 0.437451 -0.624369
C60   C     C_3   0.215466 0.861117 0.492764 0.075295
H78   H     H_    0.253979 0.899679 0.546566 0.147083
H79   H     H_    0.169454 0.792819 0.511730 0.149765
C61   C     C_3   0.107010 0.897770 0.453295 -0.335074
H80   H     H_    0.151191 0.966290 0.435575 0.227529
H81   H     H_    0.068650 0.861717 0.398411 0.218345
C62   C     C_3   0.989765 0.891999 0.510077 -0.969233
H82   H     H_    0.945417 0.824056 0.529489 0.297656
H83   H     H_    0.910771 0.916443 0.479008 0.270795
H84   H     H_    0.024687 0.931425 0.563560 0.261460

loop_
_geom_bond_atom_site_label_1
_geom_bond_atom_site_label_2
_ccdc_geom_bond_type
O9    C31   S    
C1    C21   S    
C60   H78   S    
C27   C29   A    
C17   O12   S    
C54   H63   S    
C36   H20   S    
C42   H34   S    
C39   H29   S    
C62   H82   S    
C51   H55   S    
C13   N3    A    
C38   H25   S    
C42   H36   S    
O11   C37   S    
C2    O2    A    
C62   H83   S    
C58   H73   S    
O20   C60   S    
C24   C26   A    
C56   H69   S    
N4    Zn1   S    
C54   H64   S    
C37   H24   S    
C45   H41   S    
C28   N2    S    
O17   C55   S    
C4    O18   S    
C5    H6    S    
C6    H5    S    
C11   H7    S    
C3    C29   A    
O14   C46   S    
C41   H32   S    
C33   H14   S    
C44   H40   S    
C61   C62   S    
C46   H44   S    
C27   N1    S    
O16   C52   S    
C29   O15   S    
C2    C22   S    
C52   C53   S    
C35   H18   S    
C15   O7    A    
C40   H31   S    
C57   H72   S    
C25   H4    S    
C14   N4    A    
C61   H81   S    
O10   C34   S    
O1    Zn1   S    
C32   H11   S    
C60   H79   S    
C36   H21   S    
C46   C47   S    
C55   H67   S    
C19   H2    S    
C41   H33   S    
C38   H26   S    
C47   H46   S    
O4    Zn1   S    
C62   H84   S    
C9    N5    S    
C32   H12   S    
C10   N6    S    
C34   H16   S    
C59   H77   S    
C24   O13   S    
C3    O17   S    
O18   C56   S    
C57   C58   S    
C55   H66   S    
C48   H50   S    
N1    N2    D    
C5    C7    A    
C37   H23   S    
C1    O3    A    
C6    C8    A    
C2    O4    A    
C41   C42   S    
C34   H17   S    
C53   C54   S    
C43   C44   S    
N5    N6    D    
C33   H13   S    
C50   C51   S    
C4    C22   A    
C26   H3    S    
C47   H47   S    
O13   C43   S    
O2    Zn2   S    
C35   C36   S    
C43   H38   S    
C14   O10   S    
C46   H45   S    
C16   C18   S    
O6    Zn2   S    
C39   H27   S    
C40   C41   S    
C8    O19   S    
C9    C11   A    
C57   H71   S    
O15   C49   S    
C10   C12   A    
O3    Zn2   S    
C53   H61   S    
C61   H80   S    
C12   C14   A    
C58   C59   S    
C21   C23   A    
C50   H53   S    
C36   H22   S    
C22   C24   A    
C56   H70   S    
C25   C27   A    
C31   H9    S    
C49   H52   S    
C51   H57   S    
C38   C39   S    
O8    Zn1   S    
C52   H59   S    
C15   C17   S    
C23   O14   S    
C5    N3    A    
C32   C33   S    
C33   H15   S    
C16   O8    A    
C39   H28   S    
C53   H60   S    
C51   H56   S    
C58   H74   S    
C54   H62   S    
C42   H35   S    
C60   C61   S    
C7    O20   S    
C26   C28   A    
C31   C32   S    
C55   H65   S    
C34   C35   S    
C59   H75   S    
O7    Zn2   S    
C19   C20   S    
C48   H49   S    
C40   H30   S    
C48   H48   S    
C11   C13   A    
C37   C38   S    
C1    O1    A    
C52   H58   S    
C45   H42   S    
C49   C50   S    
C18   O11   S    
O5    Zn1   S    
C28   C30   A    
C43   H37   S    
C17   C19   D    
C31   H10   S    
C44   C45   S    
C18   C20   D    
C15   O5    A    
C12   H8    S    
C16   O6    A    
N3    Zn2   S    
C47   C48   S    
C3    C21   A    
C30   O16   S    
C7    C9    A    
C23   C25   A    
O12   C40   S    
C8    C10   A    
C6    N4    A    
C44   H39   S    
C50   H54   S    
C35   H19   S    
C13   O9    S    
C49   H51   S    
C56   H68   S    
C20   H1    S    
C4    C30   A    
C59   H76   S    
O19   C57   S    
C45   H43   S    
