data_mof_unit_10756.cif
_audit_creation_date              2013-03-05T16:41:45-0500
_audit_creation_method            fapswitch 2.2
_symmetry_space_group_name_H-M    P1
_symmetry_Int_Tables_number       1
_space_group_crystal_system       triclinic
_cell_length_a                    10.774959
_cell_length_b                    10.739749
_cell_length_c                    9.925799
_cell_angle_alpha                 87.775655
_cell_angle_beta                  90.566412
_cell_angle_gamma                 92.828098
_cell_volume                      1146.31707007

loop_
_atom_site_label
_atom_site_type_symbol
_atom_site_description
_atom_site_fract_x
_atom_site_fract_y
_atom_site_fract_z
_atom_type_partial_charge
O1    O     O_R   0.500020 0.316790 0.614690 -0.641668
O2    O     O_R   0.500000 0.316760 0.385350 -0.553373
C1    C     C_R   0.510281 0.260775 0.502597 0.913731
O3    O     O_R   0.316770 0.500020 0.614690 -0.579520
O4    O     O_R   0.316760 0.499980 0.385350 -0.584352
C2    C     C_R   0.261969 0.516781 0.498014 0.875852
Zn1   Zn    Zn3+2 0.500010 0.500020 0.653130 1.047848
Zn2   Zn    Zn3+2 0.499990 0.499980 0.346870 1.067345
O5    O     O_R   0.500000 0.683240 0.614650 -0.571548
O6    O     O_R   0.499980 0.683210 0.385310 -0.580002
O7    O     O_R   0.683240 0.500020 0.614650 -0.568928
O8    O     O_R   0.683230 0.499980 0.385310 -0.593383
C3    C     C_R   0.499761 0.740219 0.497882 0.906934
C4    C     C_R   0.740651 0.494801 0.501986 0.934767
C5    C     C_R   0.123966 0.638645 0.713744 -0.127205
H1    H     H_    0.213405 0.686139 0.697014 0.177452
C6    C     C_R   0.059942 0.657935 0.832090 0.577806
C7    C     C_R   0.951976 0.584059 0.859787 -0.261077
H2    H     H_    0.914339 0.578692 0.960712 0.215964
C8    C     C_R   0.897652 0.510234 0.760029 0.258337
C9    C     C_R   0.944812 0.521003 0.626754 0.013587
C10   C     C_R   0.068420 0.566030 0.612526 -0.080660
C11   C     C_R   0.130618 0.543764 0.493305 -0.153244
C12   C     C_R   0.061468 0.530796 0.373969 0.268255
H3    H     H_    0.883747 0.497279 0.287727 0.219841
C13   C     C_R   0.935406 0.504995 0.381498 -0.199591
C14   C     C_R   0.875655 0.496492 0.506469 -0.123399
C15   C     C_R   0.507831 0.057156 0.624997 -0.116172
C16   C     C_R   0.536985 0.130445 0.509315 -0.194580
C17   C     C_R   0.586859 0.071914 0.398331 0.323813
C18   C     C_R   0.571497 0.942516 0.391705 -0.154459
H4    H     H_    0.604959 0.897635 0.304865 0.232788
C19   C     C_R   0.511569 0.873273 0.496949 -0.177329
C20   C     C_R   0.488350 0.931430 0.615783 0.077094
C21   C     C_3   0.375927 0.926215 0.703480 0.130240
C22   C     C_3   0.407120 0.063211 0.728341 0.301009
H5    H     H_    0.288389 0.911106 0.644717 0.047048
H6    H     H_    0.331206 0.124908 0.697384 0.063425
C23   C     C_R   0.453045 0.399082 0.074928 0.097717
N1    N     N_R   0.499160 0.499140 0.142800 -0.134939
C24   C     C_R   0.572114 0.585184 0.069354 0.294534
C25   C     C_R   0.572421 0.585254 0.925250 0.356377
N2    N     N_R   0.499160 0.499180 0.857150 -0.113465
C26   C     C_R   0.449245 0.401599 0.934228 0.017724
C27   C     C_3   0.324268 0.335719 0.932486 0.282238
C28   C     C_3   0.329536 0.331531 0.086679 0.009611
H7    H     H_    0.327358 0.245473 0.885084 0.158861
H8    H     H_    0.259438 0.385494 0.135182 0.211156
Br1   Br    Br    0.125884 0.578159 0.199427 -0.458622
Br2   Br    Br    0.386521 0.816727 0.863882 -0.318163
O9    O     O_3   0.446339 0.076406 0.865140 -0.565640
C29   C     C_3   0.568696 0.126650 0.880133 -0.078489
H9    H     H_    0.583521 0.213605 0.818332 0.182807
H10   H     H_    0.637161 0.057095 0.855336 0.201745
H11   H     H_    0.583621 0.150303 0.986622 0.232433
Br3   Br    Br    0.683584 0.699171 0.159856 -0.462982
Br4   Br    Br    0.678718 0.706788 0.828933 -0.449838
O10   O     O_3   0.229190 0.409145 0.881217 -0.570075
C30   C     C_3   0.116320 0.335634 0.882920 -0.221307
H12   H     H_    0.052504 0.374403 0.955451 0.227217
H13   H     H_    0.123163 0.234867 0.912907 0.149928
H14   H     H_    0.075350 0.338358 0.780276 0.199474
Br5   Br    Br    0.338695 0.162941 0.162445 -0.445030
O11   O     O_3   0.113448 0.735330 0.926672 -0.541721
C31   C     C_3   0.032515 0.830906 0.952258 -0.136625
H15   H     H_    0.949939 0.794000 0.010206 0.198351
H16   H     H_    0.003207 0.880435 0.857253 0.133643
H17   H     H_    0.082881 0.900629 0.014909 0.221680
Br6   Br    Br    0.798854 0.366912 0.824910 -0.598467
Br7   Br    Br    0.680447 0.161406 0.258633 -0.472782

loop_
_geom_bond_atom_site_label_1
_geom_bond_atom_site_label_2
_geom_bond_distance
_ccdc_geom_bond_type
O4    Zn2   2.014605 S    
C11   C12   1.400966 A    
C18   C19   1.402450 A    
C24   Br3   1.914973 S    
C3    C19   1.428032 S    
C16   C17   1.412889 A    
Zn1   N2    2.024841 S    
C4    C14   1.454140 S    
C24   C25   1.430358 A    
C18   H4    1.077426 S    
C21   C22   1.521954 S    
C29   H11   1.105013 S    
C28   Br5   1.940130 S    
Zn2   O8    2.007224 S    
C31   H17   1.109639 S    
O11   C31   1.411231 S    
C29   H10   1.111336 S    
C21   Br2   1.948037 S    
C22   H6    1.111420 S    
C6    C7    1.398829 A    
C9    C14   1.427406 A    
C15   C20   1.362679 A    
C30   H12   1.107147 S    
C6    O11   1.381008 S    
O1    Zn1   2.018983 S    
C9    C10   1.400902 A    
C26   C27   1.490220 S    
Zn1   O7    2.014604 S    
C17   C18   1.395419 A    
C1    C16   1.441716 S    
C13   C14   1.400965 A    
C23   C26   1.396002 A    
C22   O9    1.428311 S    
C29   H9    1.103022 S    
O3    Zn1   2.007225 S    
C2    C11   1.458550 S    
C25   Br4   1.925293 S    
O3    C2    1.305010 A    
N1    C24   1.375016 A    
C17   Br7   1.921422 S    
C12   C13   1.375011 A    
C19   C20   1.386516 A    
C7    C8    1.398355 A    
C23   C28   1.487346 S    
N2    C26   1.364975 A    
O4    C2    1.292624 A    
C20   C21   1.496193 S    
O7    C4    1.287758 A    
C28   H8    1.100073 S    
C27   O10   1.403074 S    
C30   H13   1.116980 S    
C31   H16   1.115193 S    
C25   N2    1.378591 A    
C5    H1    1.079140 S    
C15   C16   1.396145 A    
Zn1   O5    1.989861 S    
C12   Br1   1.913749 S    
C8    C9    1.420267 A    
C15   C22   1.506047 S    
Zn2   O6    2.018984 S    
C31   H15   1.112301 S    
C5    C10   1.406636 A    
C27   H7    1.095787 S    
C23   N1    1.361025 A    
C5    C6    1.395610 A    
O5    C3    1.289510 A    
C8    Br6   1.921502 S    
C7    H2    1.082847 S    
C30   H14   1.106252 S    
O2    C1    1.295322 A    
Zn2   N1    2.025857 S    
C21   H5    1.112458 S    
H3    C13   1.083602 S    
C27   C28   1.529978 S    
O10   C30   1.416782 S    
C10   C11   1.400056 A    
O2    Zn2   1.989861 S    
O9    C29   1.408415 S    
O8    C4    1.308180 A    
O1    C1    1.293447 A    
O6    C3    1.294866 A    
