data_mof_unit_26305.cif
_audit_creation_date              2013-03-05T15:53:32-0500
_audit_creation_method            fapswitch 2.2
_symmetry_space_group_name_H-M    P1
_symmetry_Int_Tables_number       1
_space_group_crystal_system       triclinic
_cell_length_a                    30.616645
_cell_length_b                    7.267648
_cell_length_c                    25.860046
_cell_angle_alpha                 90.011977
_cell_angle_beta                  112.454143
_cell_angle_gamma                 90.019148
_cell_volume                      5317.8965257

loop_
_atom_site_label
_atom_site_type_symbol
_atom_site_description
_atom_site_fract_x
_atom_site_fract_y
_atom_site_fract_z
_atom_type_partial_charge
O1    O     O_R   0.295360 0.592990 0.320420 -0.560656
O2    O     O_R   0.704640 0.407010 0.679580 -0.594286
O3    O     O_R   0.204640 0.092990 0.179580 -0.557175
O4    O     O_R   0.795360 0.907010 0.820420 -0.599166
O5    O     O_R   0.294060 0.265620 0.213230 -0.563375
O6    O     O_R   0.705940 0.734380 0.786770 -0.565492
O7    O     O_R   0.205940 0.765620 0.286770 -0.562085
O8    O     O_R   0.794060 0.234380 0.713230 -0.562761
C1    C     C_R   0.304168 0.431785 0.200099 1.067693
C2    C     C_R   0.694135 0.567044 0.798448 1.009550
C3    C     C_R   0.196534 0.931568 0.300785 1.043372
C4    C     C_R   0.804656 0.067006 0.699906 1.011918
O9    O     O_R   0.300850 0.263360 0.322080 -0.623121
O10   O     O_R   0.699150 0.736640 0.677920 -0.567222
O11   O     O_R   0.199150 0.763360 0.177920 -0.609570
O12   O     O_R   0.800850 0.236640 0.822080 -0.561278
O13   O     O_R   0.211480 0.091820 0.289210 -0.610052
O14   O     O_R   0.788520 0.908180 0.710790 -0.515097
O15   O     O_R   0.288520 0.591820 0.210790 -0.595907
O16   O     O_R   0.711480 0.408180 0.789210 -0.527582
C5    C     C_R   0.312988 0.431989 0.343817 1.045113
C6    C     C_R   0.686842 0.568971 0.656271 1.021828
C7    C     C_R   0.187292 0.931723 0.155976 1.069664
C8    C     C_R   0.812833 0.069082 0.844109 0.978232
O17   O     O_3   0.220670 0.426670 0.239090 -0.292222
O18   O     O_3   0.779330 0.573330 0.760910 -0.274399
O19   O     O_3   0.279330 0.926670 0.260910 -0.294937
O20   O     O_3   0.720670 0.073330 0.739090 -0.282948
V1    V     V_3+5 0.255440 0.152290 0.252020 1.212420
V2    V     V_3+5 0.744560 0.847710 0.747980 1.252448
V3    V     V_3+5 0.244560 0.652290 0.247980 1.219714
V4    V     V_3+5 0.755440 0.347710 0.752020 1.253191
C9    C     C_R   0.850265 0.065354 0.901629 -0.310795
C10   C     C_R   0.151795 0.940745 0.097556 -0.325701
C11   C     C_R   0.650742 0.566220 0.598181 -0.324358
C12   C     C_R   0.349540 0.443126 0.401522 -0.322937
C13   C     C_R   0.876913 0.117883 0.002311 0.541369
C14   C     C_R   0.129219 0.959649 0.996369 0.525458
C15   C     C_R   0.625150 0.639426 0.499067 0.532557
C16   C     C_R   0.373655 0.457283 0.502939 0.534258
C17   C     C_R   0.840938 0.124998 0.948361 0.171132
C18   C     C_R   0.164941 0.966158 0.051110 0.120204
C19   C     C_R   0.659195 0.653652 0.554138 0.153454
C20   C     C_R   0.337236 0.455645 0.448875 0.111997
C21   C     C_R   0.896501 0.011800 0.909384 -0.246276
C22   C     C_R   0.103764 0.932201 0.089001 -0.244757
C23   C     C_R   0.605721 0.492542 0.587861 -0.240403
C24   C     C_R   0.397399 0.449022 0.408783 -0.243255
C25   C     C_R   0.934037 0.013841 0.963186 0.050679
C26   C     C_R   0.067148 0.949304 0.034998 0.048445
C27   C     C_R   0.567912 0.507753 0.534497 0.055514
C28   C     C_R   0.434376 0.458238 0.462686 0.048647
C29   C     C_R   0.922567 0.050900 0.010391 -0.251633
C30   C     C_R   0.080417 0.956487 0.987986 -0.235821
C31   C     C_R   0.578834 0.573742 0.488996 -0.234535
C32   C     C_R   0.421963 0.443827 0.510026 -0.237907
C33   C     C_R   0.982669 0.983968 0.971457 0.061651
C34   C     C_R   0.017986 0.966548 0.026580 0.062914
C35   C     C_R   0.519403 0.468200 0.525547 0.069949
C36   C     C_R   0.483153 0.484202 0.470965 0.056462
C37   C     C_R   0.003215 0.975707 0.071822 -0.409881
C38   C     C_R   0.997249 0.982906 0.926195 -0.404145
C39   C     C_R   0.496240 0.537696 0.426667 -0.400935
C40   C     C_R   0.505578 0.424146 0.570122 -0.400132
C41   C     C_R   0.957121 0.025912 0.064834 0.643962
C42   C     C_R   0.044684 0.964506 0.933365 0.654930
C43   C     C_R   0.543016 0.578372 0.434580 0.657282
C44   C     C_R   0.457931 0.421547 0.563774 0.643804
H1    H     H_    0.096467 0.917147 0.126265 0.147160
H2    H     H_    0.902060 0.967854 0.872514 0.119997
H3    H     H_    0.404749 0.442528 0.371282 0.153434
H4    H     H_    0.600965 0.431790 0.623314 0.119749
H5    H     H_    0.027026 0.949204 0.113893 0.161994
H6    H     H_    0.972608 0.008490 0.884173 0.150943
H7    H     H_    0.470113 0.563094 0.385446 0.177217
H8    H     H_    0.531166 0.396468 0.611315 0.140638
C45   C     C_R   0.083085 0.836483 0.469211 0.527115
C46   C     C_R   0.922081 0.120621 0.533743 0.516061
C47   C     C_R   0.417676 0.330911 0.032098 0.527819
C48   C     C_R   0.576617 0.615495 0.963485 0.520328
N1    N     N_R   0.077252 0.961019 0.427046 -0.169891
N2    N     N_R   0.932587 0.018392 0.581893 -0.163837
N3    N     N_R   0.423488 0.457786 0.073711 -0.170588
N4    N     N_R   0.565953 0.510558 0.915811 -0.165171
C49   C     C_R   0.043401 0.095785 0.415039 0.554699
C50   C     C_R   0.971534 0.904995 0.599588 0.514841
C51   C     C_R   0.457071 0.593451 0.084705 0.548002
C52   C     C_R   0.527473 0.394697 0.899343 0.508835
C53   C     C_R   0.013365 0.106400 0.444708 -0.073605
C54   C     C_R   0.999533 0.884845 0.567562 -0.078736
C55   C     C_R   0.486822 0.602591 0.054605 -0.071380
C56   C     C_R   0.499969 0.375587 0.932037 -0.078371
C57   C     C_R   0.020262 0.985182 0.489559 -0.058695
C58   C     C_R   0.990986 0.998217 0.520706 -0.066040
C59   C     C_R   0.479818 0.479254 0.010207 -0.058559
C60   C     C_R   0.508674 0.491267 0.978475 -0.065290
C61   C     C_R   0.056155 0.850552 0.503058 -0.226914
C62   C     C_R   0.953036 0.123788 0.504797 -0.227175
C63   C     C_R   0.444217 0.343602 0.997733 -0.228341
C64   C     C_R   0.546338 0.618192 0.993360 -0.229158
C65   C     C_R   0.977031 0.237449 0.430807 -0.266825
C66   C     C_R   0.035952 0.754111 0.581686 -0.323215
C67   C     C_R   0.523018 0.734128 0.067684 -0.267888
C68   C     C_R   0.463863 0.243623 0.918979 -0.325167
C69   C     C_R   0.947108 0.247897 0.460343 0.651418
C70   C     C_R   0.064088 0.735331 0.550029 0.638417
C71   C     C_R   0.552582 0.743522 0.037651 0.648795
C72   C     C_R   0.436177 0.225947 0.951230 0.639142
O21   O     O_2   0.114425 0.698126 0.477849 -0.483169
O22   O     O_2   0.881133 0.215118 0.512847 -0.515682
O23   O     O_2   0.386748 0.191524 0.024498 -0.483520
O24   O     O_2   0.617007 0.714027 0.982816 -0.502005
O25   O     O_2   0.039061 0.221137 0.374879 -0.551857
O26   O     O_2   0.983832 0.813356 0.648464 -0.583878
O27   O     O_2   0.461409 0.721249 0.124235 -0.546758
O28   O     O_2   0.515058 0.299958 0.850974 -0.582265
H9    H     H_    0.971320 0.332689 0.396611 0.193327
H10   H     H_    0.042326 0.662611 0.616888 0.193702
H11   H     H_    0.528947 0.830459 0.101684 0.192775
H12   H     H_    0.457390 0.150318 0.884151 0.194500
C73   C     C_R   0.888528 0.872160 0.634891 -0.254258
C74   C     C_R   0.087917 0.944761 0.336663 -0.212377
C75   C     C_R   0.609429 0.368090 0.861276 -0.239076
C76   C     C_R   0.413408 0.448885 0.164708 -0.202153
H13   H     H_    0.900146 0.737593 0.627486 0.179428
H14   H     H_    0.049898 0.944634 0.314683 0.163266
H15   H     H_    0.598236 0.232345 0.868315 0.182643
H16   H     H_    0.451437 0.452395 0.186503 0.160531
C77   C     C_R   0.859909 0.884190 0.666306 0.585336
C78   C     C_R   0.117042 0.935270 0.305866 0.549502
C79   C     C_R   0.637246 0.384146 0.828996 0.543545
C80   C     C_R   0.384543 0.440806 0.195941 0.547630
C81   C     C_R   0.838658 0.054332 0.670666 -0.471180
C82   C     C_R   0.166569 0.938057 0.333846 -0.451067
C83   C     C_R   0.658216 0.554844 0.825111 -0.454157
C84   C     C_R   0.335027 0.437859 0.168134 -0.439252
C85   C     C_R   0.850029 0.210927 0.645823 0.517312
C86   C     C_R   0.186630 0.936550 0.393288 0.562515
C87   C     C_R   0.643860 0.712216 0.846699 0.504553
C88   C     C_R   0.314983 0.431031 0.109287 0.562540
C89   C     C_R   0.884462 0.200587 0.622402 -0.260622
C90   C     C_R   0.156827 0.945465 0.423000 -0.132981
C91   C     C_R   0.610709 0.697062 0.871943 -0.242428
C92   C     C_R   0.344152 0.439520 0.078671 -0.177789
H17   H     H_    0.894695 0.326194 0.607496 0.178239
H18   H     H_    0.172468 0.945858 0.468299 0.173747
H19   H     H_    0.598199 0.821538 0.884799 0.168444
H20   H     H_    0.328076 0.435743 0.033415 0.170334
C93   C     C_R   0.902309 0.030430 0.613785 0.103163
C94   C     C_R   0.107459 0.951593 0.395373 0.066770
C95   C     C_R   0.595370 0.524715 0.882883 0.102728
C96   C     C_R   0.393572 0.449792 0.105850 0.082383
O29   O     O_3   0.943992 0.031187 0.110723 -0.576697
C97   C     C_3   0.973852 0.149335 0.152890 -0.149921
H21   H     H_    0.954040 0.199369 0.178165 0.180869
H22   H     H_    0.985236 0.272896 0.135725 0.097992
H23   H     H_    0.005080 0.072814 0.181566 0.166432
O30   O     O_3   0.056408 0.975685 0.886660 -0.572202
C98   C     C_3   0.036900 0.824837 0.850709 -0.186602
H24   H     H_    0.041919 0.692187 0.873896 0.109931
H25   H     H_    0.055308 0.812452 0.821323 0.184080
H26   H     H_    0.998853 0.847768 0.825145 0.122519
O31   O     O_3   0.552634 0.644976 0.389777 -0.568582
C99   C     C_3   0.543482 0.507333 0.348394 -0.191048
H27   H     H_    0.556725 0.369470 0.366505 0.116987
H28   H     H_    0.562172 0.544555 0.320621 0.180073
H29   H     H_    0.505195 0.500855 0.321993 0.165973
O32   O     O_3   0.445824 0.376459 0.608871 -0.578253
C100  C     C_3   0.468804 0.493115 0.655092 -0.152904
H30   H     H_    0.447528 0.496840 0.681483 0.183923
H31   H     H_    0.472042 0.637596 0.642517 0.101449
H32   H     H_    0.504080 0.437090 0.681318 0.116779
O33   O     O_3   0.825531 0.373360 0.640874 -0.572452
C101  C     C_3   0.791299 0.388255 0.585618 0.029380
H33   H     H_    0.755553 0.373135 0.586613 0.142284
H34   H     H_    0.794369 0.285944 0.554918 0.099039
H35   H     H_    0.794321 0.526408 0.569093 0.171676
O34   O     O_3   0.233974 0.898571 0.423892 -0.583332
C102  C     C_3   0.263949 0.032595 0.415618 -0.089948
H36   H     H_    0.245787 0.164155 0.398019 0.150519
H37   H     H_    0.281026 0.976026 0.388133 0.137148
H38   H     H_    0.292583 0.063024 0.456577 0.163272
O35   O     O_3   0.660186 0.883952 0.840678 -0.602227
C103  C     C_3   0.694571 0.937755 0.892508 0.066561
H39   H     H_    0.724671 0.839067 0.907173 0.107368
H40   H     H_    0.679122 0.955896 0.924761 0.127638
H41   H     H_    0.708582 0.072667 0.886561 0.210206
O36   O     O_3   0.267644 0.390778 0.081665 -0.560399
C104  C     C_3   0.242121 0.555877 0.066133 -0.138886
H42   H     H_    0.257643 0.650872 0.043900 0.142114
H43   H     H_    0.239631 0.623782 0.103285 0.161425
H44   H     H_    0.205558 0.522403 0.037317 0.151753
N5    N     N_R   0.213550 0.003756 0.058362 0.239011
O37   O     O_R   0.248656 0.971789 0.105435 -0.419493
O38   O     O_R   0.223060 0.081512 0.018546 -0.310956
N6    N     N_R   0.795198 0.194019 0.942124 0.210353
O39   O     O_R   0.776347 0.328975 0.907852 -0.430903
O40   O     O_R   0.777138 0.149791 0.978555 -0.382669
N7    N     N_R   0.288362 0.467845 0.443067 0.225974
O41   O     O_R   0.256332 0.539930 0.398782 -0.384655
O42   O     O_R   0.275482 0.410533 0.482805 -0.353413
N8    N     N_R   0.701096 0.763044 0.564269 0.230316
O43   O     O_R   0.741444 0.719541 0.603119 -0.416012
O44   O     O_R   0.698625 0.912373 0.535506 -0.377381
O45   O     O_3   0.867447 0.183387 0.047232 -0.538358
C105  C     C_3   0.876564 0.374426 0.052234 -0.022555
H45   H     H_    0.871879 0.424877 0.090270 0.168042
H46   H     H_    0.851283 0.450649 0.015806 0.140873
H47   H     H_    0.913510 0.406298 0.057121 0.065757
O46   O     O_3   0.141966 0.970155 0.950544 -0.541551
C106  C     C_3   0.154135 0.792678 0.938319 -0.049452
H48   H     H_    0.190864 0.758824 0.966144 0.118009
H49   H     H_    0.152657 0.792483 0.894791 0.160611
H50   H     H_    0.129411 0.683832 0.941013 0.075545
O47   O     O_3   0.636493 0.703292 0.455326 -0.544791
C107  C     C_3   0.663575 0.567646 0.442121 -0.044883
H51   H     H_    0.698802 0.550569 0.476510 0.107121
H52   H     H_    0.669533 0.612406 0.404336 0.165178
H53   H     H_    0.644767 0.433068 0.432263 0.100904
O48   O     O_3   0.361849 0.478655 0.549181 -0.547452
C108  C     C_3   0.359605 0.668753 0.559200 -0.034117
H54   H     H_    0.352068 0.686320 0.597590 0.158006
H55   H     H_    0.330580 0.736595 0.524191 0.148626
H56   H     H_    0.393786 0.738773 0.566408 0.076140
O49   O     O_3   0.911773 0.379219 0.444686 -0.570707
C109  C     C_3   0.931024 0.545592 0.472045 -0.122461
H57   H     H_    0.944994 0.529360 0.518362 0.123726
H58   H     H_    0.902589 0.650494 0.460617 0.174403
H59   H     H_    0.959154 0.598660 0.458619 0.112281
O50   O     O_3   0.097950 0.598277 0.564072 -0.580349
C110  C     C_3   0.138037 0.659278 0.609717 -0.110976
H60   H     H_    0.152170 0.790081 0.599809 0.130142
H61   H     H_    0.166165 0.553795 0.618820 0.172858
H62   H     H_    0.130146 0.675899 0.648034 0.103135
O51   O     O_3   0.588057 0.874367 0.052884 -0.568237
C111  C     C_3   0.568786 0.041056 0.025865 -0.109734
H63   H     H_    0.554305 0.025039 0.979529 0.122728
H64   H     H_    0.597335 0.145504 0.036933 0.177552
H65   H     H_    0.541066 0.094520 0.039919 0.108099
O52   O     O_3   0.402661 0.087638 0.938233 -0.581043
C112  C     C_3   0.362168 0.145733 0.892654 -0.118213
H66   H     H_    0.347873 0.276726 0.902181 0.129546
H67   H     H_    0.334334 0.039314 0.884389 0.170499
H68   H     H_    0.369617 0.160685 0.853993 0.106483
O53   O     O_3   0.850275 0.725271 0.689268 -0.533231
C113  C     C_3   0.888880 0.687449 0.739517 -0.092732
H69   H     H_    0.880325 0.563936 0.759057 0.166179
H70   H     H_    0.895504 0.803163 0.769835 0.056930
H71   H     H_    0.921365 0.656041 0.731611 0.115857
O54   O     O_3   0.097177 0.925762 0.248074 -0.645647
C114  C     C_3   0.079884 0.745626 0.232496 -0.269197
H72   H     H_    0.048632 0.717909 0.243250 0.158598
H73   H     H_    0.107786 0.640169 0.251866 0.169760
H74   H     H_    0.068328 0.731390 0.186546 0.157343
O55   O     O_3   0.644181 0.230518 0.801772 -0.566616
C115  C     C_3   0.606001 0.215707 0.749707 -0.069904
H75   H     H_    0.603231 0.339629 0.723303 0.046461
H76   H     H_    0.572131 0.191752 0.755232 0.124538
H77   H     H_    0.612237 0.095446 0.726998 0.164157
O56   O     O_3   0.404721 0.440039 0.253761 -0.640531
C116  C     C_3   0.421604 0.261051 0.271680 -0.286658
H78   H     H_    0.449912 0.220327 0.256891 0.157316
H79   H     H_    0.392362 0.158502 0.257835 0.176029
H80   H     H_    0.437353 0.258776 0.318041 0.164646

loop_
_geom_bond_atom_site_label_1
_geom_bond_atom_site_label_2
_geom_bond_distance
_ccdc_geom_bond_type
O17   V3    1.774017 S    
N3    C51   1.373335 A    
O1    C5    1.333335 A    
C57   C58   1.418676 A    
C51   C55   1.407701 A    
O19   V1    1.774558 S    
C9    C21   1.406793 A    
C100  H30   1.109236 S    
C90   H18   1.083075 S    
O3    C7    1.334156 A    
C59   C60   1.419621 A    
C10   C18   1.417041 A    
C107  H53   1.113811 S    
C56   C60   1.405306 A    
C48   N4    1.378451 A    
C11   C23   1.405823 A    
O34   C102  1.409342 S    
C89   C93   1.403871 A    
C92   H20   1.082888 S    
C80   O56   1.382675 S    
C5    C12   1.486595 S    
C77   O53   1.381093 S    
O33   C101  1.417076 S    
C111  H63   1.113556 S    
C81   C85   1.414230 A    
C6    C11   1.486702 S    
C35   C40   1.408279 A    
C26   C30   1.422376 A    
C62   C69   1.417463 A    
N8    O44   1.301610 A    
C36   C39   1.405235 A    
C74   C94   1.404100 A    
O9    V1    1.985320 S    
C99   H27   1.114914 S    
C107  H52   1.109119 S    
C14   C18   1.421117 A    
C108  H56   1.113302 S    
C79   C83   1.417782 A    
C116  H78   1.112779 S    
O4    C8    1.340825 A    
C79   O55   1.378887 S    
C114  H73   1.114365 S    
C58   C62   1.409900 A    
C59   C63   1.412304 A    
N1    C94   1.452430 S    
C115  H77   1.109385 S    
N1    C49   1.372880 A    
C68   C72   1.403776 A    
O1    V3    1.972097 S    
O13   V1    1.979419 S    
C103  H39   1.114053 S    
C76   C80   1.407862 A    
O2    V4    1.972096 S    
C112  H66   1.114053 S    
C2    C83   1.507288 S    
O3    V1    1.971695 S    
C101  H33   1.109911 S    
C54   C66   1.403272 A    
C22   H1    1.074683 S    
C41   O29   1.391268 S    
C28   C36   1.437791 A    
O31   C99   1.412359 S    
C87   C91   1.405173 A    
N7    O41   1.300138 A    
C1    O15   1.326710 A    
C15   C31   1.422628 A    
C52   C56   1.409626 A    
C111  H64   1.109262 S    
O20   V2    1.774558 S    
C16   C32   1.422581 A    
C115  H76   1.113166 S    
C46   C62   1.414558 A    
O51   C111  1.410601 S    
C98   H25   1.109238 S    
C45   C61   1.416942 A    
C10   C22   1.402418 A    
C69   O49   1.382559 S    
O8    C4    1.337583 A    
C11   C19   1.411854 A    
C73   C77   1.406821 A    
C16   C20   1.416774 A    
O5    V1    1.997113 S    
C66   H10   1.083336 S    
C84   C88   1.407641 A    
C76   H16   1.082886 S    
C102  H38   1.108977 S    
C13   C29   1.418386 A    
C74   H14   1.082864 S    
C34   C37   1.407821 A    
O11   C7    1.339495 A    
C76   C96   1.406945 A    
O15   V3    1.979531 S    
C35   C36   1.428678 A    
O12   C8    1.335280 A    
O53   C113  1.410062 S    
C16   O48   1.383812 S    
C13   C17   1.410138 A    
C100  H31   1.114834 S    
C78   C82   1.408943 A    
O10   V2    1.985320 S    
O48   C108  1.412120 S    
C22   C26   1.423626 A    
C54   C58   1.404982 A    
C109  H57   1.113648 S    
C75   C95   1.406038 A    
C78   O54   1.383415 S    
C65   C69   1.401068 A    
C113  H70   1.114094 S    
O7    V3    1.997264 S    
N8    O43   1.299103 A    
C38   C42   1.398540 A    
C88   O36   1.380297 S    
C102  H37   1.109720 S    
C72   O52   1.382769 S    
C33   C38   1.403017 A    
C18   N5    1.452987 S    
C107  H51   1.112194 S    
C97   H23   1.110062 S    
N6    O40   1.301751 A    
C86   C90   1.400986 A    
C3    C82   1.474461 S    
C2    O16   1.330147 A    
C116  H79   1.113452 S    
C49   C53   1.406875 A    
C105  H45   1.109127 S    
O56   C116  1.411309 S    
C114  H74   1.107539 S    
C15   C19   1.411132 A    
C37   H5    1.070757 S    
O54   C114  1.411711 S    
C32   C44   1.414842 A    
O4    V2    1.971698 S    
C70   O50   1.382776 S    
O36   C104  1.404555 S    
C112  H67   1.109247 S    
C26   C34   1.441691 A    
C97   H22   1.114907 S    
C52   O28   1.348845 S    
C104  H44   1.109102 S    
O7    C3    1.322354 A    
O35   C103  1.406867 S    
C1    C84   1.474592 S    
C39   C43   1.398592 A    
C73   H13   1.082508 S    
C108  H54   1.109104 S    
C63   C72   1.418174 A    
C37   C41   1.401061 A    
C46   N2    1.378589 A    
C57   C61   1.412336 A    
C75   H15   1.082284 S    
C98   H24   1.114690 S    
C14   C30   1.425672 A    
C21   C25   1.426627 A    
C80   C84   1.408203 A    
C7    C10   1.487846 S    
C115  H75   1.113820 S    
C48   O24   1.348678 S    
C19   N8    1.445329 S    
N5    O38   1.301338 A    
O49   C109  1.410891 S    
C40   H8    1.073167 S    
C98   H26   1.110714 S    
O9    C5    1.340095 A    
C46   O22   1.348561 S    
C14   O46   1.384124 S    
C45   O21   1.348585 S    
C101  H35   1.108883 S    
C97   H21   1.109208 S    
C102  H36   1.112522 S    
O14   V2    1.979424 S    
C61   C70   1.418040 A    
C44   O32   1.391095 S    
O32   C100  1.413954 S    
O6    V2    1.997113 S    
O46   C106  1.411574 S    
C109  H58   1.109271 S    
C4    C81   1.505080 S    
C110  H61   1.109242 S    
C50   C54   1.408727 A    
O30   C98   1.413484 S    
C100  H32   1.110447 S    
C77   C81   1.421824 A    
C12   C20   1.414946 A    
C27   C35   1.441889 A    
C24   H3    1.077031 S    
C71   O51   1.382572 S    
O55   C115  1.410107 S    
C86   O34   1.388397 S    
C40   C44   1.404401 A    
C91   H19   1.083045 S    
C42   O30   1.387578 S    
C87   O35   1.375145 S    
C85   C89   1.404148 A    
C51   O27   1.349465 S    
N3    C96   1.454137 S    
O16   V4    1.979528 S    
C47   C63   1.417826 A    
C104  H42   1.114323 S    
C106  H49   1.109141 S    
O45   C105  1.412230 S    
C113  H69   1.109439 S    
C3    O13   1.326589 A    
C64   C71   1.417842 A    
C75   C79   1.406723 A    
C21   H2    1.078877 S    
C13   O45   1.384603 S    
C99   H29   1.109532 S    
C67   H11   1.083462 S    
N4    C52   1.376348 A    
C55   C67   1.403295 A    
N6    O39   1.300206 A    
C49   O25   1.349538 S    
C53   C65   1.403287 A    
C82   C86   1.420933 A    
C116  H80   1.108399 S    
C23   C27   1.427066 A    
C103  H41   1.104179 S    
O11   V3    1.986001 S    
C30   C42   1.419522 A    
C89   H17   1.082736 S    
C114  H72   1.112044 S    
O12   V4    1.986003 S    
C109  H59   1.113246 S    
C83   C87   1.414384 A    
C8    C9    1.491491 S    
C103  H40   1.112721 S    
C111  H65   1.113178 S    
C47   O23   1.348536 S    
C50   O26   1.349035 S    
C112  H68   1.112476 S    
C15   O47   1.384096 S    
C65   H9    1.083464 S    
C90   C94   1.404342 A    
C99   H28   1.109200 S    
C85   O33   1.378360 S    
O29   C97   1.414106 S    
C9    C17   1.411882 A    
C31   C43   1.416041 A    
C108  H55   1.112815 S    
N2    C50   1.376398 A    
O2    C6    1.339995 A    
C47   N3    1.375908 A    
C105  H47   1.113449 S    
O10   C6    1.333633 A    
C33   C34   1.428253 A    
C25   C33   1.437638 A    
O8    V4    1.997271 S    
C39   H7    1.076586 S    
C29   C41   1.413076 A    
C25   C29   1.418966 A    
C60   C64   1.410286 A    
C91   C95   1.403823 A    
O52   C112  1.410279 S    
C73   C93   1.405295 A    
C12   C24   1.404951 A    
C110  H62   1.112481 S    
C27   C31   1.423746 A    
O47   C107  1.411610 S    
C53   C57   1.406912 A    
O50   C110  1.410293 S    
C45   N1    1.375418 A    
C101  H34   1.117490 S    
C23   H4    1.076469 S    
N2    C93   1.459881 S    
O6    C2    1.335677 A    
C56   C68   1.403510 A    
C55   C59   1.406778 A    
C106  H48   1.106792 S    
N4    C95   1.460371 S    
C43   O31   1.387151 S    
C24   C28   1.422553 A    
C106  H50   1.115135 S    
C20   N7    1.448433 S    
C92   C96   1.405882 A    
N5    O37   1.300723 A    
C66   C70   1.403420 A    
C4    O14   1.327279 A    
C110  H60   1.114055 S    
N7    O42   1.301776 A    
C38   H6    1.076357 S    
C67   C71   1.401459 A    
O5    C1    1.322748 A    
C104  H43   1.108235 S    
C88   C92   1.402945 A    
C105  H46   1.112164 S    
C17   N6    1.437638 S    
C74   C78   1.405950 A    
O18   V4    1.774018 S    
C48   C64   1.415526 A    
C28   C32   1.417565 A    
C68   H12   1.083323 S    
C113  H71   1.112901 S    
