data_mof_unit_57057.cif
_audit_creation_date              2012-12-11T15:59:41-0500
_audit_creation_method            fapswitch 2.2
_symmetry_space_group_name_H-M    P1
_symmetry_Int_Tables_number       1
_space_group_crystal_system       triclinic
_cell_length_a                    10.731067
_cell_length_b                    10.730987
_cell_length_c                    17.10167
_cell_angle_alpha                 100.003277
_cell_angle_beta                  99.742108
_cell_angle_gamma                 60.390785
_cell_volume                      1678.13113129

loop_
_atom_site_label
_atom_site_type_symbol
_atom_type_description
_atom_site_fract_x
_atom_site_fract_y
_atom_site_fract_z
_atom_type_partial_charge
C1    C     C_R   0.354722 0.777488 0.401712 0.543698
C2    C     C_R   0.851905 0.317769 0.331316 -0.001646
C3    C     C_R   0.317822 0.862093 0.168823 0.006316
C4    C     C_R   0.398516 0.367619 0.353952 0.570977
C5    C     C_R   0.453761 0.813889 0.212262 0.017635
C6    C     C_R   0.462247 0.820719 0.296058 0.032906
C7    C     C_R   0.205201 0.898125 0.287809 -0.156332
C8    C     C_R   0.194397 0.907881 0.208038 -0.141016
C9    C     C_R   0.580891 0.758528 0.174596 -0.095170
C10   C     C_R   0.711976 0.724329 0.219638 -0.136884
C11   C     C_R   0.718097 0.748070 0.302443 -0.134747
C12   C     C_R   0.811608 0.236475 0.191826 0.010024
C13   C     C_R   0.594350 0.798464 0.340459 -0.057430
C14   C     C_R   0.338918 0.846025 0.331516 0.001051
C15   C     C_R   0.299108 0.275098 0.799190 -0.002099
C16   C     C_R   0.780316 0.372420 0.404745 0.555290
C17   C     C_R   0.426356 0.174200 0.762543 0.032280
C18   C     C_R   0.477727 0.222661 0.711344 0.020625
C19   C     C_R   0.246243 0.443779 0.705944 -0.139564
C20   C     C_R   0.208665 0.408266 0.769212 -0.139121
C21   C     C_R   0.508044 0.028372 0.778711 -0.103278
C22   C     C_R   0.647243 0.941504 0.756692 -0.118864
C23   C     C_R   0.822592 0.220957 0.273242 0.016774
C24   C     C_R   0.708128 0.998659 0.718040 -0.002130
C25   C     C_R   0.624073 0.137740 0.695348 -0.096944
C26   C     C_R   0.379638 0.351583 0.675899 -0.009387
C27   C     C_1   0.772354 0.367669 0.714744 -0.061206
C28   C     C_R   0.357877 0.769314 0.627482 0.545064
C29   C     C_1   0.816599 0.328668 0.780521 -0.044649
C30   C     C_1   0.339094 0.809068 0.709522 -0.040986
C31   C     C_1   0.313437 0.836483 0.777582 -0.045189
C32   C     C_R   0.897872 0.308333 0.089984 0.527059
C33   C     C_R   0.296725 0.268678 0.124445 0.565395
C34   C     C_R   0.912112 0.393781 0.309504 -0.141168
C35   C     C_R   0.291567 0.895763 0.087128 0.535508
C36   C     C_R   0.880676 0.300201 0.860138 0.548474
C37   C     C_R   0.278938 0.252058 0.876998 0.551295
C38   C     C_R   0.279509 0.883865 0.857375 0.546449
C39   C     C_R   0.406792 0.375101 0.600185 0.529383
C40   C     C_R   0.720450 0.411013 0.635855 0.532185
C41   C     C_1   0.354749 0.341227 0.273314 -0.031104
C42   C     C_1   0.323750 0.312093 0.205093 -0.036469
C43   C     C_R   0.863849 0.322053 0.170553 0.008930
C44   C     C_1   0.855507 0.913836 0.699706 0.194360
C45   C     C_R   0.922514 0.391745 0.230114 -0.142712
C46   C     C_R   0.753625 0.162053 0.134356 -0.085389
C47   C     C_R   0.725390 0.060448 0.156498 -0.099101
C48   C     C_R   0.751446 0.034174 0.235755 -0.132482
C49   C     C_R   0.801566 0.111155 0.293519 -0.098073
Cr1   Cr    Cr6+3 0.608100 0.610860 0.522250 1.014525
Cr2   Cr    Cr6+3 0.288890 0.599990 0.488420 1.027496
Cr3   Cr    Cr6+3 0.603040 0.289190 0.489390 1.003956
Cr4   Cr    Cr6+3 0.053960 0.052250 0.967380 1.021800
Cr5   Cr    Cr6+3 0.059890 0.373160 0.992710 1.016333
Cr6   Cr    Cr6+3 0.373370 0.061690 0.991710 0.988785
H1    H     H_    0.944468 0.460691 0.353577 0.140721
H2    H     H_    0.729966 0.181143 0.072199 0.139198
H3    H     H_    0.976026 0.446577 0.215460 0.135624
H4    H     H_    0.685652 0.000173 0.111995 0.138079
H5    H     H_    0.731200 0.955561 0.253270 0.134500
H6    H     H_    0.827966 0.079806 0.353353 0.138037
H7    H     H_    0.109618 0.922973 0.314321 0.137037
H8    H     H_    0.580755 0.739624 0.110402 0.132544
H9    H     H_    0.087121 0.951011 0.176980 0.162358
H10   H     H_    0.807846 0.686259 0.190052 0.120636
H11   H     H_    0.818719 0.729672 0.337245 0.105544
H12   H     H_    0.603386 0.823878 0.404396 0.145309
H13   H     H_    0.171247 0.543643 0.680779 0.171968
H14   H     H_    0.466291 0.980975 0.809641 0.153730
H15   H     H_    0.109570 0.485434 0.795049 0.150923
H16   H     H_    0.708426 0.831619 0.772051 0.120765
H17   H     H_    0.674318 0.177657 0.664903 0.151934
N1    N     N_1   0.973940 0.845940 0.685000 -0.292832
O1    O     O_R   0.749810 0.499790 0.438040 -0.506902
O2    O     O_R   0.411730 0.181020 0.091530 -0.509906
O3    O     O_R   0.365010 0.944360 0.063320 -0.522260
O4    O     O_R   0.477660 0.726260 0.439290 -0.510497
O5    O     O_R   0.159380 0.906670 0.876210 -0.481851
O6    O     O_R   0.930820 0.177420 0.886730 -0.486514
O7    O     O_R   0.910360 0.395420 0.895720 -0.522344
O8    O     O_R   0.186010 0.361730 0.919870 -0.486323
O9    O     O_R   0.400000 0.173010 0.914630 -0.513663
O10   O     O_R   0.354140 0.936940 0.899340 -0.541240
O11   O     O_3   0.162410 0.162370 0.983930 -0.280467
O12   O     O_R   0.298970 0.468800 0.557390 -0.483431
O13   O     O_R   0.260150 0.743000 0.412270 -0.521141
O14   O     O_R   0.297740 0.466550 0.394720 -0.491721
O15   O     O_R   0.488080 0.253500 0.386430 -0.502918
O16   O     O_R   0.722670 0.303800 0.421940 -0.519115
O17   O     O_R   0.751130 0.502220 0.613520 -0.488909
O18   O     O_R   0.478890 0.728510 0.601960 -0.511112
O19   O     O_R   0.261470 0.745430 0.587750 -0.496516
O20   O     O_R   0.489400 0.255930 0.561910 -0.514177
O21   O     O_R   0.723890 0.306050 0.584610 -0.521438
O22   O     O_3   0.500010 0.500010 0.500020 -0.294922
O23   O     O_R   0.171100 0.914680 0.053100 -0.516770
O24   O     O_R   0.941680 0.184840 0.050710 -0.511081
O25   O     O_R   0.922080 0.403420 0.072610 -0.533141
O26   O     O_R   0.196880 0.369150 0.083850 -0.489145

loop_
_geom_bond_atom_site_label_1
_geom_bond_atom_site_label_2
_ccdc_geom_bond_type
C34   H1    S    
C38   O10   A    
C27   C29   T    
C1    O4    A    
C41   C42   T    
C19   C20   A    
C18   C26   A    
C20   H15   S    
Cr2   O12   S    
Cr5   O11   S    
Cr5   O26   S    
C7    C8    A    
C4    O14   A    
C35   O23   A    
C29   C36   S    
Cr4   O11   S    
C16   O1    A    
C33   C42   S    
Cr4   O6    S    
C12   C43   A    
Cr1   O1    S    
C30   C31   T    
C26   C39   S    
C23   C49   A    
C4    C41   S    
C32   O24   A    
Cr3   O22   S    
C19   C26   A    
C39   O20   A    
Cr1   O17   S    
C7    C14   A    
C15   C37   S    
Cr3   O21   S    
C2    C16   S    
C9    C10   A    
C11   H11   S    
Cr6   O2    S    
C2    C34   A    
C16   O16   A    
C21   C22   A    
Cr4   O23   S    
C37   O8    A    
Cr3   O16   S    
C18   C25   A    
Cr2   O13   S    
C33   O2    A    
C48   H5    S    
Cr5   O7    S    
C15   C20   A    
C45   H3    S    
C35   O3    A    
C49   H6    S    
Cr3   O15   S    
C24   C25   A    
C12   C46   A    
C3    C8    A    
C36   O7    A    
Cr2   O14   S    
C25   H17   S    
C38   O5    A    
Cr4   O24   S    
C17   C21   A    
C19   H13   S    
C21   H14   S    
C33   O26   A    
C7    H7    S    
C5    C9    A    
Cr2   O19   S    
C6    C14   A    
C47   C48   A    
C12   C23   A    
C3    C35   S    
C27   C40   S    
C17   C18   A    
Cr3   O20   S    
C28   O19   A    
C34   C45   A    
Cr6   O9    S    
C43   C45   A    
C8    H9    S    
Cr6   O3    S    
C48   C49   A    
C46   H2    S    
C24   C44   S    
C22   C24   A    
C37   O9    A    
C39   O12   A    
Cr6   O10   S    
Cr1   O4    S    
C22   H16   S    
C13   H12   S    
C10   H10   S    
C1    O13   A    
C15   C17   A    
C46   C47   A    
C9    H8    S    
C40   O21   A    
C3    C5    A    
C36   O6    A    
C4    O15   A    
C31   C38   S    
C28   C30   S    
Cr4   O5    S    
C6    C13   A    
C11   C13   A    
C5    C6    A    
C32   C43   S    
C32   O25   A    
C28   O18   A    
C44   N1    T    
Cr1   O22   S    
C10   C11   A    
C47   H4    S    
Cr1   O18   S    
C2    C23   A    
Cr5   O25   S    
C1    C14   S    
C40   O17   A    
Cr6   O11   S    
Cr5   O8    S    
Cr2   O22   S    
