data_mof_unit_60504.cif
_audit_creation_date              2012-12-10T20:03:54-0500
_audit_creation_method            fapswitch 2.2
_symmetry_space_group_name_H-M    P1
_symmetry_Int_Tables_number       1
_space_group_crystal_system       triclinic
_cell_length_a                    19.289149
_cell_length_b                    18.495756
_cell_length_c                    10.745662
_cell_angle_alpha                 90.00569
_cell_angle_beta                  90.985596
_cell_angle_gamma                 91.061873
_cell_volume                      3832.47601292

loop_
_atom_site_label
_atom_site_type_symbol
_atom_type_description
_atom_site_fract_x
_atom_site_fract_y
_atom_site_fract_z
_atom_type_partial_charge
C1    C     C_R   0.365654 0.499148 0.503692 0.925992
C2    C     C_R   0.964933 0.499736 0.586752 -0.111273
C3    C     C_R   0.551313 0.726792 0.441295 0.003428
C4    C     C_R   0.448632 0.724920 0.558402 -0.017721
C5    C     C_R   0.552824 0.802723 0.440335 0.078137
C6    C     C_R   0.447228 0.800795 0.559261 0.073008
C7    C     C_R   0.500042 0.841010 0.499747 -0.031430
C8    C     C_R   0.487286 0.960295 0.389242 -0.113707
C9    C     C_R   0.512652 0.960807 0.610129 -0.108605
C10   C     C_R   0.487323 0.036234 0.389110 -0.153835
C11   C     C_R   0.512313 0.036722 0.610333 -0.152097
C12   C     C_R   0.634554 0.500901 0.502983 0.929760
C13   C     C_R   0.499763 0.075810 0.499738 0.139922
C14   C     C_R   0.498330 0.499904 0.262351 0.949255
C15   C     C_R   0.501386 0.499956 0.737649 0.955509
C16   C     C_R   0.500045 0.921787 0.499675 0.152539
C17   C     C_R   0.544655 0.197322 0.578138 -0.269012
C18   C     C_R   0.454923 0.195782 0.421675 -0.265496
C19   C     C_R   0.544160 0.273278 0.577864 0.280589
C20   C     C_R   0.455572 0.271788 0.422338 0.291591
C21   C     C_R   0.499782 0.157177 0.499791 0.051101
C22   C     C_2   0.496081 0.439018 0.932916 -0.117409
C23   C     C_R   0.710139 0.502738 0.499495 -0.170673
C24   C     C_2   0.500541 0.438915 0.066806 -0.125021
C25   C     C_2   0.507587 0.499900 0.869282 -0.312871
C26   C     C_2   0.491255 0.499704 0.130779 -0.315697
C27   C     C_R   0.749993 0.564561 0.536114 0.134079
C28   C     C_R   0.252453 0.436684 0.549444 0.149004
C29   C     C_R   0.821848 0.565001 0.517820 0.131860
C30   C     C_R   0.180269 0.433711 0.531740 0.132169
C31   C     C_R   0.853464 0.501938 0.474626 -0.076325
C32   C     C_R   0.146529 0.493247 0.477908 -0.075296
C33   C     C_R   0.813958 0.439968 0.443990 0.172194
C34   C     C_R   0.290230 0.496746 0.502269 -0.168389
C35   C     C_R   0.184212 0.554126 0.437435 0.175513
C36   C     C_R   0.742752 0.441323 0.454143 -0.224430
C37   C     C_R   0.255690 0.554814 0.447645 -0.240588
C38   C     C_R   0.963179 0.494949 0.360340 -0.110442
C39   C     C_R   0.035033 0.491922 0.361248 -0.107319
C40   C     C_R   0.071507 0.494646 0.474916 0.140731
C41   C     C_R   0.928368 0.498637 0.473276 0.141510
C42   C     C_R   0.036554 0.499224 0.587458 -0.114550
H1    H     H_    0.484137 0.387914 0.886681 0.199600
H2    H     H_    0.937874 0.502302 0.674148 0.159895
H3    H     H_    0.477474 0.931430 0.302835 0.158357
H4    H     H_    0.522526 0.932346 0.696530 0.160975
H5    H     H_    0.478534 0.063904 0.301678 0.146805
H6    H     H_    0.520979 0.064714 0.697822 0.148136
H7    H     H_    0.581008 0.169958 0.638882 0.173660
H8    H     H_    0.418425 0.167157 0.360996 0.173858
H9    H     H_    0.591603 0.697378 0.395601 0.169582
H10   H     H_    0.408261 0.694079 0.604094 0.163981
H11   H     H_    0.511057 0.387822 0.112676 0.192599
H12   H     H_    0.523563 0.550582 0.912658 0.159710
H13   H     H_    0.476487 0.550254 0.087664 0.157050
H14   H     H_    0.712858 0.393537 0.427048 0.202628
H15   H     H_    0.284351 0.601264 0.412731 0.195876
H16   H     H_    0.934701 0.494126 0.272564 0.160591
H17   H     H_    0.062263 0.488324 0.274196 0.161555
H18   H     H_    0.064878 0.501616 0.675381 0.159142
I1    I     I_    0.637452 0.855470 0.352601 -0.269257
I2    I     I_    0.136804 0.648407 0.364634 -0.259656
I3    I     I_    0.362751 0.850466 0.647213 -0.290145
I4    I     I_    0.615145 0.323650 0.704664 -0.304559
I5    I     I_    0.383979 0.320088 0.297568 -0.275897
I6    I     I_    0.705751 0.654036 0.632511 -0.238460
I7    I     I_    0.301310 0.354681 0.660380 -0.233185
I8    I     I_    0.883526 0.661245 0.550551 -0.201100
I9    I     I_    0.121486 0.338617 0.581280 -0.205891
I10   I     I_    0.858268 0.341123 0.387004 -0.259822
N1    N     N_R   0.500000 0.689440 0.500000 -0.124583
N2    N     N_R   0.500000 0.310560 0.500000 -0.133669
O1    O     O_R   0.398180 0.560840 0.499970 -0.636497
O2    O     O_R   0.601820 0.560840 0.500030 -0.605754
O3    O     O_R   0.398180 0.439210 0.499910 -0.576156
O4    O     O_R   0.601820 0.439210 0.500090 -0.607720
O5    O     O_R   0.500000 0.560800 0.319070 -0.622092
O6    O     O_R   0.500000 0.560800 0.680930 -0.614899
O7    O     O_R   0.499990 0.439170 0.319010 -0.607038
O8    O     O_R   0.500010 0.439170 0.680990 -0.598591
Zn1   Zn    Zn3+2 0.500000 0.581210 0.500000 0.980751
Zn2   Zn    Zn3+2 0.500000 0.418790 0.500000 1.014514

loop_
_geom_bond_atom_site_label_1
_geom_bond_atom_site_label_2
_ccdc_geom_bond_type
C12   O2    A    
C27   C29   A    
C18   C21   A    
C26   H13   S    
C19   N2    A    
C12   C23   S    
C4    H10   S    
C35   C37   A    
C9    C16   A    
C24   C26   D    
C38   C39   A    
C15   C25   S    
C15   O6    A    
C2    C41   A    
C34   C37   A    
C33   C36   A    
C14   O5    A    
C8    H3    S    
C38   H16   S    
C17   H7    S    
C15   O8    A    
C2    H2    S    
C22   C25   D    
C31   C33   A    
C23   C27   A    
C40   C42   A    
C28   C34   A    
C9    H4    S    
C8    C16   A    
C11   H6    S    
O1    Zn1   S    
C1    C34   S    
C5    I1    S    
C1    O3    A    
C32   C35   A    
C20   I5    S    
C28   I7    S    
C25   H12   S    
C38   C41   A    
O8    Zn2   S    
O4    Zn2   S    
C39   C40   A    
C5    C7    A    
C3    H9    S    
C24   H11   S    
C17   C21   A    
C6    I3    S    
C3    N1    A    
C36   H14   S    
C29   I8    S    
C22   H1    S    
O5    Zn1   S    
C19   I4    S    
C39   H17   S    
C13   C21   S    
C14   O7    A    
C14   C26   S    
C9    C11   A    
C33   I10   S    
C4    C6    A    
C7    C16   S    
C12   O4    A    
C22   C24   S    
O2    Zn1   S    
C42   H18   S    
C30   I9    S    
C18   H8    S    
C31   C41   S    
C3    C5    A    
C10   C13   A    
O7    Zn2   S    
O3    Zn2   S    
C6    C7    A    
C1    O1    A    
C28   C30   A    
C29   C31   A    
C27   I6    S    
C30   C32   A    
C11   C13   A    
O6    Zn1   S    
C2    C42   A    
C17   C19   A    
C35   I2    S    
C18   C20   A    
C32   C40   S    
N2    Zn2   S    
C8    C10   A    
C23   C36   A    
C10   H5    S    
C20   N2    A    
C4    N1    A    
C37   H15   S    
N1    Zn1   S    
