data_mof_unit_30143.cif
_audit_creation_date              2012-12-11T14:03:33-0500
_audit_creation_method            fapswitch 2.2
_symmetry_space_group_name_H-M    P1
_symmetry_Int_Tables_number       1
_space_group_crystal_system       triclinic
_cell_length_a                    6.933384
_cell_length_b                    11.415954
_cell_length_c                    18.636137
_cell_angle_alpha                 89.999176
_cell_angle_beta                  93.086446
_cell_angle_gamma                 90.003483
_cell_volume                      1472.93278213

loop_
_atom_site_label
_atom_site_type_symbol
_atom_type_description
_atom_site_fract_x
_atom_site_fract_y
_atom_site_fract_z
_atom_type_partial_charge
O1    O     O_R   0.330540 0.606360 0.598870 -0.536391
O2    O     O_R   0.669460 0.106360 0.401130 -0.536359
O3    O     O_R   0.026770 0.620470 0.750430 -0.541608
O4    O     O_R   0.973230 0.120470 0.249570 -0.541598
O5    O     O_R   0.856460 0.393640 0.750930 -0.541583
O6    O     O_R   0.143540 0.893640 0.249070 -0.541644
C1    C     C_R   0.198969 0.648334 0.774588 0.693780
C2    C     C_R   0.801045 0.148310 0.225396 0.693783
O7    O     O_R   0.000920 0.620350 0.599420 -0.548170
O8    O     O_R   0.999080 0.120350 0.400580 -0.548212
O9    O     O_R   0.830430 0.393520 0.598850 -0.538780
O10   O     O_R   0.169570 0.893520 0.401150 -0.538833
C3    C     C_R   0.166551 0.648012 0.574549 0.770948
C4    C     C_R   0.833454 0.148005 0.425456 0.770839
O11   O     O_R   0.356570 0.606480 0.750960 -0.536818
O12   O     O_R   0.643430 0.106480 0.249040 -0.536837
O13   O     O_3   0.176990 0.425580 0.674890 -0.376750
O14   O     O_3   0.823010 0.925580 0.325110 -0.376721
V1    V     V_3+5 0.902170 0.513810 0.674910 1.404484
V2    V     V_3+5 0.097830 0.013810 0.325090 1.404445
O15   O     O_R   0.500800 0.379530 0.599380 -0.548805
O16   O     O_R   0.499200 0.879530 0.400620 -0.548630
C5    C     C_R   0.666354 0.352212 0.574347 0.774325
C6    C     C_R   0.333646 0.852231 0.425662 0.774423
O17   O     O_R   0.526650 0.379650 0.750390 -0.547310
O18   O     O_R   0.473350 0.879650 0.249610 -0.547168
C7    C     C_R   0.699077 0.350133 0.773620 0.706561
C8    C     C_R   0.300908 0.850189 0.226351 0.706605
V3    V     V_3+5 0.402160 0.486190 0.674900 1.400136
V4    V     V_3+5 0.597840 0.986190 0.325100 1.400483
O19   O     O_3   0.677210 0.574420 0.674910 -0.371181
O20   O     O_3   0.322790 0.074420 0.325090 -0.371184
C9    C     C_R   0.752691 0.067862 0.878685 -0.183523
C10   C     C_R   0.246342 0.567970 0.121299 -0.183689
C11   C     C_R   0.717500 0.265319 0.832587 -0.059802
C12   C     C_R   0.282364 0.765389 0.167381 -0.059938
C13   C     C_R   0.783651 0.350273 0.180030 -0.193063
C14   C     C_R   0.217052 0.850302 0.819932 -0.192723
C15   C     C_R   0.766966 0.431579 0.124589 -0.128129
C16   C     C_R   0.233868 0.931608 0.875370 -0.127610
C17   C     C_R   0.751574 0.394637 0.053242 -0.159141
C18   C     C_R   0.248933 0.894673 0.946722 -0.159247
C19   C     C_R   0.753467 0.273873 0.035413 0.075458
C20   C     C_R   0.246564 0.773918 0.964559 0.075372
C21   C     C_R   0.770778 0.190987 0.092699 0.064619
C22   C     C_R   0.228976 0.691035 0.907279 0.064626
C23   C     C_R   0.742295 0.232621 0.962817 0.066726
C24   C     C_R   0.257533 0.732677 0.037157 0.066828
C25   C     C_R   0.754801 0.110464 0.949323 0.113139
C26   C     C_R   0.244482 0.610544 0.050659 0.113182
C27   C     C_R   0.770943 0.031193 0.006366 -0.200853
C28   C     C_R   0.228042 0.531274 0.993623 -0.200922
C29   C     C_R   0.777461 0.070510 0.076882 -0.210356
C30   C     C_R   0.221759 0.570573 0.923105 -0.210256
C31   C     C_R   0.720063 0.308318 0.902981 -0.253986
C32   C     C_R   0.280107 0.808364 0.096987 -0.254008
C33   C     C_R   0.737171 0.144263 0.819864 0.062173
C34   C     C_R   0.262042 0.644382 0.180106 0.062185
C35   C     C_R   0.783851 0.230486 0.164902 -0.070939
C36   C     C_R   0.216231 0.730522 0.835073 -0.071209
H1    H     H_    0.797082 0.380720 0.235136 0.101201
H2    H     H_    0.203991 0.880740 0.764819 0.101430
C37   C     C_2   0.832062 0.233971 0.484685 -0.358532
C38   C     C_2   0.167940 0.733984 0.515324 -0.358273
C39   C     C_2   0.667584 0.266876 0.514797 -0.353933
C40   C     C_2   0.332422 0.766932 0.485230 -0.354507
C41   C     C_3   0.744104 0.094381 0.744738 -0.379150
C42   C     C_3   0.540381 0.078248 0.709971 -0.306692
C43   C     C_3   0.544916 0.011332 0.639160 -0.774165
H3    H     H_    0.637896 0.057346 0.601531 0.231279
H4    H     H_    0.601400 0.921314 0.648804 0.230548
H5    H     H_    0.396404 0.004913 0.613996 0.213180
H6    H     H_    0.450214 0.028772 0.746945 0.197835
H7    H     H_    0.472060 0.164939 0.699532 0.201403
H8    H     H_    0.830471 0.152296 0.710835 0.163592
H9    H     H_    0.819196 0.008190 0.746980 0.180766
C44   C     C_3   0.254899 0.594549 0.255231 -0.378901
C45   C     C_3   0.458669 0.576889 0.289608 -0.306819
C46   C     C_3   0.453607 0.510828 0.360708 -0.773666
H10   H     H_    0.363189 0.558437 0.398490 0.231173
H11   H     H_    0.393866 0.421438 0.351595 0.230476
H12   H     H_    0.602394 0.502818 0.385404 0.213201
H13   H     H_    0.546834 0.526095 0.252597 0.198229
H14   H     H_    0.529347 0.663070 0.299525 0.201058
H15   H     H_    0.170209 0.653078 0.289339 0.163794
H16   H     H_    0.177996 0.508939 0.253058 0.180377
H17   H     H_    0.529742 0.230432 0.495329 0.154171
H18   H     H_    0.470272 0.730533 0.504719 0.154159
H19   H     H_    0.779356 0.937794 0.996405 0.138203
H20   H     H_    0.219209 0.437892 0.003591 0.138227
H21   H     H_    0.764515 0.974401 0.869311 0.131942
H22   H     H_    0.234126 0.474533 0.130691 0.132106
H23   H     H_    0.704523 0.401680 0.908999 0.112130
H24   H     H_    0.296115 0.901695 0.090964 0.112119
H25   H     H_    0.741366 0.463123 0.013506 0.122260
H26   H     H_    0.259292 0.963159 0.986455 0.122273
H27   H     H_    0.766986 0.524276 0.136946 0.129284
H28   H     H_    0.234252 0.024300 0.863008 0.129114
H29   H     H_    0.790517 0.005272 0.119031 0.127125
H30   H     H_    0.208467 0.505337 0.880961 0.127157
H31   H     H_    0.969900 0.270372 0.504190 0.151831
H32   H     H_    0.030095 0.770343 0.495801 0.151850

loop_
_geom_bond_atom_site_label_1
_geom_bond_atom_site_label_2
_ccdc_geom_bond_type
V4    O20   S    
C37   C39   D    
O11   V3    S    
O13   V3    S    
C28   H20   S    
C31   H23   S    
V1    O19   S    
C23   C25   A    
C44   C45   S    
C29   H29   S    
C32   H24   S    
O9    V1    S    
C18   H26   S    
C12   C34   A    
C9    H21   S    
C2    C35   S    
C16   H28   S    
C15   H27   S    
C42   H7    S    
O4    C2    A    
C43   H4    S    
O7    C3    A    
C34   C44   S    
O13   V1    S    
O5    C7    A    
C45   H13   S    
O7    V1    S    
O6    C8    A    
O8    V2    S    
C42   C43   S    
C25   C27   A    
C26   C28   A    
O3    V1    S    
O14   V4    S    
C6    C40   S    
C28   C30   A    
C16   C18   A    
C44   H15   S    
C2    O12   A    
C17   C19   A    
O10   V2    S    
C18   C20   A    
C33   C41   S    
C20   C22   A    
C39   H17   S    
O17   V3    S    
C10   C26   A    
C11   C31   A    
C41   C42   S    
C15   C17   A    
O8    C4    A    
C46   H11   S    
C45   C46   S    
C1    O11   A    
C7    C11   S    
C42   H6    S    
O15   V3    S    
C27   C29   A    
C38   C40   D    
C43   H5    S    
C38   H32   S    
C12   C32   A    
C22   C30   A    
O1    V3    S    
C40   H18   S    
C24   C26   A    
C19   C21   A    
C13   C35   A    
C14   C36   A    
C44   H16   S    
O18   V4    S    
O15   C5    A    
O16   C6    A    
C41   H8    S    
C1    C36   S    
C23   C31   A    
V2    O20   S    
C24   C32   A    
C21   C35   A    
C9    C33   A    
O16   V4    S    
C22   C36   A    
O18   C8    A    
C46   H12   S    
C13   H1    S    
O5    V1    S    
O17   C7    A    
O6    V2    S    
O10   C6    A    
O3    C1    A    
O2    V4    S    
C11   C33   A    
C5    C39   S    
C37   H31   S    
V3    O19   S    
C27   H19   S    
C14   C16   A    
C17   H25   S    
C3    C38   S    
C19   C23   A    
C4    C37   S    
O9    C5    A    
C30   H30   S    
O14   V2    S    
C43   H3    S    
O2    C4    A    
C10   H22   S    
C21   C29   A    
C46   H10   S    
O4    V2    S    
C45   H14   S    
O1    C3    A    
C8    C12   S    
C13   C15   A    
C9    C25   A    
C10   C34   A    
C41   H9    S    
O12   V4    S    
C20   C24   A    
C14   H2    S    
