data_mof_unit_67197.cif
_audit_creation_date              2013-03-05T16:01:22-0500
_audit_creation_method            fapswitch 2.2
_symmetry_space_group_name_H-M    P1
_symmetry_Int_Tables_number       1
_space_group_crystal_system       triclinic
_cell_length_a                    20.203566
_cell_length_b                    20.947088
_cell_length_c                    8.823138
_cell_angle_alpha                 89.714324
_cell_angle_beta                  92.979528
_cell_angle_gamma                 90.122939
_cell_volume                      3728.90309691

loop_
_atom_site_label
_atom_site_type_symbol
_atom_site_description
_atom_site_fract_x
_atom_site_fract_y
_atom_site_fract_z
_atom_type_partial_charge
P1    P     P_3+3 0.136530 0.426510 0.931350 0.656369
P2    P     P_3+3 0.136530 0.573490 0.431350 0.664245
P3    P     P_3+3 0.636530 0.926510 0.931350 0.653820
P4    P     P_3+3 0.636530 0.073490 0.431350 0.695880
O1    O     O_2   0.130070 0.404060 0.104920 -0.352571
O2    O     O_2   0.130070 0.595940 0.604920 -0.307285
O3    O     O_2   0.630070 0.904060 0.104920 -0.340299
O4    O     O_2   0.630070 0.095940 0.604920 -0.323972
O5    O     O_3   0.075780 0.466370 0.861070 -0.265564
O6    O     O_3   0.075780 0.533630 0.361070 -0.226767
O7    O     O_3   0.575780 0.966370 0.861070 -0.258591
O8    O     O_3   0.575780 0.033630 0.361070 -0.231162
O9    O     O_3   0.022320 0.344950 0.359800 -0.313155
O10   O     O_3   0.022320 0.655050 0.859800 -0.319260
O11   O     O_3   0.522320 0.844950 0.359800 -0.308982
O12   O     O_3   0.522320 0.155050 0.859800 -0.299334
O13   O     O_2   0.129274 0.292354 0.265297 -0.315644
O14   O     O_2   0.131272 0.703137 0.752840 -0.295424
O15   O     O_2   0.627395 0.788982 0.268357 -0.325014
O16   O     O_2   0.633592 0.202197 0.755204 -0.357955
O17   O     O_3   0.220829 0.451168 0.949771 -0.579333
O18   O     O_3   0.214460 0.535740 0.435538 -0.610618
O19   O     O_3   0.717651 0.955772 0.924739 -0.567062
O20   O     O_3   0.716299 0.037617 0.432094 -0.556143
O21   O     O_3   0.044142 0.210464 0.357252 -0.494021
O22   O     O_3   0.051511 0.785875 0.868197 -0.577726
O23   O     O_3   0.536527 0.709017 0.353352 -0.479818
O24   O     O_3   0.556246 0.289189 0.863637 -0.548614
H1    H     H_    0.950983 0.255255 0.343309 0.091218
H2    H     H_    0.978687 0.758344 0.015310 0.092239
H3    H     H_    0.446394 0.758607 0.358829 0.015509
H4    H     H_    0.459701 0.255749 0.821503 0.120290
C1    C     C_3   0.943784 0.156422 0.293165 0.082707
C2    C     C_3   0.967194 0.857542 0.954191 -0.026702
C3    C     C_3   0.428184 0.663145 0.287664 0.166647
C4    C     C_3   0.461168 0.358261 0.836852 0.057540
H5    H     H_    0.953177 0.163029 0.172984 0.200482
H6    H     H_    0.931339 0.846963 0.858401 0.129734
H7    H     H_    0.374316 0.671599 0.298165 0.073479
H8    H     H_    0.479208 0.371082 0.726777 0.175377
H9    H     H_    0.964450 0.109618 0.332016 0.240823
H10   H     H_    0.997636 0.899674 0.925740 0.203714
H11   H     H_    0.439063 0.670726 0.168728 0.174653
H12   H     H_    0.477992 0.396944 0.915172 0.183531
P5    P     P_3+3 0.863410 0.426100 0.379280 0.529559
P6    P     P_3+3 0.863410 0.573900 0.879280 0.502564
P7    P     P_3+3 0.363410 0.926100 0.379280 0.504075
P8    P     P_3+3 0.363410 0.073900 0.879280 0.510256
P9    P     P_3+3 0.918238 0.285275 0.919159 0.540493
P10   P     P_3+3 0.917396 0.713885 0.409051 0.569429
P11   P     P_3+3 0.420962 0.782870 0.914646 0.520687
P12   P     P_3+3 0.413081 0.209853 0.416244 0.537689
O25   O     O_2   0.869860 0.403670 0.205810 -0.335018
O26   O     O_2   0.869860 0.596330 0.705810 -0.324537
O27   O     O_2   0.369860 0.903670 0.205810 -0.312379
O28   O     O_2   0.369860 0.096330 0.705810 -0.323980
O29   O     O_3   0.977590 0.344880 0.951200 -0.348185
O30   O     O_3   0.977590 0.655120 0.451200 -0.321670
O31   O     O_3   0.477590 0.844880 0.951200 -0.330650
O32   O     O_3   0.477590 0.155120 0.451200 -0.374021
O33   O     O_2   0.875774 0.284806 0.060462 -0.347949
O34   O     O_2   0.868231 0.711014 0.538260 -0.376504
O35   O     O_2   0.377194 0.781693 0.053843 -0.382913
O36   O     O_2   0.368501 0.207740 0.553860 -0.343013
O37   O     O_3   0.791707 0.472731 0.360584 -0.585080
O38   O     O_3   0.789084 0.531199 0.871919 -0.607867
O39   O     O_3   0.289395 0.969534 0.364413 -0.650430
O40   O     O_3   0.290952 0.028014 0.865561 -0.616774
O41   O     O_3   0.962786 0.212715 0.931405 -0.585133
O42   O     O_3   0.954292 0.789718 0.423795 -0.467227
O43   O     O_3   0.466482 0.710498 0.928250 -0.560926
O44   O     O_3   0.443913 0.288386 0.414851 -0.496212
C5    C     C_3   0.030859 0.224937 0.962278 0.223910
C6    C     C_3   0.990411 0.795620 0.563034 0.355071
C7    C     C_3   0.533813 0.724013 0.965901 0.330771
C8    C     C_3   0.507849 0.294384 0.482699 0.220462
H13   H     H_    0.038752 0.246350 0.076144 0.165587
H14   H     H_    0.955992 0.790411 0.655994 0.047483
H15   H     H_    0.538366 0.746697 0.078749 0.141875
H16   H     H_    0.505763 0.284915 0.603760 0.108900
H17   H     H_    0.049089 0.258893 0.879051 0.074367
H18   H     H_    0.027946 0.756989 0.576031 0.099691
H19   H     H_    0.553211 0.757665 0.883620 0.028671
H20   H     H_    0.543509 0.258757 0.443375 -0.000054
C9    C     C_3   0.074106 0.164842 0.951550 -0.027307
C10   C     C_3   0.024862 0.862045 0.576332 0.145967
C11   C     C_3   0.579368 0.664821 0.967095 -0.008827
C12   C     C_3   0.534005 0.362878 0.454327 0.063347
H21   H     H_    0.126066 0.180528 0.940400 0.060369
H22   H     H_    0.022845 0.879097 0.693388 0.040171
H23   H     H_    0.630986 0.682164 0.989870 0.060227
H24   H     H_    0.572286 0.373942 0.544613 0.051581
C13   C     C_3   0.788493 0.479074 0.774513 0.798141
C14   C     C_3   0.801392 0.527575 0.274323 0.786385
C15   C     C_3   0.298968 0.973520 0.778452 0.822531
C16   C     C_3   0.295612 0.025258 0.279173 0.775636
H25   H     H_    0.826184 0.481808 0.687308 0.022507
H26   H     H_    0.834899 0.519498 0.180514 0.071681
H27   H     H_    0.330939 0.982126 0.681651 0.051172
H28   H     H_    0.334161 0.021933 0.194165 0.070625
C17   C     C_3   0.718530 0.476616 0.696356 -0.633360
C18   C     C_3   0.734610 0.553796 0.208499 -0.907810
C19   C     C_3   0.231140 0.948269 0.716590 -0.847747
C20   C     C_3   0.228801 0.042874 0.197372 -0.911536
H29   H     H_    0.680709 0.483774 0.781722 0.236030
H30   H     H_    0.741226 0.579079 0.099790 0.196900
H31   H     H_    0.237582 0.926160 0.604805 0.154301
H32   H     H_    0.237806 0.072370 0.095886 0.210730
H33   H     H_    0.713741 0.517433 0.615350 0.200113
H34   H     H_    0.715155 0.590228 0.284673 0.261567
H35   H     H_    0.212626 0.909579 0.789530 0.302691
H36   H     H_    0.199181 0.073319 0.270731 0.276286
Ba1   Ba    Ba6+2 0.999980 0.452130 0.155200 1.780462
Ba2   Ba    Ba6+2 0.999980 0.547870 0.655200 1.781287
Ba3   Ba    Ba6+2 0.499980 0.952130 0.155200 1.767594
Ba4   Ba    Ba6+2 0.499980 0.047870 0.655200 1.780039
C21   C     C_3   0.245778 0.513578 0.966332 0.622484
C22   C     C_3   0.220496 0.470512 0.467847 0.562388
C23   C     C_3   0.742076 0.016269 0.965632 0.553301
C24   C     C_3   0.725384 0.973227 0.474864 0.575030
C25   C     C_3   0.322645 0.506291 0.973066 -0.636642
C26   C     C_3   0.259082 0.437146 0.345689 -0.763625
C27   C     C_3   0.817532 0.003166 0.991622 -0.666645
C28   C     C_3   0.762294 0.937811 0.352763 -0.777380
H37   H     H_    0.338968 0.479978 0.078026 0.192412
H38   H     H_    0.304970 0.464228 0.324122 0.229148
H39   H     H_    0.824812 0.972146 0.092094 0.182348
H40   H     H_    0.807975 0.965022 0.330397 0.209447
H41   H     H_    0.338110 0.475639 0.881347 0.289883
H42   H     H_    0.229598 0.433352 0.238444 0.221520
H43   H     H_    0.836172 0.974144 0.898952 0.274618
H44   H     H_    0.732288 0.932853 0.246105 0.223207
O45   O     O_3   0.924190 0.533610 0.949240 -0.342131
O46   O     O_3   0.924190 0.466390 0.449240 -0.327444
O47   O     O_3   0.424190 0.033610 0.949240 -0.325169
O48   O     O_3   0.424190 0.966390 0.449240 -0.334467
P13   P     P_3+3 0.087232 0.709480 0.890065 0.599491
P14   P     P_3+3 0.080773 0.285160 0.394411 0.657885
P15   P     P_3+3 0.587234 0.210508 0.887545 0.611746
P16   P     P_3+3 0.577511 0.782284 0.395137 0.642745
C29   C     C_3   0.975919 0.210618 0.383494 0.171011
C30   C     C_3   0.011654 0.799466 0.991399 0.071229
C31   C     C_3   0.468478 0.711222 0.386143 0.182697
C32   C     C_3   0.487536 0.292848 0.888490 0.107120
C33   C     C_R   0.239489 0.298458 0.003957 0.094211
C34   C     C_R   0.237157 0.700865 0.509417 0.025449
C35   C     C_R   0.743407 0.801965 0.996155 0.029218
C36   C     C_R   0.735689 0.200793 0.511907 0.032781
C37   C     C_R   0.146121 0.343930 0.831917 0.130165
C38   C     C_R   0.148480 0.653891 0.329483 0.130298
C39   C     C_R   0.646747 0.844288 0.829508 0.135027
C40   C     C_R   0.647027 0.153293 0.329363 0.168943
C41   C     C_R   0.106402 0.332373 0.697831 0.126681
C42   C     C_R   0.113633 0.661322 0.188158 0.211205
C43   C     C_R   0.605735 0.831217 0.697675 0.135008
C44   C     C_R   0.613903 0.158632 0.184227 0.110422
C45   C     C_R   0.124417 0.287278 0.588180 0.178842
C46   C     C_R   0.136710 0.701572 0.074446 0.000981
C47   C     C_R   0.622691 0.785425 0.588340 0.165892
C48   C     C_R   0.633861 0.203452 0.076627 0.101858
C49   C     C_R   0.175199 0.243428 0.624387 0.385847
C50   C     C_R   0.190213 0.743191 0.109032 0.351342
C51   C     C_R   0.675183 0.743238 0.622649 0.393417
C52   C     C_R   0.685763 0.245942 0.115462 0.353284
C53   C     C_R   0.210522 0.245604 0.766588 -0.134128
C54   C     C_R   0.218516 0.747048 0.259055 -0.077035
C55   C     C_R   0.711850 0.746702 0.763231 -0.122284
C56   C     C_R   0.715719 0.247980 0.263747 0.000892
C57   C     C_R   0.198765 0.297252 0.868595 -0.108786
C58   C     C_R   0.200513 0.700356 0.368586 -0.232413
C59   C     C_R   0.700595 0.798801 0.864161 -0.143161
C60   C     C_R   0.698522 0.200332 0.370965 -0.106672
C61   C     C_R   0.800474 0.700502 0.936698 -0.084881
C62   C     C_R   0.797494 0.299322 0.446894 -0.076485
C63   C     C_R   0.296519 0.197178 0.943517 -0.063265
C64   C     C_R   0.299193 0.798781 0.442887 -0.103924
C65   C     C_R   0.791662 0.753621 0.032896 0.049372
C66   C     C_R   0.783996 0.248919 0.550519 0.080406
C67   C     C_R   0.286393 0.249078 0.042021 0.061942
C68   C     C_R   0.285235 0.748870 0.547243 0.119044
C69   C     C_R   0.848962 0.651643 0.981398 0.175927
C70   C     C_R   0.845321 0.349008 0.490753 0.128946
C71   C     C_R   0.345445 0.148680 0.987590 0.150064
C72   C     C_R   0.347257 0.847977 0.486896 0.135160
C73   C     C_R   0.882353 0.656784 0.123646 -0.410158
C74   C     C_R   0.876568 0.344506 0.636732 -0.351153
C75   C     C_R   0.376744 0.151599 0.133032 -0.356561
C76   C     C_R   0.379763 0.842332 0.630852 -0.366002
C77   C     C_R   0.872970 0.708369 0.218848 0.361119
C78   C     C_R   0.866273 0.293158 0.736063 0.390549
C79   C     C_R   0.364816 0.201538 0.231411 0.375061
C80   C     C_R   0.368946 0.791444 0.731101 0.369374
C81   C     C_R   0.830351 0.757128 0.168979 -0.171138
C82   C     C_R   0.818945 0.246672 0.693106 -0.210610
C83   C     C_R   0.323698 0.251205 0.179880 -0.155053
C84   C     C_R   0.319545 0.746840 0.690227 -0.235665
C85   C     C_R   0.760258 0.698588 0.802128 0.012070
C86   C     C_R   0.762529 0.297457 0.304743 0.099588
C87   C     C_R   0.257925 0.196649 0.806413 0.003622
C88   C     C_R   0.265057 0.796489 0.299614 -0.052345
H45   H     H_    0.828891 0.798710 0.235904 0.186850
H46   H     H_    0.809329 0.208379 0.771309 0.203118
H47   H     H_    0.325472 0.293821 0.242666 0.175299
H48   H     H_    0.308593 0.709240 0.768732 0.198106
H49   H     H_    0.912546 0.617700 0.165373 0.208002
H50   H     H_    0.906911 0.383680 0.677388 0.195710
H51   H     H_    0.411035 0.114609 0.170946 0.194825
H52   H     H_    0.410236 0.881319 0.670308 0.210522
H53   H     H_    0.233786 0.336743 0.083405 0.143064
H54   H     H_    0.228774 0.663904 0.591586 0.195814
H55   H     H_    0.738163 0.840877 0.074409 0.146182
H56   H     H_    0.728236 0.163310 0.592791 0.203414
H57   H     H_    0.765761 0.658274 0.728581 0.221202
H58   H     H_    0.771307 0.335481 0.225744 0.216358
H59   H     H_    0.264144 0.156963 0.731351 0.212395
H60   H     H_    0.274525 0.833637 0.218952 0.236989
C89   C     C_2   0.701807 0.415677 0.613874 1.041389
O49   O     O_2   0.693741 0.415744 0.476193 -0.623109
O50   O     O_R   0.689843 0.360084 0.694789 -0.680087
H61   H     H_    0.675440 0.323157 0.626923 0.325246
C90   C     C_2   0.682694 0.502861 0.185764 1.352744
O51   O     O_2   0.687532 0.463310 0.086031 -0.552495
O52   O     O_R   0.629083 0.499707 0.279383 -0.681304
H62   H     H_    0.630930 0.532417 0.363685 0.344681
C91   C     C_2   0.178160 0.998963 0.704402 1.246541
O53   O     O_2   0.151891 0.016072 0.818613 -0.578052
O54   O     O_R   0.157614 0.026101 0.565499 -0.693974
H63   H     H_    0.182785 0.008403 0.479630 0.306621
C92   C     C_2   0.188069 0.985385 0.149526 1.334578
O55   O     O_2   0.212490 0.943804 0.074482 -0.528893
O56   O     O_R   0.122274 0.978731 0.188367 -0.633387
H64   H     H_    0.108254 0.010544 0.266127 0.370705
C93   C     C_2   0.225933 0.543933 0.105227 0.912218
O57   O     O_2   0.167421 0.545889 0.128906 -0.593754
O58   O     O_R   0.274400 0.572601 0.201765 -0.804016
H65   H     H_    0.258619 0.608936 0.262755 0.335886
C94   C     C_2   0.264276 0.464882 0.608846 1.069395
O59   O     O_2   0.255820 0.420633 0.695341 -0.571869
O60   O     O_R   0.322018 0.501986 0.626745 -0.719768
H66   H     H_    0.327624 0.534635 0.543366 0.363163
C95   C     C_2   0.714106 0.043670 0.101257 0.895509
O61   O     O_2   0.664467 0.021000 0.150018 -0.526549
O62   O     O_R   0.741300 0.098250 0.167411 -0.775723
H67   H     H_    0.761496 0.127930 0.092263 0.328640
C96   C     C_2   0.772441 0.970542 0.613205 1.045414
O63   O     O_2   0.772184 0.923353 0.694689 -0.612737
O64   O     O_R   0.825163 0.013930 0.632116 -0.713188
H68   H     H_    0.825989 0.048003 0.550504 0.372088
Cl1   Cl    Cl    0.218852 0.564486 0.818652 -0.634284
Cl2   Cl    Cl    0.144174 0.430373 0.480019 -0.542207
Cl3   Cl    Cl    0.725039 0.072247 0.820157 -0.647309
Cl4   Cl    Cl    0.650425 0.932402 0.500354 -0.549965
C97   C     C_2   0.361831 0.567195 0.967676 1.245898
O65   O     O_2   0.422158 0.564533 0.968323 -0.500495
O66   O     O_R   0.329879 0.626117 0.967857 -0.801968
H69   H     H_    0.361525 0.662987 0.976293 0.334030
C98   C     C_2   0.278579 0.371786 0.399183 1.040377
O67   O     O_2   0.238506 0.328347 0.393438 -0.608581
O68   O     O_R   0.339919 0.363110 0.474517 -0.653135
H70   H     H_    0.341627 0.321280 0.531693 0.388199
C99   C     C_2   0.863651 0.058330 0.008529 1.249665
O69   O     O_2   0.914815 0.052254 0.086975 -0.528077
O70   O     O_R   0.850850 0.114454 0.928162 -0.785585
H71   H     H_    0.871640 0.152279 0.981338 0.350818
C100  C     C_2   0.782177 0.872493 0.407401 1.084313
O71   O     O_2   0.742411 0.828629 0.400271 -0.600926
O72   O     O_R   0.844094 0.864215 0.481724 -0.695283
H72   H     H_    0.845412 0.824655 0.547637 0.346431
C101  C     C_2   0.965543 0.200609 0.548541 0.991027
O73   O     O_2   0.987703 0.239755 0.638300 -0.695789
O74   O     O_R   0.930404 0.147682 0.599477 -0.751054
H73   H     H_    0.921910 0.149576 0.710946 0.373298
C102  C     C_2   0.055204 0.814563 0.128292 1.162215
O75   O     O_2   0.096065 0.857395 0.123885 -0.518797
O76   O     O_R   0.051663 0.776283 0.256319 -0.826295
H74   H     H_    0.090953 0.782053 0.329965 0.292331
C103  C     C_2   0.460238 0.697224 0.550340 0.976529
O77   O     O_2   0.494693 0.725768 0.644120 -0.687081
O78   O     O_R   0.413044 0.653039 0.596258 -0.774389
H75   H     H_    0.411709 0.648635 0.710147 0.374303
C104  C     C_2   0.474581 0.283595 0.051989 0.950560
O79   O     O_2   0.446859 0.324058 0.125135 -0.577225
O80   O     O_R   0.492796 0.226549 0.118315 -0.808285
H76   H     H_    0.509503 0.232062 0.225577 0.298634
Cl5   Cl    Cl    0.857019 0.156472 0.308910 -0.672836
Cl6   Cl    Cl    0.920812 0.879993 0.111066 -0.578423
Cl7   Cl    Cl    0.445478 0.581205 0.333983 -0.392795
Cl8   Cl    Cl    0.373349 0.355677 0.824446 -0.591507
C105  C     C_2   0.054542 0.122948 0.819168 1.192790
O81   O     O_2   0.080233 0.131010 0.698253 -0.612775
O82   O     O_R   0.009272 0.073108 0.835940 -0.690825
H77   H     H_    0.001938 0.046966 0.740094 0.364010
C106  C     C_2   0.097384 0.859536 0.545436 0.919233
O83   O     O_2   0.134952 0.826515 0.625218 -0.601742
O84   O     O_R   0.121982 0.894691 0.426130 -0.715806
H78   H     H_    0.170290 0.885423 0.410234 0.317412
C107  C     C_2   0.576739 0.626855 0.822647 1.111524
O85   O     O_2   0.626623 0.621046 0.751678 -0.676175
O86   O     O_R   0.519359 0.593693 0.776340 -0.680267
H79   H     H_    0.524781 0.568170 0.680413 0.368425
C108  C     C_2   0.565021 0.368529 0.303885 1.149559
O87   O     O_2   0.613553 0.336675 0.280248 -0.717711
O88   O     O_R   0.539930 0.410925 0.192305 -0.633617
H80   H     H_    0.565950 0.409775 0.097188 0.348128
Cl9   Cl    Cl    0.032619 0.375094 0.664492 -0.538690
Cl10  Cl    Cl    0.038706 0.620739 0.153797 -0.558152
Cl11  Cl    Cl    0.533004 0.874562 0.663924 -0.551444
Cl12  Cl    Cl    0.549206 0.105447 0.128974 -0.496549
Cl13  Cl    Cl    0.193894 0.185168 0.488179 -0.475667
Cl14  Cl    Cl    0.218703 0.793166 0.964119 -0.522379
Cl15  Cl    Cl    0.695502 0.686196 0.485127 -0.543947
Cl16  Cl    Cl    0.713881 0.296401 0.974723 -0.492294
Cl17  Cl    Cl    0.076416 0.119199 0.120712 -0.564107
Cl18  Cl    Cl    0.983199 0.922651 0.463978 -0.400521
Cl19  Cl    Cl    0.563782 0.612161 0.117535 -0.486149
Cl20  Cl    Cl    0.471544 0.423284 0.464196 -0.403102
Cl21  Cl    Cl    0.804411 0.412627 0.894142 -0.554760
Cl22  Cl    Cl    0.834893 0.583717 0.401873 -0.600296
Cl23  Cl    Cl    0.334928 0.915990 0.901586 -0.554388
Cl24  Cl    Cl    0.315393 0.085085 0.411415 -0.608326

loop_
_geom_bond_atom_site_label_1
_geom_bond_atom_site_label_2
_geom_bond_distance
_ccdc_geom_bond_type
C11   H23   1.112326 S    
P7    O48   1.588442 S    
P8    O47   1.587972 S    
O52   H62   1.013012 S    
C2    H10   1.109819 S    
C15   Cl23  1.751860 S    
C67   C83   1.398089 A    
C108  O87   1.214736 D    
C65   C81   1.400392 A    
P13   C46   1.871410 S    
O5    Ba2   2.872326 S    
P6    C69   1.895521 S    
C63   C71   1.456278 A    
C42   C46   1.404766 A    
C13   Cl21  1.762604 S    
C36   H56   1.074015 S    
P16   C47   1.892741 S    
C15   H27   1.111082 S    
C83   H47   1.052503 S    
Ba3   O48   3.096327 S    
O74   H73   1.008107 S    
C31   C103  1.494373 S    
C81   H45   1.056062 S    
C64   C72   1.454728 A    
C37   C41   1.416160 A    
O17   C21   1.405665 S    
C76   H52   1.070318 S    
C40   C44   1.417750 A    
O42   C6    1.401783 S    
O23   C31   1.420475 S    
O24   C32   1.418913 S    
C39   C43   1.420040 A    
P4    O8    1.584211 S    
C68   C84   1.408029 A    
C103  O78   1.400906 S    
O8    Ba3   2.879180 S    
P9    O41   1.768049 S    
C96   O63   1.219536 D    
P1    Ba1   3.518978 S    
C5    H17   1.096626 S    
O25   Ba1   2.871746 S    
P5    C70   1.930714 S    
C78   C82   1.402900 A    
C42   Cl10  1.747984 S    
C53   C57   1.438735 A    
O20   C24   1.408584 S    
O40   C15   1.393716 S    
C11   C107  1.504152 S    
C52   C56   1.413504 A    
C22   Cl2   1.762643 S    
C13   C17   1.541077 S    
C55   C59   1.437886 A    
O10   Ba2   2.907644 S    
C43   C47   1.418816 A    
C74   C78   1.406010 A    
O14   P13   1.545759 D    
C92   O55   1.217403 D    
P12   O44   1.757984 S    
O88   H80   1.013589 S    
O10   P13   1.746821 S    
C33   C67   1.431200 A    
O28   Ba4   2.877306 S    
C34   C68   1.425308 A    
C23   C95   1.469442 S    
O6    Ba1   2.879180 S    
C22   C94   1.492831 S    
C1    Cl5   1.765658 S    
C101  O74   1.399971 S    
O11   Ba3   2.895213 S    
C4    H12   1.108884 S    
C4    Cl8   1.772683 S    
C86   H58   1.076287 S    
C80   C84   1.400391 A    
C97   O66   1.394141 S    
O18   C22   1.398648 S    
C11   Cl19  1.762143 S    
O1    Ba1   2.873255 S    
C24   Cl4   1.761649 S    
P11   O43   1.775126 S    
C25   C97   1.501870 S    
C23   C27   1.554601 S    
C19   C91   1.508873 S    
C4    C32   1.529870 S    
P2    Ba2   3.514163 S    
C20   C92   1.506746 S    
C38   C58   1.460390 A    
O26   Ba2   2.877306 S    
C50   Cl14  1.767056 S    
H3    C31   1.109374 S    
H4    C32   1.112497 S    
P3    O7    1.583731 S    
O4    Ba4   2.867747 S    
C14   C18   1.542066 S    
C75   H51   1.080675 S    
C32   C104  1.491090 S    
C5    H13   1.106106 S    
C19   H31   1.105602 S    
C95   O62   1.385752 S    
C7    H15   1.104813 S    
C49   C53   1.411694 A    
P2    C38   1.925678 S    
C103  O77   1.212435 D    
O22   P13   1.762473 S    
C16   Cl24  1.748032 S    
Ba4   O47   3.093196 S    
C25   H37   1.110917 S    
C90   O51   1.219349 D    
C10   C106  1.505293 S    
C87   H59   1.077066 S    
O16   P15   1.545118 D    
O19   C23   1.401048 S    
C99   O69   1.220286 D    
C40   C60   1.465446 A    
Ba3   Ba4   4.855109 S    
P9    O29   1.743140 S    
C28   H44   1.097866 S    
C98   O67   1.216158 D    
C22   C26   1.534635 S    
P10   C77   1.865528 S    
O2    Ba2   2.867747 S    
P12   O32   1.751943 S    
C14   Cl22  1.743052 S    
C3    H11   1.094026 S    
C93   O57   1.211929 D    
P8    Ba4   3.521888 S    
P5    O25   1.615081 D    
C94   O59   1.215139 D    
C107  O86   1.394110 S    
O24   P15   1.772017 S    
C15   C19   1.541941 S    
C102  O75   1.219770 D    
C33   H53   1.078061 S    
P4    C40   1.911119 S    
C74   H50   1.075052 S    
C61   C85   1.404123 A    
C44   C48   1.405216 A    
C20   H36   1.108956 S    
O29   Ba1   2.905644 S    
P9    C78   1.887082 S    
C1    C29   1.515755 S    
C89   O49   1.217232 D    
P12   C79   1.864810 S    
P2    O18   1.761992 S    
C106  O83   1.221435 D    
C23   Cl3   1.755468 S    
C35   C65   1.431484 A    
C26   C98   1.492953 S    
C27   H39   1.100353 S    
C21   C93   1.458362 S    
O78   H75   1.010381 S    
H1    C29   1.110817 S    
C105  O81   1.221277 D    
Ba2   O46   2.879309 S    
C36   C60   1.418936 A    
P1    C37   1.957992 S    
C100  O72   1.392647 S    
C30   C102  1.491692 S    
C63   C87   1.404816 A    
O38   C13   1.392539 S    
C7    C11   1.545414 S    
C54   C58   1.431245 A    
P5    O37   1.749161 S    
O32   Ba4   2.893241 S    
C84   H48   1.076490 S    
C13   H25   1.111498 S    
C36   C66   1.431610 A    
C8    H16   1.088374 S    
O72   H72   1.009593 S    
C73   C77   1.391252 A    
C52   Cl16  1.743418 S    
C104  O80   1.370525 S    
C76   C80   1.405722 A    
O9    P14   1.738257 S    
C94   O60   1.402890 S    
O84   H78   1.012540 S    
P10   O42   1.755784 S    
Ba3   O47   2.872453 S    
C2    Cl6   1.777171 S    
C91   O54   1.392349 S    
C79   C83   1.392471 A    
C77   C81   1.392158 A    
C64   C68   1.427045 A    
O80   H76   0.995312 S    
O30   Ba2   2.893241 S    
Ba1   O45   2.872453 S    
O66   H69   1.002160 S    
O60   H66   1.012451 S    
C8    H20   1.107832 S    
O70   H71   1.003055 S    
P7    Ba3   3.516999 S    
C66   C82   1.410928 A    
C56   C86   1.436434 A    
P1    O1    1.611457 D    
C48   C52   1.403862 A    
C6    H18   1.111633 S    
P6    O38   1.744670 S    
P3    O3    1.611457 D    
C9    Cl17  1.767109 S    
P4    O20   1.779338 S    
C14   H26   1.110000 S    
C17   H33   1.112786 S    
O62   H67   1.007750 S    
C82   H46   1.079351 S    
C28   C100  1.497135 S    
C19   H35   1.108797 S    
C70   C74   1.407441 A    
C50   C54   1.416971 A    
O58   H65   0.996746 S    
O41   C5    1.411209 S    
C29   C101  1.495666 S    
C62   C66   1.428313 A    
O44   C8    1.400857 S    
C28   H40   1.109570 S    
C61   C69   1.456973 A    
C101  O73   1.211629 D    
C62   C70   1.458590 A    
C64   C88   1.409173 A    
C35   H55   1.079773 S    
O12   Ba4   2.907644 S    
C108  O88   1.398649 S    
C33   C57   1.414935 A    
P9    O33   1.549688 D    
P10   O30   1.757089 S    
P1    O5    1.583731 S    
P12   O36   1.549339 D    
O50   H61   1.013444 S    
C9    H21   1.108437 S    
C1    H5    1.094939 S    
C3    H7    1.111713 S    
O86   H79   1.014190 S    
C71   C75   1.402357 A    
P6    O26   1.610471 D    
C55   C85   1.433853 A    
P11   O35   1.550288 D    
P8    O40   1.748783 S    
O7    Ba4   2.872326 S    
P15   C48   1.878099 S    
Ba1   O46   3.096327 S    
C96   O64   1.402621 S    
C10   H22   1.097285 S    
C37   C57   1.468843 A    
C18   H34   1.105635 S    
C51   Cl15  1.771115 S    
C45   C49   1.401931 A    
C20   H32   1.107961 S    
C85   H57   1.076998 S    
O11   P16   1.740613 S    
C2    C30   1.537736 S    
C21   Cl1   1.745233 S    
C27   H43   1.103578 S    
P4    Ba4   3.514163 S    
O21   C29   1.409506 S    
C12   C108  1.501048 S    
C25   H41   1.094119 S    
P7    C72   1.923657 S    
P8    C71   1.884702 S    
Ba4   O48   2.879309 S    
C9    C105  1.500448 S    
H2    C30   1.113748 S    
C1    H9    1.112018 S    
C92   O56   1.396412 S    
P3    Ba3   3.518978 S    
P6    O45   1.587972 S    
C7    H19   1.095810 S    
C97   O65   1.219913 D    
O27   Ba3   2.871746 S    
C41   C45   1.417027 A    
P5    Ba1   3.516999 S    
C56   C60   1.426552 A    
C90   O52   1.397148 S    
C6    H14   1.107374 S    
C18   C90   1.501403 S    
C3    C31   1.537397 S    
P1    O17   1.778257 S    
C107  O85   1.220446 D    
P3    O19   1.752292 S    
P4    O4    1.616070 D    
C39   C59   1.466935 A    
C44   Cl12  1.766420 S    
P5    O46   1.588442 S    
C95   O61   1.207119 D    
C53   C87   1.434538 A    
C41   Cl9   1.751277 S    
C16   H28   1.111508 S    
C12   Cl20  1.794583 S    
O3    Ba3   2.873255 S    
O54   H63   1.006838 S    
C21   C25   1.558826 S    
C88   H60   1.075458 S    
Ba1   Ba2   4.855109 S    
C12   H24   1.106121 S    
O15   P16   1.549738 D    
O13   P14   1.547360 D    
C102  O76   1.386799 S    
C100  O71   1.218931 D    
C8    C12   1.551546 S    
C75   C79   1.391996 A    
O82   H77   1.014005 S    
P2    O2    1.616070 D    
P7    O39   1.750812 S    
C34   H54   1.077182 S    
C35   C59   1.415858 A    
C10   Cl18  1.791152 S    
C17   H29   1.111353 S    
C62   C86   1.407789 A    
P6    Ba2   3.521888 S    
C73   H49   1.074108 S    
C4    H8    1.087187 S    
C99   O70   1.387708 S    
C69   C73   1.398191 A    
C63   C67   1.417026 A    
C104  O79   1.222151 D    
C72   C76   1.403801 A    
C98   O68   1.387373 S    
C26   H38   1.110190 S    
C51   C55   1.413410 A    
C61   C65   1.419922 A    
C91   O53   1.218850 D    
C6    C10   1.556656 S    
C93   O58   1.400306 S    
O37   C14   1.393970 S    
O76   H74   1.006825 S    
C34   C58   1.413029 A    
C49   Cl13  1.772021 S    
O39   C16   1.394379 S    
P10   O34   1.551363 D    
C47   C51   1.401883 A    
O12   P15   1.758509 S    
P11   O31   1.749168 S    
C24   C96   1.508575 S    
O68   H70   1.008633 S    
P2    O6    1.584211 S    
P7    O27   1.615081 D    
C5    C9    1.539978 S    
P8    O28   1.610471 D    
C2    H6    1.107111 S    
C43   Cl11  1.740617 S    
O64   H68   1.012050 S    
C89   O50   1.390213 S    
P3    C39   1.962814 S    
O23   P16   1.773538 S    
C16   C20   1.541843 S    
O21   P14   1.754497 S    
C106  O84   1.393707 S    
O43   C7    1.411854 S    
P14   C45   1.883153 S    
C27   C99   1.486047 S    
C105  O82   1.398854 S    
Ba2   O45   3.093196 S    
C18   H30   1.107376 S    
C3    Cl7   1.793276 S    
C54   C88   1.431541 A    
C46   C50   1.409240 A    
C17   C89   1.501675 S    
O31   Ba3   2.905644 S    
C38   C42   1.407832 A    
O56   H64   1.010246 S    
O22   C30   1.416392 S    
C26   H42   1.094753 S    
O9    Ba1   2.895213 S    
P11   C80   1.892155 S    
C24   C28   1.536533 S    
