data_mof_unit_67733.cif
_audit_creation_date              2013-03-05T16:49:10-0500
_audit_creation_method            fapswitch 2.2
_symmetry_space_group_name_H-M    P1
_symmetry_Int_Tables_number       1
_space_group_crystal_system       triclinic
_cell_length_a                    10.955348
_cell_length_b                    10.723603
_cell_length_c                    9.541855
_cell_angle_alpha                 85.696086
_cell_angle_beta                  92.152296
_cell_angle_gamma                 88.477512
_cell_volume                      1116.54914753

loop_
_atom_site_label
_atom_site_type_symbol
_atom_site_description
_atom_site_fract_x
_atom_site_fract_y
_atom_site_fract_z
_atom_type_partial_charge
O1    O     O_R   0.500060 0.316850 0.620870 -0.561120
O2    O     O_R   0.499940 0.683150 0.379130 -0.544286
O3    O     O_R   0.500000 0.316860 0.379090 -0.505046
O4    O     O_R   0.500000 0.683140 0.620910 -0.507510
C1    C     C_R   0.506408 0.259861 0.504407 0.995846
C2    C     C_R   0.493889 0.740410 0.495663 1.003721
O5    O     O_R   0.319670 0.500010 0.620890 -0.487063
O6    O     O_R   0.680330 0.499990 0.379110 -0.486471
O7    O     O_R   0.319620 0.500010 0.379110 -0.582020
O8    O     O_R   0.680380 0.499990 0.620890 -0.596216
C3    C     C_R   0.262644 0.502317 0.497156 0.869289
C4    C     C_R   0.737174 0.499009 0.502656 0.863894
Cu1   Cu    Cu3+1 0.500030 0.499990 0.643150 1.151358
Cu2   Cu    Cu3+1 0.499970 0.500010 0.356850 1.168272
C5    C     C_R   0.140331 0.898023 0.223779 0.611733
C6    C     C_R   0.852603 0.107559 0.777300 0.588201
C7    C     C_R   0.133154 0.802746 0.333784 0.096345
C8    C     C_R   0.863194 0.201500 0.666705 0.072461
C9    C     C_R   0.105259 0.680079 0.300022 -0.318933
C10   C     C_R   0.892987 0.323731 0.699847 -0.335757
C11   C     C_R   0.084927 0.656334 0.158363 0.584003
C12   C     C_R   0.911640 0.348543 0.841296 0.567774
C13   C     C_R   0.095075 0.750151 0.050578 0.582594
C14   C     C_R   0.898705 0.255872 0.949541 0.567676
C15   C     C_R   0.124103 0.872248 0.081469 0.038262
C16   C     C_R   0.868151 0.134106 0.919278 0.028562
C17   C     C_R   0.927114 0.589664 0.415073 0.339805
C18   C     C_R   0.072045 0.413295 0.585093 0.339428
C19   C     C_R   0.871236 0.501356 0.506330 -0.135216
C20   C     C_R   0.128244 0.501056 0.493287 -0.139258
C21   C     C_R   0.944198 0.413769 0.593227 0.083339
C22   C     C_R   0.055052 0.589091 0.406515 0.071690
C23   C     C_3   0.542170 0.021929 0.629755 0.503166
C24   C     C_3   0.458338 0.979511 0.370943 0.512315
C25   C     C_3   0.609584 0.945292 0.524812 0.479590
C26   C     C_3   0.390960 0.055694 0.476142 0.481427
C27   C     C_3   0.491493 0.877873 0.490156 -0.638716
C28   C     C_3   0.508901 0.122900 0.510321 -0.634968
C29   C     C_3   0.424045 0.954666 0.595834 0.502657
C30   C     C_3   0.576497 0.046327 0.405171 0.496542
C31   C     C_3   0.485647 0.610762 0.038626 0.114917
C32   C     C_3   0.514505 0.388989 0.961851 0.079956
C33   C     C_3   0.397981 0.545770 0.941391 0.630688
C34   C     C_3   0.602136 0.453964 0.059109 0.620790
N1    N     N_3   0.500090 0.499970 0.858290 -0.353209
N2    N     N_3   0.499910 0.500030 0.141710 -0.347960
C35   C     C_3   0.586819 0.565654 0.949087 0.090876
C36   C     C_3   0.413476 0.434758 0.051250 0.121392
N3    N     N_R   0.137329 0.969075 0.969627 0.209648
O9    O     O_R   0.109933 0.949056 0.839540 -0.132779
O10   O     O_R   0.180799 0.077045 0.995708 -0.140168
N4    N     N_R   0.855121 0.037589 0.031538 0.218666
O11   O     O_R   0.810095 0.930100 0.006280 -0.140379
O12   O     O_R   0.884757 0.057290 0.161151 -0.131882
F1    F     F_    0.291042 0.596661 0.877302 -0.498926
F2    F     F_    0.708986 0.404036 0.124136 -0.497914
N5    N     N_R   0.464765 0.734668 0.084196 0.226782
O13   O     O_R   0.545917 0.820229 0.067409 -0.117740
O14   O     O_R   0.363189 0.759252 0.143012 -0.361796
N6    N     N_R   0.523265 0.260984 0.922520 0.197053
O15   O     O_R   0.610927 0.187903 0.979095 -0.207740
O16   O     O_R   0.427216 0.211442 0.867909 -0.159269
N7    N     N_R   0.682142 0.644039 0.891037 0.207960
O17   O     O_R   0.653237 0.749338 0.819807 -0.167157
O18   O     O_R   0.795433 0.620621 0.930882 -0.133654
N8    N     N_R   0.319481 0.355158 0.110101 0.208822
O19   O     O_R   0.205188 0.381230 0.077447 -0.132943
O20   O     O_R   0.349888 0.246561 0.173130 -0.161764
F3    F     F_    0.159292 0.017128 0.255454 -0.456039
F4    F     F_    0.833763 0.988218 0.746545 -0.453471
N9    N     N_R   0.142814 0.833645 0.478295 0.204967
O21   O     O_R   0.182322 0.751310 0.577631 -0.251557
O22   O     O_R   0.111453 0.944710 0.512353 -0.081912
N10   N     N_R   0.855855 0.169233 0.522590 0.207800
O23   O     O_R   0.887597 0.057636 0.490622 -0.081179
O24   O     O_R   0.818757 0.250954 0.421487 -0.247578
F5    F     F_    0.039912 0.545167 0.125831 -0.459336
F6    F     F_    0.958479 0.459045 0.873341 -0.457007
F7    F     F_    0.071050 0.721923 0.916212 -0.427222
F8    F     F_    0.923582 0.284188 0.083694 -0.422515
N11   N     N_R   0.853876 0.684082 0.333135 0.113278
O25   O     O_R   0.862444 0.800676 0.359641 -0.218056
O26   O     O_R   0.801214 0.657857 0.215097 -0.223319
N12   N     N_R   0.144951 0.320307 0.669277 0.119766
O27   O     O_R   0.192834 0.347698 0.789355 -0.208214
O28   O     O_R   0.138825 0.203439 0.643019 -0.208520
F9    F     F_    0.720506 0.882720 0.550369 -0.471409
F10   F     F_    0.279991 0.118274 0.450690 -0.472753
F11   F     F_    0.586392 0.039702 0.763509 -0.490999
F12   F     F_    0.414185 0.968186 0.235861 -0.468916
F13   F     F_    0.345735 0.908951 0.696250 -0.460543
F14   F     F_    0.654823 0.092351 0.304987 -0.454905

loop_
_geom_bond_atom_site_label_1
_geom_bond_atom_site_label_2
_geom_bond_distance
_ccdc_geom_bond_type
N8    O20   1.299248 A    
N7    O18   1.296810 A    
C4    C19   1.468733 S    
C18   N12   1.437634 S    
C24   C27   1.541312 S    
N11   O25   1.299214 A    
Cu2   N2    2.052793 S    
C26   F10   1.377418 S    
O5    C3    1.313101 A    
C23   C29   1.533924 S    
N10   O24   1.299443 A    
O1    C1    1.310996 A    
C25   C27   1.535973 S    
C14   C16   1.404638 A    
C23   F11   1.376538 S    
C35   N7    1.457439 S    
C5    C15   1.411639 A    
C17   C19   1.405996 A    
N6    O16   1.300417 A    
O4    Cu1   1.959553 S    
C23   C25   1.539595 S    
C25   F9    1.377045 S    
C14   F8    1.357048 S    
C3    C20   1.471926 S    
C34   N2    1.488223 S    
N3    O10   1.301131 A    
C31   N2    1.484999 S    
C33   C36   1.527559 S    
C8    C10   1.414855 A    
C34   C35   1.533677 S    
N8    O19   1.296949 A    
C8    N10   1.442826 S    
C28   C30   1.541591 S    
C1    C28   1.465049 S    
C19   C21   1.414935 A    
C31   C33   1.527954 S    
O2    C2    1.312899 A    
C32   C34   1.527759 S    
C9    C22   1.486203 S    
C29   F13   1.381311 S    
N11   O26   1.299179 A    
N4    O12   1.300882 A    
N1    C35   1.488236 S    
C6    C16   1.410139 A    
C5    F3    1.353934 S    
N2    C36   1.481931 S    
C18   C21   1.405570 A    
N10   O23   1.298750 A    
C17   N11   1.439120 S    
C6    F4    1.353655 S    
N12   O27   1.299146 A    
C12   F6    1.354942 S    
O4    C2    1.300585 A    
C32   N6    1.451658 S    
N9    O22   1.298816 A    
N6    O15   1.298262 A    
C32   N1    1.489814 S    
O7    Cu2   1.995098 S    
C24   F12   1.374718 S    
C16   N4    1.446360 S    
O7    C3    1.309630 A    
C34   F2    1.379921 S    
O6    C4    1.311593 A    
C31   C35   1.515613 S    
C2    C27   1.470594 S    
C32   C36   1.516077 S    
C30   F14   1.380952 S    
C33   N1    1.489025 S    
O3    Cu2   1.959553 S    
O8    C4    1.309263 A    
C33   F1    1.380745 S    
C10   C12   1.403672 A    
C7    N9    1.442860 S    
C11   C13   1.393371 A    
C12   C14   1.392434 A    
O1    Cu1   1.991184 S    
N4    O11   1.301167 A    
Cu1   N1    2.052794 S    
C5    C7    1.414693 A    
O6    Cu2   1.979335 S    
C9    C11   1.404844 A    
C17   C22   1.406913 A    
C26   C29   1.540051 S    
N12   O28   1.299317 A    
O3    C1    1.300030 A    
O8    Cu1   1.995097 S    
C23   C28   1.538374 S    
C13   F7    1.357142 S    
C26   C28   1.532435 S    
C25   C30   1.539777 S    
C31   N5    1.443931 S    
N9    O21   1.299449 A    
C27   C29   1.545700 S    
C20   C22   1.418561 A    
N5    O13   1.299967 A    
C18   C20   1.407011 A    
C7    C9    1.416013 A    
C24   C26   1.538378 S    
C13   C15   1.405473 A    
O2    Cu2   1.991184 S    
C15   N3    1.446128 S    
N5    O14   1.294722 A    
N7    O17   1.298813 A    
O5    Cu1   1.979335 S    
C6    C8    1.413423 A    
N3    O9    1.300909 A    
C11   F5    1.354975 S    
C24   C30   1.532435 S    
C36   N8    1.456893 S    
Cu1   Cu2   2.731792 S    
C10   C21   1.485340 S    
