data_mof_unit_66957.cif
_audit_creation_date              2012-12-11T17:40:56-0500
_audit_creation_method            fapswitch 2.2
_symmetry_space_group_name_H-M    P1
_symmetry_Int_Tables_number       1
_space_group_crystal_system       triclinic
_cell_length_a                    8.192336
_cell_length_b                    12.67407
_cell_length_c                    14.209578
_cell_angle_alpha                 92.798225
_cell_angle_beta                  90.718265
_cell_angle_gamma                 98.57135
_cell_volume                      1456.87265192

loop_
_atom_site_label
_atom_site_type_symbol
_atom_type_description
_atom_site_fract_x
_atom_site_fract_y
_atom_site_fract_z
_atom_type_partial_charge
Ba1   Ba    Ba6+2 0.855630 0.555280 0.454520 1.685369
Ba2   Ba    Ba6+2 0.334200 0.444810 0.545490 1.658297
Br1   Br    Br    0.540121 0.345378 0.162154 -0.627283
C1    C     C_3   0.594422 0.939949 0.165883 0.311524
C2    C     C_R   0.183618 0.497610 0.195343 0.017278
C3    C     C_R   0.337237 0.551984 0.225877 -0.234101
C4    C     C_3   0.153961 0.800364 0.196015 0.356786
C5    C     C_R   0.449570 0.600321 0.162479 0.057176
C6    C     C_R   0.405218 0.602288 0.067524 -0.128411
C7    C     C_R   0.249149 0.551876 0.034401 0.011168
C8    C     C_R   0.138449 0.495615 0.097457 -0.029081
C9    C     C_R   0.053697 0.501043 0.901445 -0.027551
C10   C     C_R   0.943196 0.444630 0.964462 -0.009769
C11   C     C_R   0.007995 0.499450 0.803626 0.044225
C12   C     C_3   0.662448 0.860650 0.227898 0.467594
C13   C     C_R   0.854277 0.445254 0.773121 -0.294155
C14   C     C_R   0.741469 0.398212 0.836715 0.000345
C15   C     C_R   0.786892 0.394747 0.931320 -0.130202
C16   C     C_3   0.141326 0.833510 0.094961 -0.284139
C17   C     C_R   0.204989 0.555895 0.938542 -0.031474
C18   C     C_R   0.758753 0.177665 0.546036 -0.274899
C19   C     C_R   0.429445 0.813549 0.461894 -0.257325
C20   C     C_R   0.403454 0.995690 0.432833 -0.104221
C21   C     C_R   0.340280 0.887872 0.425012 -0.005529
C22   C     C_R   0.575903 0.846557 0.513731 0.067400
C23   C     C_3   0.420107 0.255972 0.251899 0.550007
C24   C     C_R   0.639032 0.957342 0.526101 -0.059846
C25   C     C_R   0.551888 0.032377 0.483616 -0.061157
C26   C     C_R   0.614556 0.142430 0.493750 0.042628
C27   C     C_R   0.850120 0.105051 0.583412 -0.007540
C28   C     C_3   0.226195 0.763561 0.657343 0.281801
C29   C     C_R   0.788180 0.995788 0.576835 -0.094304
C30   C     C_3   0.232244 0.882716 0.677863 -0.343303
C31   C     C_3   0.962239 0.240861 0.350262 0.297035
C32   C     C_3   0.904233 0.122503 0.329078 -0.336806
C33   C     C_3   0.714928 0.672181 0.737641 0.287013
C34   C     C_3   0.307990 0.166834 0.196789 -0.304465
C35   C     C_3   0.732575 0.695558 0.843692 -0.348841
C36   C     C_3   0.046380 0.195381 0.807773 0.315495
C37   C     C_3   0.063286 0.158924 0.907428 -0.292322
C38   C     C_3   0.538922 0.141669 0.761520 0.312577
C39   C     C_3   0.583316 0.048199 0.814484 -0.366359
C40   C     C_R   0.987462 0.440533 0.060332 -0.025078
H1    H     H_    0.762229 0.903807 0.274868 0.060725
H2    H     H_    0.831568 0.649856 0.710640 0.011254
H3    H     H_    0.612784 0.605046 0.723590 0.065655
H4    H     H_    0.552442 0.003798 0.211478 -0.035043
H5    H     H_    0.840621 0.758139 0.860008 0.153342
H6    H     H_    0.750311 0.622486 0.879832 0.050799
H7    H     H_    0.619392 0.723905 0.870968 0.140147
H8    H     H_    0.560831 0.826723 0.273767 -0.267069
H9    H     H_    0.486576 0.897930 0.124616 -0.023647
H10   H     H_    0.345098 0.305801 0.294586 -0.008467
H11   H     H_    0.256340 0.105143 0.245080 0.087924
H12   H     H_    0.308793 0.908083 0.741950 0.119948
H13   H     H_    0.206810 0.199012 0.160414 0.137176
H14   H     H_    0.378886 0.127545 0.143016 0.130071
H15   H     H_    0.200410 0.779434 0.046939 0.035437
H16   H     H_    0.121537 0.275435 0.803455 0.090583
H17   H     H_    0.914602 0.201499 0.794066 -0.066586
H18   H     H_    0.194963 0.156555 0.925241 0.142011
H19   H     H_    0.014960 0.215160 0.958516 0.112158
H20   H     H_    0.992187 0.077903 0.913390 0.179223
H21   H     H_    0.652972 0.178926 0.727507 -0.051496
H22   H     H_    0.445607 0.111381 0.705511 0.087921
H23   H     H_    0.286180 0.927710 0.618086 0.074868
H24   H     H_    0.689875 0.076131 0.862820 0.166254
H25   H     H_    0.617844 0.986031 0.763932 0.090076
H26   H     H_    0.072968 0.722479 0.201526 0.072340
H27   H     H_    0.477354 0.013048 0.856523 0.139598
H28   H     H_    0.373351 0.552070 0.299396 0.073791
H29   H     H_    0.493176 0.641925 0.019579 0.071842
H30   H     H_    0.699466 0.354235 0.978857 0.151236
H31   H     H_    0.818186 0.444903 0.699582 0.067647
H32   H     H_    0.902358 0.394259 0.105373 0.159177
H33   H     H_    0.290674 0.602044 0.893639 0.095607
H34   H     H_    0.105739 0.901232 0.689846 0.137298
H35   H     H_    0.331242 0.049589 0.401359 0.090269
H36   H     H_    0.860378 0.942623 0.609287 0.102280
H37   H     H_    0.806910 0.262064 0.551303 0.057725
H38   H     H_    0.283788 0.790373 0.211464 -0.092212
H39   H     H_    0.379536 0.729499 0.454859 0.062828
H40   H     H_    0.009872 0.828296 0.072969 0.199461
H41   H     H_    0.203986 0.916734 0.088602 0.131268
H42   H     H_    0.351196 0.746537 0.641198 0.001654
H43   H     H_    0.141885 0.739767 0.595720 0.071679
H44   H     H_    0.582538 0.101657 0.025551 0.327968
H45   H     H_    0.861448 0.277653 0.382970 0.027700
H46   H     H_    0.068279 0.249651 0.400274 0.062030
H47   H     H_    0.790313 0.111476 0.284858 0.171716
H48   H     H_    0.879932 0.080109 0.394506 0.049764
H49   H     H_    0.000155 0.085375 0.291942 0.166475
O1    O     O_2   0.887370 0.460630 0.272300 -0.414247
O2    O     O_2   0.189879 0.110490 0.567739 -0.487533
O3    O     O_3   0.102495 0.121466 0.743606 -0.596785
O4    O     O_3   0.129410 0.451380 0.388510 -0.505697
O5    O     O_3   0.575400 0.626570 0.547370 -0.492437
O6    O     O_2   0.344320 0.238700 0.455090 -0.490771
O7    O     O_3   0.535472 0.210054 0.304118 -0.634409
O8    O     O_2   0.402445 0.406902 0.836008 -0.486536
O9    O     O_3   0.471661 0.211937 0.824703 -0.584576
O10   O     O_3   0.670210 0.653170 0.329170 -0.464564
O11   O     O_2   0.784842 0.587851 0.165120 -0.464808
O12   O     O_3   0.681256 0.764381 0.695837 -0.638566
O13   O     O_3   0.007950 0.288736 0.265950 -0.612721
O14   O     O_3   0.728335 0.783961 0.170844 -0.586716
O15   O     O_2   0.845380 0.761330 0.544970 -0.473666
O16   O     O_3   0.088930 0.704860 0.376040 -0.496519
O17   O     O_2   0.999186 0.889351 0.431183 -0.485745
O18   O     O_2   0.912677 0.015507 0.126359 -0.297610
O19   O     O_2   0.737149 0.926723 0.996753 -0.332626
O20   O     O_3   0.693706 0.117974 0.055611 -0.495423
O21   O     O_3   0.103460 0.878718 0.257966 -0.585140
O22   O     O_2   0.302330 0.539400 0.727760 -0.472268
O23   O     O_3   0.060300 0.548700 0.611500 -0.498947
O24   O     O_3   0.519500 0.346920 0.670840 -0.478013
O25   O     O_3   0.171806 0.710958 0.737918 -0.637433
O26   O     O_3   0.614310 0.373510 0.452640 -0.456132
O27   O     O_3   0.100780 0.295230 0.623970 -0.484961
P1    P     P_3+3 0.054400 0.427280 0.286870 1.001423
P2    P     P_3+3 0.668300 0.742890 0.573060 0.971071
P3    P     P_3+3 0.133281 0.842788 0.373715 0.950984
P4    P     P_3+3 0.135310 0.572810 0.713130 0.967521
P5    P     P_3+3 0.060031 0.156315 0.629103 0.950448
P6    P     P_3+3 0.657827 0.655105 0.206316 1.021756
P7    P     P_3+3 0.528369 0.240648 0.425748 0.949061
P8    P     P_3+3 0.533101 0.343454 0.793256 0.974951
S1    S     S_3+6 0.741408 0.998919 0.084129 -0.100333

loop_
_geom_bond_atom_site_label_1
_geom_bond_atom_site_label_2
_ccdc_geom_bond_type
O3    P5    S    
C30   H12   S    
C28   H42   S    
O8    P8    D    
C38   C39   S    
C6    H29   S    
O10   P6    S    
Ba2   O26   S    
C35   H6    S    
C32   H48   S    
Ba2   P4    S    
O14   P6    S    
C37   H20   S    
C10   C15   A    
C1    H9    S    
C13   H31   S    
C19   H39   S    
C12   O14   S    
C25   C26   A    
C12   H1    S    
C2    C8    A    
C2    C3    A    
C31   C32   S    
O17   P3    D    
C39   H27   S    
C37   H19   S    
C17   H33   S    
Ba1   Ba2   S    
C28   O25   S    
O5    P2    S    
C34   H13   S    
Ba2   O24   S    
O21   P3    S    
Ba2   O5    S    
C7    C17   A    
C5    C6    A    
O24   P8    S    
C20   C21   A    
C28   C30   S    
O13   P1    S    
C33   H3    S    
O1    P1    D    
C12   H8    S    
C6    C7    A    
C35   H5    S    
C23   O7    S    
C32   H49   S    
C28   H43   S    
C26   P7    S    
C39   H25   S    
C16   H40   S    
C30   H23   S    
O7    P7    S    
C16   H15   S    
C40   H32   S    
C3    H28   S    
O23   P4    S    
C1    S1    S    
C2    P1    S    
O16   P3    S    
Ba1   O5    S    
C36   C37   S    
C14   P8    S    
C3    C5    A    
H44   O20   S    
O27   P5    S    
C18   C26   A    
C19   C22   A    
C37   H18   S    
Ba1   P1    S    
Ba2   O23   S    
C36   H16   S    
C9    C17   A    
C21   P3    S    
C14   C15   A    
C33   H2    S    
C31   H45   S    
C20   C25   A    
C8    C40   A    
C36   O3    S    
Ba1   O15   S    
C35   H7    S    
O22   P4    D    
C4    H38   S    
C9    C11   A    
C15   H30   S    
C4    C16   S    
C39   H24   S    
C19   C21   A    
O15   P2    D    
C16   H41   S    
C23   H10   S    
C10   C40   A    
C11   P4    S    
C24   C29   A    
C31   O13   S    
O4    P1    S    
Br1   C23   S    
C27   P5    S    
C4    H26   S    
C38   H22   S    
Ba2   O27   S    
C23   C34   S    
O12   P2    S    
O26   P7    S    
C22   C24   A    
C34   H11   S    
C18   C27   A    
C33   O12   S    
C4    O21   S    
C1    C12   S    
Ba2   O4    S    
O25   P4    S    
C31   H46   S    
C29   H36   S    
C27   C29   A    
Ba2   O22   S    
C30   H34   S    
C13   C14   A    
Ba1   O4    S    
C36   H17   S    
C18   H37   S    
C33   C35   S    
O9    P8    S    
C38   O9    S    
C11   C13   A    
Ba1   O26   S    
C20   H35   S    
O11   P6    D    
Ba1   P2    S    
O20   S1    S    
C7    C8    A    
Ba1   O16   S    
C32   H47   S    
C5    P6    S    
O6    P7    D    
C9    C10   A    
Ba2   O6    S    
Ba1   O1    S    
O19   S1    D    
Ba1   O23   S    
C38   H21   S    
C22   P2    S    
Ba1   O10   S    
C34   H14   S    
O18   S1    D    
C24   C25   A    
C1    H4    S    
O2    P5    D    
