data_mof_unit_57403.cif
_audit_creation_date              2012-12-10T17:57:52-0500
_audit_creation_method            fapswitch 2.2
_symmetry_space_group_name_H-M    P1
_symmetry_Int_Tables_number       1
_space_group_crystal_system       triclinic
_cell_length_a                    10.800127
_cell_length_b                    9.514123
_cell_length_c                    15.172802
_cell_angle_alpha                 91.334585
_cell_angle_beta                  90.174575
_cell_angle_gamma                 89.998019
_cell_volume                      1558.63194295

loop_
_atom_site_label
_atom_site_type_symbol
_atom_type_description
_atom_site_fract_x
_atom_site_fract_y
_atom_site_fract_z
_atom_type_partial_charge
C1    C     C_R   0.262585 0.499968 0.499985 0.808727
C2    C     C_R   0.737415 0.500032 0.500015 0.808727
C3    C     C_R   0.430550 0.254435 0.038046 -0.220506
C4    C     C_R   0.569447 0.745565 0.961954 -0.220505
C5    C     C_R   0.064945 0.431599 0.567634 -0.071218
C6    C     C_R   0.935055 0.568401 0.432365 -0.071219
C7    C     C_R   0.935574 0.431960 0.567766 -0.068767
C8    C     C_R   0.064426 0.568040 0.432234 -0.068767
C9    C     C_R   0.871388 0.500152 0.500054 -0.128829
C10   C     C_R   0.128612 0.499847 0.499946 -0.128829
C11   C     C_R   0.403744 0.072987 0.463894 0.017394
C12   C     C_R   0.596256 0.927012 0.536106 0.017392
C13   C     C_R   0.596008 0.075712 0.536492 0.004161
C14   C     C_R   0.403992 0.924288 0.463508 0.004162
C15   C     C_R   0.496738 0.498171 0.328605 0.820874
C16   C     C_R   0.503262 0.501829 0.671395 0.820875
C17   C     C_R   0.543277 0.626477 0.817947 -0.061654
C18   C     C_R   0.456724 0.373522 0.182053 -0.061656
C19   C     C_R   0.506599 0.505533 0.768397 -0.119910
C20   C     C_R   0.493400 0.494467 0.231603 -0.119910
C21   C     C_R   0.471480 0.383800 0.811661 -0.202551
C22   C     C_R   0.528517 0.616201 0.188339 -0.202550
C23   C     C_R   0.469322 0.379188 0.903522 0.057899
C24   C     C_R   0.530675 0.620813 0.096478 0.057898
C25   C     C_R   0.501837 0.501117 0.953538 0.050496
C26   C     C_R   0.498160 0.498883 0.046461 0.050496
C27   C     C_R   0.538520 0.625151 0.910811 0.055852
C28   C     C_R   0.461479 0.374850 0.089189 0.055852
C29   C     C_R   0.434511 0.255487 0.946514 -0.026252
C30   C     C_R   0.565485 0.744514 0.053486 -0.026253
Cu1   Cu    Cu3+1 0.500000 0.640660 0.500000 0.986033
Cu2   Cu    Cu3+1 0.500000 0.359340 0.500000 0.986033
H1    H     H_    0.326317 0.127572 0.435138 0.145093
H2    H     H_    0.673683 0.872428 0.564862 0.145095
H3    H     H_    0.672781 0.132440 0.566180 0.145005
H4    H     H_    0.327219 0.867560 0.433820 0.145004
N1    N     N_R   0.500000 0.852070 0.500000 -0.173190
N2    N     N_R   0.500000 0.147930 0.500000 -0.173190
O1    O     O_R   0.319640 0.618740 0.499990 -0.585401
O2    O     O_R   0.680360 0.381260 0.500010 -0.585402
O3    O     O_R   0.680360 0.618740 0.500010 -0.588391
O4    O     O_R   0.319640 0.381260 0.499990 -0.588392
O5    O     O_R   0.499970 0.618800 0.370260 -0.572788
O6    O     O_R   0.500030 0.381200 0.629740 -0.572788
O7    O     O_R   0.500030 0.618800 0.629740 -0.574844
O8    O     O_R   0.499970 0.381200 0.370260 -0.574844
C31   C     C_1   0.590073 0.750074 0.774670 0.289072
N3    N     N_1   0.627707 0.849242 0.741083 -0.289670
C32   C     C_1   0.409934 0.249922 0.225330 0.289075
N4    N     N_1   0.372306 0.150751 0.258917 -0.289667
H5    H     H_    0.444199 0.291945 0.772854 0.188039
H6    H     H_    0.555797 0.708056 0.227146 0.188039
C33   C     C_1   0.402749 0.126939 0.898740 0.247955
N5    N     N_1   0.377393 0.024100 0.860619 -0.261284
C34   C     C_1   0.597247 0.873062 0.101259 0.247955
N6    N     N_1   0.622602 0.975902 0.139380 -0.261284
H7    H     H_    0.403551 0.157566 0.068884 0.166858
H8    H     H_    0.596448 0.842435 0.931116 0.166858
C35   C     C_1   0.132363 0.364977 0.638409 0.265502
N7    N     N_1   0.186071 0.311928 0.694770 -0.269777
C36   C     C_1   0.867637 0.635023 0.361591 0.265502
N8    N     N_1   0.813928 0.688071 0.305229 -0.269776
C37   C     C_1   0.868673 0.366821 0.639067 0.239202
N9    N     N_1   0.815313 0.315148 0.695882 -0.273130
C38   C     C_1   0.131327 0.633179 0.360933 0.239201
N10   N     N_1   0.184687 0.684853 0.304118 -0.273130

loop_
_geom_bond_atom_site_label_1
_geom_bond_atom_site_label_2
_ccdc_geom_bond_type
C16   O7    A    
C11   N2    A    
C6    C8    A    
C34   N6    T    
Cu1   N1    S    
C8    C38   S    
Cu2   N2    S    
C25   C27   A    
C30   C34   S    
C16   O6    A    
C26   C28   A    
C31   N3    T    
C11   H1    S    
C7    C9    A    
C32   N4    T    
C6    C9    A    
Cu2   O2    S    
Cu1   O5    S    
Cu2   O6    S    
C15   O5    A    
C35   N7    T    
C33   N5    T    
C14   N1    A    
C24   C26   A    
C7    C37   S    
C13   N2    A    
C15   C20   S    
C29   C33   S    
C16   C19   S    
C23   C29   A    
C6    C36   S    
C5    C10   A    
C3    C28   A    
C17   C19   A    
C20   C22   A    
C13   H3    S    
C22   H6    S    
C18   C20   A    
C23   C25   A    
C21   C23   A    
C14   H4    S    
C36   N8    T    
C11   C14   A    
C22   C24   A    
C24   C30   A    
C1    O1    A    
C2    O3    A    
C12   H2    S    
C37   N9    T    
C17   C27   A    
C2    O2    A    
C1    O4    A    
C21   H5    S    
C4    C27   A    
C18   C28   A    
C12   C13   A    
C8    C10   A    
C38   N10   T    
Cu1   O7    S    
C4    H8    S    
C12   N1    A    
C5    C7    A    
C5    C35   S    
C3    C29   A    
Cu2   O4    S    
Cu1   O3    S    
C15   O8    A    
C19   C21   A    
C25   C26   A    
C2    C9    S    
Cu2   O8    S    
Cu1   Cu2   S    
C4    C30   A    
C1    C10   S    
C17   C31   S    
C18   C32   S    
Cu1   O1    S    
C3    H7    S    
