data_mof_unit_65426.cif
_audit_creation_date              2012-12-10T19:39:09-0500
_audit_creation_method            fapswitch 2.2
_symmetry_space_group_name_H-M    P1
_symmetry_Int_Tables_number       1
_space_group_crystal_system       triclinic
_cell_length_a                    25.869608
_cell_length_b                    43.155326
_cell_length_c                    25.182468
_cell_angle_alpha                 89.999852
_cell_angle_beta                  120.942914
_cell_angle_gamma                 90.000302
_cell_volume                      24112.8107332

loop_
_atom_site_label
_atom_site_type_symbol
_atom_type_description
_atom_site_fract_x
_atom_site_fract_y
_atom_site_fract_z
_atom_type_partial_charge
Br1   Br    Br    0.617643 0.135751 0.009197 -0.537218
Br2   Br    Br    0.382357 0.864249 0.990803 -0.537218
Br3   Br    Br    0.382358 0.135750 0.990804 -0.537229
Br4   Br    Br    0.617643 0.864250 0.009197 -0.537233
Br5   Br    Br    0.117643 0.635751 0.009197 -0.537218
Br6   Br    Br    0.882357 0.364249 0.990803 -0.537218
Br7   Br    Br    0.882358 0.635750 0.990804 -0.537237
Br8   Br    Br    0.117642 0.364250 0.009196 -0.537223
C1    C     C_R   0.360227 0.749637 0.000611 0.799192
C2    C     C_R   0.500000 0.032575 0.000000 0.142252
C3    C     C_R   0.549436 0.615413 0.046571 -0.202962
C4    C     C_R   0.049432 0.884587 0.046578 -0.202984
C5    C     C_R   0.950568 0.115413 0.953422 -0.202982
C6    C     C_R   0.950566 0.884587 0.953425 -0.202967
C7    C     C_R   0.049433 0.115413 0.046575 -0.202970
C8    C     C_R   0.500000 0.368190 0.000000 0.000120
C9    C     C_R   0.500001 0.631810 0.999998 0.000117
C10   C     C_R   1.000000 0.868190 0.000001 0.000119
C11   C     C_R   0.000000 0.131810 0.999999 0.000117
C12   C     C_R   0.898619 0.730260 0.730774 -0.181275
C13   C     C_R   1.000000 0.467425 1.000000 0.142251
C14   C     C_R   0.101380 0.269740 0.269226 -0.181275
C15   C     C_R   0.101380 0.730260 0.269226 -0.181275
C16   C     C_R   0.898620 0.269740 0.730774 -0.181275
C17   C     C_R   0.398620 0.230260 0.730774 -0.181275
C18   C     C_R   0.601381 0.769740 0.269226 -0.181276
C19   C     C_R   0.601380 0.230260 0.269226 -0.181276
C20   C     C_R   0.398620 0.769740 0.730774 -0.181275
C21   C     C_R   0.866330 0.730247 0.666244 -0.178121
C22   C     C_R   0.133670 0.269752 0.333756 -0.178122
C23   C     C_R   0.133669 0.730248 0.333756 -0.178119
C24   C     C_R   1.000000 0.532575 0.000000 0.142252
C25   C     C_R   0.866331 0.269752 0.666244 -0.178121
C26   C     C_R   0.366330 0.230248 0.666244 -0.178122
C27   C     C_R   0.633670 0.769752 0.333756 -0.178120
C28   C     C_R   0.633669 0.230248 0.333756 -0.178121
C29   C     C_R   0.366331 0.769752 0.666244 -0.178121
C30   C     C_R   0.816725 0.750059 0.633395 0.113264
C31   C     C_R   0.183275 0.249941 0.366605 0.113265
C32   C     C_R   0.183275 0.750059 0.366605 0.113265
C33   C     C_R   0.816725 0.249941 0.633395 0.113266
C34   C     C_R   0.316725 0.250059 0.633395 0.113266
C35   C     C_R   0.500001 0.532554 0.999996 0.105597
C36   C     C_R   0.683275 0.749941 0.366605 0.113264
C37   C     C_R   0.683275 0.250059 0.366605 0.113265
C38   C     C_R   0.316725 0.749941 0.633395 0.113265
C39   C     C_R   0.799952 0.769891 0.666177 -0.178625
C40   C     C_R   0.200048 0.230109 0.333823 -0.178624
C41   C     C_R   0.200048 0.769891 0.333823 -0.178625
C42   C     C_R   0.799952 0.230109 0.666177 -0.178626
C43   C     C_R   0.299952 0.269891 0.666177 -0.178626
C44   C     C_R   0.700047 0.730109 0.333823 -0.178624
C45   C     C_R   0.700048 0.269890 0.333823 -0.178624
C46   C     C_R   0.500001 0.467446 0.999998 0.105594
C47   C     C_R   0.299952 0.730109 0.666177 -0.178624
C48   C     C_R   0.832200 0.769896 0.730712 -0.185799
C49   C     C_R   0.167801 0.230104 0.269288 -0.185800
C50   C     C_R   0.167801 0.769896 0.269288 -0.185803
C51   C     C_R   0.832199 0.230104 0.730712 -0.185801
C52   C     C_R   0.332199 0.269896 0.730712 -0.185800
C53   C     C_R   0.667800 0.730104 0.269288 -0.185798
C54   C     C_R   0.667801 0.269896 0.269288 -0.185802
C55   C     C_R   0.332199 0.730104 0.730712 -0.185802
C56   C     C_R   0.881824 0.750076 0.763586 -0.005049
C57   C     C_R   0.000000 0.032554 0.999999 0.105596
C58   C     C_R   0.118176 0.249924 0.236414 -0.005050
C59   C     C_R   0.118176 0.750076 0.236415 -0.005051
C60   C     C_R   0.881824 0.249924 0.763585 -0.005050
C61   C     C_R   0.381824 0.250076 0.763586 -0.005049
C62   C     C_R   0.618176 0.749924 0.236414 -0.005050
C63   C     C_R   0.618176 0.250076 0.236415 -0.005051
C64   C     C_R   0.381824 0.749924 0.763585 -0.005050
C65   C     C_R   0.764040 0.778069 0.532213 -0.180132
C66   C     C_R   0.235961 0.221931 0.467787 -0.180132
C67   C     C_R   0.235962 0.778069 0.467787 -0.180132
C68   C     C_R   1.000000 0.967446 0.000001 0.105596
C69   C     C_R   0.764038 0.221931 0.532213 -0.180132
C70   C     C_R   0.264039 0.278069 0.532213 -0.180133
C71   C     C_R   0.735960 0.721931 0.467787 -0.180132
C72   C     C_R   0.735962 0.278069 0.467787 -0.180133
C73   C     C_R   0.264038 0.721931 0.532213 -0.180132
C74   C     C_R   0.500000 0.665851 1.000000 0.777351
C75   C     C_R   0.500000 0.334149 0.000000 0.777347
C76   C     C_R   0.000000 0.165851 1.000000 0.777345
C77   C     C_R   1.000000 0.834149 0.000000 0.777350
C78   C     C_R   0.731771 0.778039 0.467687 -0.178005
C79   C     C_R   0.620921 0.652104 0.957658 -0.117005
C80   C     C_R   0.268230 0.221961 0.532313 -0.178006
C81   C     C_R   0.268231 0.778039 0.532313 -0.178006
C82   C     C_R   0.731769 0.221961 0.467686 -0.178006
C83   C     C_R   0.231770 0.278039 0.467687 -0.178005
C84   C     C_R   0.768229 0.721961 0.532313 -0.178005
C85   C     C_R   0.768231 0.278039 0.532313 -0.178006
C86   C     C_R   0.231769 0.721961 0.467686 -0.178006
C87   C     C_R   0.717453 0.749970 0.434921 0.104654
C88   C     C_R   0.282547 0.250030 0.565079 0.104654
C89   C     C_R   0.282547 0.749970 0.565079 0.104654
C90   C     C_R   0.379035 0.347907 0.042284 -0.116979
C91   C     C_R   0.717453 0.250030 0.434921 0.104654
C92   C     C_R   0.217453 0.249970 0.434921 0.104654
C93   C     C_R   0.782547 0.750030 0.565079 0.104654
C94   C     C_R   0.782547 0.249970 0.565079 0.104654
C95   C     C_R   0.217453 0.750030 0.434921 0.104654
C96   C     C_R   0.549467 0.416870 0.046531 -0.196797
C97   C     C_R   0.450533 0.583130 0.953466 -0.196797
C98   C     C_R   0.450533 0.416870 0.953467 -0.196798
C99   C     C_R   0.549470 0.583130 0.046526 -0.196799
C100  C     C_R   0.049466 0.916870 0.046534 -0.196798
C101  C     C_R   0.379009 0.652086 0.042250 -0.116962
C102  C     C_R   0.950534 0.083130 0.953465 -0.196797
C103  C     C_R   0.950532 0.916870 0.953469 -0.196799
C104  C     C_R   0.049467 0.083130 0.046531 -0.196798
C105  C     C_R   0.500001 0.433279 0.999999 0.121734
C106  C     C_R   0.500002 0.566721 0.999996 0.121729
C107  C     C_R   0.999999 0.933279 0.000002 0.121731
C108  C     C_R   0.000001 0.066721 0.999998 0.121732
C109  C     C_R   0.447987 0.483855 0.987233 -0.180504
C110  C     C_R   0.552015 0.516145 0.012760 -0.180506
C111  C     C_R   0.552015 0.483855 0.012761 -0.180500
C112  C     C_R   0.639772 0.250363 0.999389 0.799192
C113  C     C_R   0.620991 0.347914 0.957750 -0.116964
C114  C     C_R   0.447987 0.516145 0.987232 -0.180500
C115  C     C_R   0.947985 0.983855 0.987233 -0.180505
C116  C     C_R   0.052015 0.016145 0.012767 -0.180505
C117  C     C_R   0.052015 0.983855 0.012768 -0.180499
C118  C     C_R   0.947985 0.016145 0.987232 -0.180501
C119  C     C_R   0.500000 0.834024 1.000000 0.894412
C120  C     C_R   0.500000 0.165976 0.000000 0.894412
C121  C     C_R   1.000000 0.334024 1.000000 0.894412
C122  C     C_R   0.000000 0.665976 0.000000 0.894412
C123  C     C_R   0.548287 0.115475 0.002385 0.233498
C124  C     C_R   0.120951 0.152097 0.957704 -0.116985
C125  C     C_R   0.451713 0.884525 0.997615 0.233498
C126  C     C_R   0.451713 0.115475 0.997616 0.233499
C127  C     C_R   0.548287 0.884525 0.002384 0.233500
C128  C     C_R   0.048287 0.615475 0.002385 0.233498
C129  C     C_R   0.951713 0.384525 0.997615 0.233499
C130  C     C_R   0.951713 0.615475 0.997615 0.233500
C131  C     C_R   0.048287 0.384525 0.002384 0.233499
C132  C     C_R   0.547912 0.083154 0.002345 -0.197005
C133  C     C_R   0.452088 0.916846 0.997655 -0.197005
C134  C     C_R   0.452089 0.083154 0.997656 -0.197005
C135  C     C_R   0.879067 0.847899 0.042327 -0.116996
C136  C     C_R   0.547911 0.916846 0.002344 -0.197004
C137  C     C_R   0.047912 0.583154 0.002345 -0.197006
C138  C     C_R   0.952088 0.416846 0.997655 -0.197005
C139  C     C_R   0.952088 0.583154 0.997656 -0.197005
C140  C     C_R   0.047911 0.416846 0.002344 -0.197005
C141  C     C_R   0.500000 0.066775 0.000000 0.000416
C142  C     C_R   0.500000 0.933225 1.000000 0.000416
C143  C     C_R   0.000000 0.566775 0.000000 0.000417
C144  C     C_R   1.000000 0.433225 0.999999 0.000416
C145  C     C_R   0.500000 0.131964 0.000000 -0.142622
C146  C     C_R   0.879008 0.152086 0.042247 -0.116960
C147  C     C_R   0.500000 0.868035 1.000000 -0.142621
C148  C     C_R   1.000000 0.631964 0.000000 -0.142621
C149  C     C_R   1.000000 0.368036 1.000000 -0.142622
C150  C     C_R   0.482557 0.016148 0.036389 -0.176659
C151  C     C_R   0.517443 0.983852 0.963611 -0.176659
C152  C     C_R   0.517444 0.016149 0.963611 -0.176658
C153  C     C_R   0.482556 0.983851 0.036389 -0.176660
C154  C     C_R   0.982557 0.516148 0.036389 -0.176660
C155  C     C_R   0.017443 0.483851 0.963610 -0.176658
C156  C     C_R   0.017443 0.516149 0.963611 -0.176659
C157  C     C_R   0.120991 0.847914 0.957752 -0.116963
C158  C     C_R   0.982557 0.483851 0.036389 -0.176658
C159  C     C_R   0.643766 0.681405 0.957199 -0.123617
C160  C     C_R   0.356203 0.318605 0.042763 -0.123616
C161  C     C_R   0.356186 0.681389 0.042738 -0.123601
C162  C     C_R   0.643815 0.318611 0.957261 -0.123605
C163  C     C_R   0.143786 0.181398 0.957231 -0.123597
C164  C     C_R   0.639773 0.749637 0.999390 0.799186
C165  C     C_R   0.856226 0.818598 0.042793 -0.123622
C166  C     C_R   0.856184 0.181388 0.042737 -0.123602
C167  C     C_R   0.143815 0.818612 0.957262 -0.123604
C168  C     C_R   0.701449 0.690273 0.005209 0.136814
C169  C     C_R   0.298530 0.309726 0.994752 0.136836
C170  C     C_R   0.298516 0.690273 0.994729 0.136849
C171  C     C_R   0.701484 0.309727 0.005272 0.136850
C172  C     C_R   0.201464 0.190273 0.005237 0.136826
C173  C     C_R   0.798547 0.809727 0.994781 0.136819
C174  C     C_R   0.798515 0.190273 0.994727 0.136850
C175  C     C_R   0.360227 0.250363 0.000611 0.799190
C176  C     C_R   0.201484 0.809726 0.005272 0.136851
C177  C     C_R   0.736045 0.669161 0.053116 -0.116319
C178  C     C_R   0.263930 0.330825 0.946823 -0.116318
C179  C     C_R   0.263910 0.669179 0.946790 -0.116327
C180  C     C_R   0.736089 0.330821 0.053210 -0.116327
C181  C     C_R   0.236066 0.169169 0.053155 -0.116330
C182  C     C_R   0.763949 0.830834 0.946867 -0.116314
C183  C     C_R   0.763910 0.169179 0.946788 -0.116326
C184  C     C_R   0.236090 0.830821 0.053211 -0.116327
C185  C     C_R   0.713069 0.639851 0.053270 -0.128582
C186  C     C_R   0.860228 0.249637 0.000611 0.799192
C187  C     C_R   0.286894 0.360136 0.946648 -0.128591
C188  C     C_R   0.286866 0.639867 0.946606 -0.128591
C189  C     C_R   0.713133 0.360133 0.053395 -0.128592
C190  C     C_R   0.213098 0.139859 0.053323 -0.128586
C191  C     C_R   0.786922 0.860144 0.946705 -0.128586
C192  C     C_R   0.786865 0.139868 0.946602 -0.128592
C193  C     C_R   0.213134 0.860132 0.053396 -0.128593
C194  C     C_R   0.655619 0.631318 0.005547 -0.104621
C195  C     C_R   0.344334 0.368681 0.994372 -0.104620
C196  C     C_R   0.344303 0.631316 0.994330 -0.104626
C197  C     C_R   0.139772 0.750363 0.999389 0.799192
C198  C     C_R   0.655697 0.368684 0.005670 -0.104624
C199  C     C_R   0.155653 0.131318 0.005604 -0.104630
C200  C     C_R   0.844369 0.868681 0.994429 -0.104615
C201  C     C_R   0.844301 0.131316 0.994326 -0.104624
C202  C     C_R   0.155697 0.868683 0.005672 -0.104622
C203  C     C_R   0.281363 0.222526 0.006878 -0.226242
C204  C     C_R   0.718643 0.777474 0.993133 -0.226243
C205  C     C_R   0.718629 0.222527 0.993107 -0.226236
C206  C     C_R   0.281371 0.777473 0.006893 -0.226235
C207  C     C_R   0.781356 0.722525 0.006866 -0.226242
C208  C     C_R   0.139773 0.249637 0.999389 0.799186
C209  C     C_R   0.218636 0.277473 0.993120 -0.226242
C210  C     C_R   0.218629 0.722527 0.993107 -0.226235
C211  C     C_R   0.781371 0.277472 0.006893 -0.226234
C212  C     C_R   0.304696 0.250887 0.001798 -0.054633
C213  C     C_R   0.695304 0.749113 0.998201 -0.054625
C214  C     C_R   0.695304 0.250887 0.998201 -0.054643
C215  C     C_R   0.304696 0.749113 0.001799 -0.054643
C216  C     C_R   0.804696 0.750886 0.001798 -0.054625
C217  C     C_R   0.195303 0.249113 0.998201 -0.054634
C218  C     C_R   0.195304 0.750887 0.998201 -0.054643
C219  C     C_R   0.860227 0.750362 0.000610 0.799187
C220  C     C_R   0.804696 0.249113 0.001799 -0.054643
C221  C     C_R   0.415882 0.749938 0.831731 0.782624
C222  C     C_R   0.584118 0.250062 0.168269 0.782625
C223  C     C_R   0.584118 0.749938 0.168269 0.782622
C224  C     C_R   0.415882 0.250062 0.831731 0.782623
C225  C     C_R   0.915882 0.249938 0.831731 0.782625
C226  C     C_R   0.084118 0.750062 0.168269 0.782624
C227  C     C_R   0.084118 0.249938 0.168269 0.782623
C228  C     C_R   0.915882 0.750062 0.831731 0.782622
C229  C     C_R   0.273604 0.278824 0.995544 -0.009186
C230  C     C_R   0.500000 0.967425 1.000000 0.142252
C231  C     C_R   0.726387 0.721175 0.004440 -0.009173
C232  C     C_R   0.726403 0.278824 0.004469 -0.009191
C233  C     C_R   0.273597 0.721176 0.995532 -0.009190
C234  C     C_R   0.773612 0.778824 0.995558 -0.009179
C235  C     C_R   0.226394 0.221176 0.004452 -0.009177
C236  C     C_R   0.226403 0.778824 0.004468 -0.009191
C237  C     C_R   0.773597 0.221176 0.995531 -0.009191
C238  C     C_R   0.549433 0.384587 0.046576 -0.202980
C239  C     C_R   0.450567 0.615413 0.953423 -0.202984
C240  C     C_R   0.450567 0.384587 0.953423 -0.202975
H1    H     H_    0.588040 0.372485 0.083174 0.163217
H2    H     H_    0.219338 0.324520 0.909502 0.133481
H3    H     H_    0.407607 0.528298 0.978154 0.129697
H4    H     H_    0.907603 0.971702 0.978153 0.129696
H5    H     H_    0.092397 0.028298 0.021847 0.129696
H6    H     H_    0.092396 0.971701 0.021849 0.129696
H7    H     H_    0.907603 0.028299 0.978151 0.129697
H8    H     H_    0.469764 0.028294 0.065538 0.140755
H9    H     H_    0.530236 0.971706 0.934462 0.140754
H10   H     H_    0.530236 0.028294 0.934462 0.140755
H11   H     H_    0.469764 0.971705 0.065538 0.140755
H12   H     H_    0.969765 0.528294 0.065539 0.140755
H13   H     H_    0.219321 0.675488 0.909471 0.133474
H14   H     H_    0.030234 0.471706 0.934461 0.140755
H15   H     H_    0.030235 0.528295 0.934461 0.140755
H16   H     H_    0.969765 0.471705 0.065539 0.140755
H17   H     H_    0.638050 0.608569 0.005607 0.134462
H18   H     H_    0.361892 0.391431 0.994295 0.134448
H19   H     H_    0.361855 0.608566 0.994246 0.134438
H20   H     H_    0.638145 0.391434 0.005754 0.134439
H21   H     H_    0.138091 0.108569 0.005675 0.134455
H22   H     H_    0.861935 0.891431 0.994363 0.134457
H23   H     H_    0.861854 0.108566 0.994241 0.134439
H24   H     H_    0.780679 0.324511 0.090530 0.133474
H25   H     H_    0.138145 0.891434 0.005757 0.134439
H26   H     H_    0.576408 0.645458 0.920743 0.123917
H27   H     H_    0.423541 0.354563 0.079199 0.123923
H28   H     H_    0.423513 0.645426 0.079164 0.123924
H29   H     H_    0.576488 0.354574 0.920835 0.123925
H30   H     H_    0.076441 0.145445 0.920792 0.123920
H31   H     H_    0.923578 0.854549 0.079242 0.123918
H32   H     H_    0.923511 0.145425 0.079162 0.123925
H33   H     H_    0.076488 0.854574 0.920837 0.123925
H34   H     H_    0.616664 0.697104 0.919312 0.101254
H35   H     H_    0.280661 0.175470 0.090472 0.133489
H36   H     H_    0.383308 0.302915 0.080666 0.101255
H37   H     H_    0.383294 0.697075 0.080647 0.101249
H38   H     H_    0.616706 0.302925 0.919352 0.101250
H39   H     H_    0.116680 0.197092 0.919336 0.101247
H40   H     H_    0.883329 0.802902 0.080684 0.101257
H41   H     H_    0.883293 0.197074 0.080647 0.101249
H42   H     H_    0.116706 0.802925 0.919353 0.101250
H43   H     H_    0.719352 0.824535 0.909546 0.133491
H44   H     H_    0.719321 0.175489 0.909468 0.133474
H45   H     H_    0.280679 0.824511 0.090531 0.133474
H46   H     H_    0.739869 0.623721 0.090348 0.131454
H47   H     H_    0.260091 0.376257 0.909552 0.131448
H48   H     H_    0.260060 0.623749 0.909503 0.131446
H49   H     H_    0.411958 0.627515 0.916827 0.163219
H50   H     H_    0.739940 0.376250 0.090498 0.131445
H51   H     H_    0.239901 0.123734 0.090410 0.131456
H52   H     H_    0.760122 0.876271 0.909621 0.131452
H53   H     H_    0.760059 0.123751 0.909499 0.131446
H54   H     H_    0.239940 0.876250 0.090499 0.131446
H55   H     H_    0.305065 0.201179 0.010344 0.188854
H56   H     H_    0.694946 0.798823 0.989677 0.188851
H57   H     H_    0.694921 0.201180 0.989630 0.188866
H58   H     H_    0.305079 0.798820 0.010370 0.188865
H59   H     H_    0.805053 0.701177 0.010321 0.188848
H60   H     H_    0.411960 0.372485 0.916826 0.163218
H61   H     H_    0.194934 0.298821 0.989653 0.188859
H62   H     H_    0.194921 0.701180 0.989630 0.188865
H63   H     H_    0.805079 0.298820 0.010370 0.188865
H64   H     H_    0.936795 0.714796 0.754912 0.164093
H65   H     H_    0.063205 0.285204 0.245088 0.164093
H66   H     H_    0.063204 0.714796 0.245088 0.164094
H67   H     H_    0.936796 0.285204 0.754912 0.164093
H68   H     H_    0.436796 0.214796 0.754912 0.164092
H69   H     H_    0.563205 0.785204 0.245088 0.164093
H70   H     H_    0.563204 0.214796 0.245088 0.164093
H71   H     H_    0.588044 0.627514 0.083167 0.163221
H72   H     H_    0.436796 0.785204 0.754912 0.164093
H73   H     H_    0.880603 0.715015 0.642004 0.133109
H74   H     H_    0.119396 0.284985 0.357996 0.133109
H75   H     H_    0.119395 0.715015 0.357996 0.133110
H76   H     H_    0.880605 0.284985 0.642004 0.133109
H77   H     H_    0.380604 0.215015 0.642004 0.133109
H78   H     H_    0.619397 0.784985 0.357996 0.133109
H79   H     H_    0.619395 0.215015 0.357996 0.133110
H80   H     H_    0.380605 0.784985 0.642004 0.133110
H81   H     H_    0.761410 0.785116 0.641881 0.132023
H82   H     H_    0.088039 0.872485 0.083176 0.163217
H83   H     H_    0.238591 0.214884 0.358119 0.132023
H84   H     H_    0.238592 0.785116 0.358119 0.132022
H85   H     H_    0.761408 0.214884 0.641881 0.132022
H86   H     H_    0.261409 0.285116 0.641881 0.132023
H87   H     H_    0.738590 0.714884 0.358119 0.132023
H88   H     H_    0.738592 0.285116 0.358119 0.132022
H89   H     H_    0.261408 0.714884 0.641881 0.132022
H90   H     H_    0.818143 0.785365 0.754805 0.160005
H91   H     H_    0.181857 0.214636 0.245195 0.160005
H92   H     H_    0.181858 0.785364 0.245195 0.160004
H93   H     H_    0.911961 0.127515 0.916824 0.163217
H94   H     H_    0.818142 0.214636 0.754805 0.160004
H95   H     H_    0.318142 0.285364 0.754805 0.160004
H96   H     H_    0.681857 0.714635 0.245195 0.160005
H97   H     H_    0.681858 0.285364 0.245195 0.160004
H98   H     H_    0.318142 0.714635 0.754805 0.160004
H99   H     H_    0.775312 0.800035 0.556435 0.132406
H100  H     H_    0.224690 0.199964 0.443565 0.132406
H101  H     H_    0.224691 0.800036 0.443565 0.132406
H102  H     H_    0.775309 0.199964 0.556435 0.132406
H103  H     H_    0.275310 0.300035 0.556435 0.132407
H104  H     H_    0.911959 0.872485 0.916827 0.163218
H105  H     H_    0.724688 0.699964 0.443565 0.132406
H106  H     H_    0.724691 0.300035 0.443565 0.132406
H107  H     H_    0.275309 0.699964 0.556435 0.132406
H108  H     H_    0.718775 0.799984 0.443386 0.134054
H109  H     H_    0.281226 0.200016 0.556614 0.134054
H110  H     H_    0.281228 0.799984 0.556614 0.134054
H111  H     H_    0.718772 0.200016 0.443386 0.134054
H112  H     H_    0.218773 0.299984 0.443386 0.134054
H113  H     H_    0.781225 0.700016 0.556614 0.134054
H114  H     H_    0.781228 0.299984 0.556614 0.134054
H115  H     H_    0.088040 0.127515 0.083173 0.163219
H116  H     H_    0.218772 0.700016 0.443386 0.134054
H117  H     H_    0.587854 0.429014 0.083313 0.132347
H118  H     H_    0.412146 0.570987 0.916685 0.132347
H119  H     H_    0.412147 0.429013 0.916685 0.132350
H120  H     H_    0.587858 0.570987 0.083306 0.132352
H121  H     H_    0.087852 0.929013 0.083317 0.132347
H122  H     H_    0.912148 0.070987 0.916683 0.132347
H123  H     H_    0.912146 0.929013 0.916687 0.132352
H124  H     H_    0.087853 0.070987 0.083313 0.132351
H125  H     H_    0.585761 0.070801 0.005313 0.171484
H126  H     H_    0.780645 0.675457 0.090436 0.133494
H127  H     H_    0.414239 0.929199 0.994686 0.171484
H128  H     H_    0.414239 0.070801 0.994687 0.171484
H129  H     H_    0.585761 0.929199 0.005313 0.171483
H130  H     H_    0.085761 0.570801 0.005313 0.171485
H131  H     H_    0.914238 0.429199 0.994687 0.171484
H132  H     H_    0.914239 0.570801 0.994687 0.171483
H133  H     H_    0.085761 0.429199 0.005312 0.171484
H134  H     H_    0.407606 0.471702 0.978156 0.129697
H135  H     H_    0.592396 0.528298 0.021837 0.129695
H136  H     H_    0.592396 0.471701 0.021839 0.129697
O1    O     O_3   0.500000 0.749970 0.000000 -0.487558
O2    O     O_R   0.097640 0.731860 0.963670 -0.631031
O3    O     O_R   0.097640 0.268140 0.963670 -0.631031
O4    O     O_R   0.902360 0.731860 0.036330 -0.631029
O5    O     O_R   0.400350 0.731780 0.861400 -0.647142
O6    O     O_R   0.599650 0.268220 0.138600 -0.647141
O7    O     O_R   0.599650 0.731780 0.138600 -0.647142
O8    O     O_R   0.400350 0.268220 0.861400 -0.647143
O9    O     O_R   0.900350 0.231780 0.861400 -0.647142
O10   O     O_R   0.099650 0.768220 0.138600 -0.647142
O11   O     O_R   0.099650 0.231780 0.138600 -0.647142
O12   O     O_3   0.500000 0.250030 0.000000 -0.487557
O13   O     O_R   0.900350 0.768220 0.861400 -0.647143
O14   O     O_R   0.451490 0.680670 0.963650 -0.642041
O15   O     O_R   0.548510 0.319330 0.036350 -0.642039
O16   O     O_R   0.548510 0.680670 0.036350 -0.642036
O17   O     O_R   0.451490 0.319330 0.963650 -0.642036
O18   O     O_R   0.951490 0.180670 0.963650 -0.642039
O19   O     O_R   0.048510 0.819330 0.036350 -0.642040
O20   O     O_R   0.048510 0.180670 0.036350 -0.642036
O21   O     O_R   0.951490 0.819330 0.963650 -0.642036
O22   O     O_R   0.487790 0.819270 0.036340 -0.607492
O23   O     O_3   0.000000 0.249970 0.000000 -0.487558
O24   O     O_R   0.512210 0.180730 0.963660 -0.607491
O25   O     O_R   0.512210 0.819270 0.963660 -0.607491
O26   O     O_R   0.487790 0.180730 0.036340 -0.607491
O27   O     O_R   0.987790 0.319270 0.036340 -0.607491
O28   O     O_R   0.012210 0.680730 0.963660 -0.607491
O29   O     O_R   0.012210 0.319270 0.963660 -0.607491
O30   O     O_R   0.987790 0.680730 0.036340 -0.607491
O31   O     O_R   0.461070 0.768120 0.861410 -0.644629
O32   O     O_R   0.538930 0.231880 0.138590 -0.644628
O33   O     O_R   0.538930 0.768120 0.138590 -0.644629
O34   O     O_3   0.000000 0.750030 0.000000 -0.487558
O35   O     O_R   0.461070 0.231880 0.861410 -0.644629
O36   O     O_R   0.961070 0.268120 0.861410 -0.644629
O37   O     O_R   0.038930 0.731880 0.138590 -0.644628
O38   O     O_R   0.038930 0.268120 0.138590 -0.644629
O39   O     O_R   0.961070 0.731880 0.861410 -0.644629
O40   O     O_R   0.366040 0.731790 0.963660 -0.632941
O41   O     O_R   0.633960 0.268210 0.036340 -0.632942
O42   O     O_R   0.633960 0.731790 0.036340 -0.632935
O43   O     O_R   0.366040 0.268210 0.963660 -0.632938
O44   O     O_R   0.866040 0.231790 0.963660 -0.632941
O45   O     O_R   0.402360 0.768140 0.036330 -0.631033
O46   O     O_R   0.133960 0.768210 0.036340 -0.632941
O47   O     O_R   0.133960 0.231790 0.036340 -0.632937
O48   O     O_R   0.866040 0.768210 0.963660 -0.632935
O49   O     O_R   0.597640 0.231860 0.963670 -0.631032
O50   O     O_R   0.597640 0.768140 0.963670 -0.631029
O51   O     O_R   0.402360 0.231860 0.036330 -0.631031
O52   O     O_R   0.902360 0.268140 0.036330 -0.631032
Zn1   Zn    Zn3+2 0.517420 0.775920 0.948090 1.008052
Zn2   Zn    Zn3+2 0.569330 0.276000 0.051920 0.973055
Zn3   Zn    Zn3+2 0.569330 0.724000 0.051920 0.973057
Zn4   Zn    Zn3+2 0.430670 0.276000 0.948080 0.973055
Zn5   Zn    Zn3+2 0.930670 0.224000 0.948080 0.973054
Zn6   Zn    Zn3+2 0.069330 0.776000 0.051920 0.973054
Zn7   Zn    Zn3+2 0.069330 0.224000 0.051920 0.973056
Zn8   Zn    Zn3+2 0.930670 0.776000 0.948080 0.973056
Zn9   Zn    Zn3+2 0.482580 0.224080 0.051910 1.008052
Zn10  Zn    Zn3+2 0.482580 0.775920 0.051910 1.008049
Zn11  Zn    Zn3+2 0.517420 0.224080 0.948090 1.008050
Zn12  Zn    Zn3+2 0.017420 0.275920 0.948090 1.008051
Zn13  Zn    Zn3+2 0.982580 0.724080 0.051910 1.008053
Zn14  Zn    Zn3+2 0.982580 0.275920 0.051910 1.008050
Zn15  Zn    Zn3+2 0.017420 0.724080 0.948090 1.008049
Zn16  Zn    Zn3+2 0.430670 0.724000 0.948080 0.973054

loop_
_geom_bond_atom_site_label_1
_geom_bond_atom_site_label_2
_ccdc_geom_bond_type
Br5   C128  S    
C184  H45   S    
C13   C155  A    
C102  C108  A    
O42   Zn3   S    
C69   H102  S    
C26   C34   A    
C70   H103  S    
C140  H133  S    
O3    Zn12  S    
C203  C212  A    
O12   Zn4   S    
C239  H49   S    
C21   H73   S    
C42   C51   A    
C20   H72   S    
O10   Zn6   S    
C113  H29   S    
O24   Zn11  S    
C44   C53   A    
C187  C195  A    
C132  H125  S    
O45   Zn10  S    
C104  H124  S    
C202  H25   S    
C206  C236  A    
C210  C233  A    
C164  C213  S    
C79   C159  A    
C70   C88   A    
C38   C47   A    
C48   H90   S    
C79   H26   S    
C158  H16   S    
C83   C92   A    
C188  C196  A    
C17   C26   A    
C122  O30   A    
C153  H11   S    
C65   C93   A    
C154  H12   S    
C67   C95   A    
C68   C117  A    
C189  C198  A    
C113  C198  A    
C182  C191  A    
C8    C240  A    
C82   H111  S    
C41   H84   S    
C10   C77   S    
C129  C138  A    
C37   C91   S    
C61   C224  S    
O34   Zn6   S    
C115  C118  A    
C66   C92   A    
C153  C230  A    
C179  H13   S    
C13   C158  A    
C15   C23   A    
C171  C232  S    
C4    H82   S    
C173  C182  A    
O43   Zn4   S    
C218  C236  A    
C182  H43   S    
C139  H132  S    
C74   O14   A    
O1    Zn10  S    
C119  O25   A    
C197  C218  S    
O13   Zn8   S    
C192  H53   S    
C35   C114  A    
C86   H116  S    
Br4   C127  S    
C200  H22   S    
C197  O2    A    
C227  O11   A    
C34   C88   S    
C207  C231  A    
C135  C165  A    
C54   H97   S    
C2    C152  A    
C19   C63   A    
C221  O31   A    
C169  C229  S    
C7    H115  S    
O1    Zn1   S    
C71   C84   A    
C112  C214  S    
C167  H42   S    
C208  C217  S    
C27   H78   S    
C116  H5    S    
Br1   C123  S    
C124  H30   S    
C192  C201  A    
O29   Zn12  S    
C208  O47   A    
C219  O4    A    
C215  C233  A    
C6    H104  S    
C52   H95   S    
C150  H8    S    
C60   C225  S    
C35   C110  A    
C18   C27   A    
C168  C231  S    
C39   H81   S    
O40   Zn16  S    
C81   C89   A    
C121  O27   A    
O14   Zn16  S    
C122  C148  S    
C72   C85   A    
C210  C218  A    
C90   C160  A    
O49   Zn11  S    
C53   H96   S    
C50   H92   S    
C49   C58   A    
C166  C174  A    
C40   C49   A    
O20   Zn7   S    
O17   Zn4   S    
C213  C231  A    
C100  C107  A    
C228  O13   A    
O32   Zn9   S    
C172  C181  A    
C2    C141  S    
C157  C202  A    
C13   C144  S    
C126  C145  A    
C186  C220  S    
C32   C41   A    
C137  H130  S    
C33   C94   S    
C155  H14   S    
C9    C74   S    
C57   C116  A    
C15   C59   A    
C62   C223  S    
C136  C142  A    
C72   H106  S    
C186  O52   A    
C177  H126  S    
C24   C154  A    
C21   C30   A    
C48   C56   A    
C123  C132  A    
C211  C220  A    
C2    C150  A    
C79   C194  A    
C170  C233  S    
C36   C44   A    
C113  C162  A    
O1    Zn3   S    
C51   H94   S    
C37   C45   A    
C151  H9    S    
C46   C111  A    
C180  H24   S    
O11   Zn7   S    
C135  H31   S    
C101  C161  A    
C133  C142  A    
O48   Zn8   S    
C77   O21   A    
C131  C140  A    
C146  C166  A    
C98   C105  A    
C90   C195  A    
C183  C192  A    
C205  H57   S    
C78   C87   A    
C29   H80   S    
C103  H123  S    
C139  C143  A    
C109  C114  A    
C211  H63   S    
C81   H110  S    
O22   Zn10  S    
C50   C59   A    
C83   H112  S    
C14   H65   S    
C121  O29   A    
C80   H109  S    
C176  C236  S    
O31   Zn1   S    
C205  C237  A    
C131  C149  A    
O26   Zn9   S    
C96   C238  A    
C119  O22   A    
C96   H117  S    
C164  O42   A    
C209  C229  A    
C82   C91   A    
C104  C108  A    
O52   Zn14  S    
C172  C235  S    
C187  H47   S    
C193  H54   S    
C223  O7    A    
C14   C22   A    
C190  C199  A    
O39   Zn15  S    
C7    C104  A    
C101  C196  A    
C140  C144  A    
C195  H18   S    
O37   Zn13  S    
C17   H68   S    
C109  H134  S    
C28   H79   S    
C120  O26   A    
C162  C171  A    
Br3   C126  S    
C66   C80   A    
C111  H136  S    
Br6   C129  S    
C115  H4    S    
C72   C91   A    
O46   Zn6   S    
C32   C95   S    
C73   C86   A    
C40   H83   S    
C199  H21   S    
C20   C29   A    
C24   C156  A    
C186  O44   A    
C191  C200  A    
C151  C230  A    
C54   C63   A    
C117  H6    S    
O41   Zn2   S    
C101  H28   S    
C206  C215  A    
C67   C81   A    
C96   C105  A    
C65   H99   S    
C124  C199  A    
C46   C109  A    
C31   C40   A    
C43   C52   A    
C132  C141  A    
C209  C217  A    
C39   C48   A    
C238  H1    S    
C53   C62   A    
C100  H121  S    
C112  O49   A    
C80   C88   A    
C59   C226  S    
C179  C188  A    
C193  C202  A    
O18   Zn5   S    
O7    Zn3   S    
C207  C216  A    
C227  O38   A    
C168  C177  A    
C7    C11   A    
C26   H77   S    
C22   H74   S    
C161  H37   S    
O23   Zn14  S    
C47   C55   A    
C156  H15   S    
C56   C228  S    
C30   C93   S    
C163  H39   S    
C35   C106  S    
C223  O33   A    
C9    C239  A    
C160  C169  A    
C42   H85   S    
C68   C107  S    
C23   C32   A    
C67   H101  S    
C222  O32   A    
C97   C239  A    
C150  C153  A    
C154  C158  A    
C166  H41   S    
O34   Zn15  S    
C184  C193  A    
C176  C184  A    
C43   H86   S    
C165  C173  A    
C69   C94   A    
C20   C64   A    
O6    Zn2   S    
C55   H98   S    
C228  O39   A    
C189  H50   S    
C183  H44   S    
C69   C82   A    
Br2   C125  S    
C5    C11   A    
O30   Zn13  S    
O15   Zn2   S    
C157  H33   S    
O28   Zn15  S    
C169  C178  A    
O2    Zn15  S    
C119  C147  S    
C122  O28   A    
C224  O8    A    
C175  O51   A    
C8    C75   S    
C185  C194  A    
C211  C232  A    
C15   H66   S    
C97   H118  S    
C99   C106  A    
C71   C87   A    
C203  H55   S    
C97   C106  A    
C126  C134  A    
O44   Zn5   S    
C99   H120  S    
C84   H113  S    
C151  C152  A    
O51   Zn9   S    
C138  H131  S    
C152  H10   S    
C23   H75   S    
C84   C93   A    
C170  C179  A    
C188  H48   S    
O23   Zn12  S    
C133  H127  S    
C38   C89   S    
C86   C95   A    
C3    H71   S    
C18   C62   A    
C112  O41   A    
C174  C237  S    
C47   H89   S    
C174  C183  A    
C225  O9    A    
C216  C219  S    
C33   C42   A    
C206  H58   S    
C134  C141  A    
C4    C100  A    
C196  H19   S    
C66   H100  S    
C3    C9    A    
C208  O3    A    
C75   O17   A    
C120  O24   A    
C210  H62   S    
O33   Zn10  S    
C85   C94   A    
Br7   C130  S    
C136  H129  S    
C49   H91   S    
C1    O45   A    
C197  O46   A    
C171  C180  A    
C129  C149  A    
C19   C28   A    
C217  C235  A    
C44   H87   S    
C58   C227  S    
C125  C133  A    
C16   C25   A    
C25   C33   A    
C146  H32   S    
C57   C118  A    
C216  C234  A    
C165  H40   S    
C180  C189  A    
O5    Zn16  S    
C181  H35   S    
O34   Zn13  S    
C214  C232  A    
C134  H128  S    
C178  H2    S    
C90   H27   S    
C16   C60   A    
O47   Zn7   S    
C45   H88   S    
C55   C64   A    
O21   Zn8   S    
O27   Zn14  S    
C73   H107  S    
C98   C240  A    
C29   C38   A    
C219  O48   A    
C209  H61   S    
C167  C176  A    
C181  C190  A    
C190  H51   S    
C226  O37   A    
C175  C212  S    
C19   H70   S    
C85   H114  S    
C6    C10   A    
C155  C156  A    
C121  C149  S    
O23   Zn7   S    
C12   C21   A    
Br8   C131  S    
C52   C61   A    
C175  O43   A    
C146  C201  A    
C221  O5    A    
C128  C148  A    
C110  H135  S    
C46   C105  S    
C127  C147  A    
C205  C214  A    
C164  O50   A    
C110  C111  A    
C14   C58   A    
C204  C234  A    
C102  H122  S    
C71   H105  S    
C1    O40   A    
C135  C200  A    
C142  C230  S    
C22   C31   A    
C118  H7    S    
C124  C163  A    
C76   O18   A    
C128  C137  A    
C34   C43   A    
C114  H3    S    
O16   Zn3   S    
C75   O15   A    
O12   Zn9   S    
C162  H38   S    
C16   H67   S    
O9    Zn5   S    
C204  C213  A    
O19   Zn6   S    
C6    C103  A    
C226  O10   A    
C64   C221  S    
C77   O19   A    
C178  C187  A    
C123  C145  A    
C5    H93   S    
C160  H36   S    
C220  C237  A    
O12   Zn2   S    
C41   C50   A    
C25   H76   S    
C198  H20   S    
C12   C56   A    
C5    C102  A    
C51   C60   A    
C45   C54   A    
C1    C215  S    
C130  C139  A    
C12   H64   S    
O8    Zn4   S    
C203  C235  A    
C222  O6    A    
C28   C37   A    
C27   C36   A    
C30   C39   A    
C137  C143  A    
C138  C144  A    
C120  C145  S    
C127  C136  A    
C18   H69   S    
O25   Zn1   S    
C3    C99   A    
O4    Zn13  S    
C57   C108  S    
C163  C172  A    
C11   C76   S    
C161  C170  A    
O1    Zn16  S    
C173  C234  S    
C130  C148  A    
O23   Zn5   S    
C125  C147  A    
C68   C115  A    
O38   Zn14  S    
C177  C185  A    
O35   Zn11  S    
C8    C238  A    
C70   C83   A    
C157  C167  A    
C78   H108  S    
C224  O35   A    
C36   C87   S    
C204  H56   S    
O34   Zn8   S    
C31   C92   S    
C24   C143  S    
C73   C89   A    
C63   C222  S    
C98   H119  S    
C76   O20   A    
C240  H60   S    
C212  C229  A    
C194  H17   S    
C65   C78   A    
C225  O36   A    
O50   Zn1   S    
C159  H34   S    
C207  H59   S    
C201  H23   S    
C17   C61   A    
C74   O16   A    
C4    C10   A    
O12   Zn11  S    
C191  H52   S    
C116  C117  A    
C103  C107  A    
O36   Zn12  S    
C185  H46   S    
C159  C168  A    
