data_mof_unit_37167.cif
_audit_creation_date              2012-12-10T18:58:12-0500
_audit_creation_method            fapswitch 2.2
_symmetry_space_group_name_H-M    P1
_symmetry_Int_Tables_number       1
_space_group_crystal_system       triclinic
_cell_length_a                    11.083496
_cell_length_b                    10.833635
_cell_length_c                    9.55049
_cell_angle_alpha                 90.36594
_cell_angle_beta                  103.159702
_cell_angle_gamma                 90.11153
_cell_volume                      1116.62616627

loop_
_atom_site_label
_atom_site_type_symbol
_atom_type_description
_atom_site_fract_x
_atom_site_fract_y
_atom_site_fract_z
_atom_type_partial_charge
C1    C     C_R   0.497245 0.262395 0.498809 0.802101
C2    C     C_R   0.484191 0.129425 0.494214 -0.097978
C3    C     C_R   0.474892 0.063584 0.364850 -0.198744
C4    C     C_R   0.475563 0.934850 0.365575 -0.198103
C5    C     C_R   0.485568 0.871013 0.495669 -0.098183
C6    C     C_R   0.476868 0.937762 0.618509 0.138789
C7    C     C_3   0.555953 0.934274 0.767692 -0.481245
C8    C     C_3   0.554501 0.074228 0.766693 -0.438119
C9    C     C_R   0.606065 0.524994 0.101825 0.260443
C10   C     C_R   0.398721 0.462784 0.047378 -0.051493
C11   C     C_R   0.398734 0.462707 0.898779 -0.064516
C12   C     C_R   0.262615 0.499202 0.440941 0.793374
C13   C     C_R   0.606373 0.524030 0.954606 0.283349
C14   C     C_3   0.682409 0.638829 0.969311 -0.456378
C15   C     C_3   0.680804 0.640847 0.127774 -0.482984
C16   C     C_R   0.497927 0.737778 0.499640 0.807190
C17   C     C_R   0.737365 0.499223 0.559055 0.787613
C18   C     C_2   0.127231 0.496661 0.405517 0.196255
C19   C     C_2   0.067532 0.490275 0.512834 -0.178720
C20   C     C_2   0.872727 0.497887 0.594536 0.194865
C21   C     C_2   0.932529 0.488199 0.487531 -0.186132
C22   C     C_R   0.476114 0.064855 0.617617 0.126247
Cu1   Cu    Cu3+1 0.499990 0.499980 0.640670 0.968724
Cu2   Cu    Cu3+1 0.500010 0.500020 0.359330 0.971087
H1    H     H_    0.879790 0.478972 0.377464 0.196991
H2    H     H_    0.646953 0.116075 0.770488 0.212594
H3    H     H_    0.316078 0.434072 0.080476 0.190069
H4    H     H_    0.316060 0.433536 0.822134 0.162523
H5    H     H_    0.776044 0.622053 0.949679 0.266856
H6    H     H_    0.631398 0.716442 0.908620 0.197869
H7    H     H_    0.773799 0.626284 0.199007 0.231529
H8    H     H_    0.628241 0.719919 0.158580 0.205962
H9    H     H_    0.120387 0.487221 0.623281 0.200801
H10   H     H_    0.473590 0.110807 0.264888 0.170110
H11   H     H_    0.474496 0.886140 0.265892 0.167725
H12   H     H_    0.505670 0.894655 0.845341 0.202606
H13   H     H_    0.649408 0.895266 0.771550 0.206159
H14   H     H_    0.503140 0.114840 0.843142 0.202270
N1    N     N_R   0.500780 0.500930 0.148120 -0.200480
N2    N     N_R   0.500790 0.500890 0.852210 -0.199901
O1    O     O_R   0.500000 0.319640 0.618810 -0.578941
O2    O     O_R   0.500010 0.319680 0.381230 -0.584565
O3    O     O_R   0.320680 0.500000 0.575130 -0.617027
O4    O     O_R   0.320690 0.500040 0.337550 -0.540564
O5    O     O_R   0.499990 0.680320 0.618770 -0.576563
O6    O     O_R   0.500000 0.680360 0.381190 -0.581973
O7    O     O_R   0.679310 0.499960 0.662450 -0.539177
O8    O     O_R   0.679320 0.500000 0.424870 -0.608889
Cl1   Cl    Cl    0.951415 0.510767 0.777435 -0.594037
Cl2   Cl    Cl    0.048470 0.503056 0.222295 -0.589388

loop_
_geom_bond_atom_site_label_1
_geom_bond_atom_site_label_2
_ccdc_geom_bond_type
C16   O5    A    
C2    C22   A    
C8    C22   S    
Cu1   Cu2   S    
C15   H7    S    
C20   Cl1   S    
Cu1   O5    S    
C8    H2    S    
C7    H12   S    
Cu1   N2    S    
Cu1   O1    S    
C17   O8    A    
Cu2   O6    S    
Cu2   N1    S    
C2    C3    A    
C7    H13   S    
C4    H11   S    
C10   H3    S    
C15   H8    S    
C12   O4    A    
C13   C14   S    
C6    C7    S    
C8    H14   S    
C11   H4    S    
C14   H6    S    
C1    O1    A    
C19   C21   S    
C18   C19   D    
C12   O3    A    
C9    C15   S    
C5    C6    A    
Cu2   O4    S    
Cu1   O7    S    
C10   C11   A    
C14   H5    S    
C12   C18   S    
C11   N2    A    
C6    C22   A    
C17   O7    A    
C1    O2    A    
C9    N1    A    
C17   C20   S    
Cu2   O2    S    
C20   C21   D    
C18   Cl2   S    
C1    C2    S    
C19   H9    S    
C16   O6    A    
C7    C8    S    
C9    C13   A    
C14   C15   S    
C4    C5    A    
C5    C16   S    
C21   H1    S    
C3    H10   S    
Cu1   O3    S    
C3    C4    A    
C10   N1    A    
C13   N2    A    
Cu2   O8    S    
