data_mof_unit_26866.cif
_audit_creation_date              2012-10-26T20:47:14-0400
_audit_creation_method            fapswitch 2.2
_symmetry_space_group_name_H-M    P1
_symmetry_Int_Tables_number       1
_space_group_crystal_system       triclinic
_cell_length_a                    13.97493
_cell_length_b                    13.909651
_cell_length_c                    15.088247
_cell_angle_alpha                 91.539504
_cell_angle_beta                  90.935881
_cell_angle_gamma                 85.976349
_cell_volume                      2924.35769397

loop_
_atom_site_label
_atom_site_type_symbol
_atom_type_description
_atom_site_fract_x
_atom_site_fract_y
_atom_site_fract_z
_atom_type_partial_charge
C1    C     C_R   0.499601 0.499916 0.330229 0.537779
C2    C     C_R   0.793207 0.420785 0.466124 0.032294
C3    C     C_R   0.206801 0.455090 0.433454 0.156533
C4    C     C_R   0.790755 0.572567 0.540972 0.158108
C5    C     C_R   0.106423 0.453754 0.437812 -0.124642
C6    C     C_R   0.891683 0.567929 0.542073 -0.122554
C7    C     C_R   0.055598 0.488631 0.511868 -0.006805
C8    C     C_R   0.946437 0.487191 0.510337 -0.006446
C9    C     C_R   0.514749 0.317470 0.498710 0.545997
C10   C     C_R   0.485152 0.682651 0.500273 0.545983
C11   C     C_1   0.477072 0.785291 0.503128 -0.052286
C12   C     C_R   0.500567 0.499631 0.670077 0.543339
C13   C     C_1   0.522417 0.215151 0.492616 -0.045447
C14   C     C_2   0.464331 0.975451 0.512197 0.014665
C15   C     C_2   0.535091 0.025444 0.478947 0.016067
C16   C     C_1   0.528887 0.128934 0.486285 -0.058332
C17   C     C_1   0.470341 0.871759 0.506754 -0.065643
C18   C     C_R   0.569859 0.430984 0.096908 0.001727
C19   C     C_R   0.420212 0.462580 0.903053 -0.000218
C20   C     C_R   0.566643 0.434340 0.189611 -0.124709
C21   C     C_R   0.421751 0.465645 0.810486 -0.124339
C22   C     C_R   0.500253 0.497612 0.233974 0.001070
C23   C     C_R   0.440715 0.559081 0.094596 -0.137887
C24   C     C_R   0.501069 0.497485 0.766855 0.001569
C25   C     C_R   0.438488 0.561028 0.186488 -0.153616
C26   C     C_R   0.579485 0.528050 0.815982 -0.140445
C27   C     C_3   0.622948 0.978170 0.433507 -0.245273
C28   C     C_3   0.614834 0.989279 0.332860 -0.295544
C29   C     C_3   0.702328 0.940618 0.286510 -0.453724
C30   C     C_3   0.374887 0.024974 0.553346 -0.240084
C31   C     C_3   0.302488 0.059405 0.481420 -0.298635
C32   C     C_3   0.215216 0.115138 0.521882 -0.441375
C33   C     C_3   0.645259 0.362663 0.052546 -0.251698
C34   C     C_R   0.578606 0.527002 0.907920 -0.136054
C35   C     C_3   0.601691 0.276348 0.005998 -0.300994
C36   C     C_3   0.679647 0.204496 0.969384 -0.451439
C37   C     C_3   0.331716 0.427980 0.946261 -0.251156
C38   C     C_3   0.350983 0.327917 0.985693 -0.302174
C39   C     C_3   0.258710 0.288704 0.017707 -0.456845
C40   C     C_1   0.068119 0.558002 0.666071 0.152534
C41   C     C_1   0.942264 0.319410 0.446658 0.154816
C42   C     C_3   0.252000 0.397300 0.356605 -0.206526
C43   C     C_3   0.248732 0.453769 0.269931 -0.289755
C44   C     C_3   0.151582 0.456390 0.221775 -0.462961
C45   C     C_R   0.503913 0.493043 0.049116 0.038312
C46   C     C_3   0.743156 0.655594 0.594626 -0.204239
C47   C     C_3   0.732351 0.750252 0.543425 -0.294573
C48   C     C_3   0.824886 0.802398 0.539924 -0.457169
C49   C     C_R   0.500788 0.492751 0.951999 0.037447
C50   C     C_R   0.110377 0.529110 0.582019 -0.037667
C51   C     C_R   0.894727 0.410865 0.473185 -0.035059
C52   C     C_R   0.210423 0.536731 0.572921 0.028212
Cu1   Cu    Cu3+1 0.596430 0.500000 0.499990 0.921331
Cu2   Cu    Cu3+1 0.403570 0.500000 0.500010 0.916253
H1    H     H_    0.615438 0.386882 0.227727 0.108446
H2    H     H_    0.927765 0.627907 0.570451 0.122510
H3    H     H_    0.768614 0.973510 0.310094 0.157179
H4    H     H_    0.708768 0.862258 0.299900 0.154528
H5    H     H_    0.694685 0.949981 0.213832 0.142422
H6    H     H_    0.549410 0.956012 0.307331 0.164918
H7    H     H_    0.608794 0.067022 0.316720 0.162617
H8    H     H_    0.687698 0.012457 0.459318 0.142928
H9    H     H_    0.633711 0.900589 0.448022 0.143064
H10   H     H_    0.178487 0.068878 0.567540 0.156037
H11   H     H_    0.237292 0.180298 0.558852 0.162563
H12   H     H_    0.361141 0.441945 0.772076 0.124045
H13   H     H_    0.164032 0.138349 0.468300 0.173204
H14   H     H_    0.336504 0.107143 0.435100 0.166834
H15   H     H_    0.278462 0.996098 0.442728 0.165200
H16   H     H_    0.340707 0.974096 0.596660 0.141202
H17   H     H_    0.394181 0.086734 0.596770 0.145570
H18   H     H_    0.723799 0.239723 0.920818 0.159985
H19   H     H_    0.726640 0.175747 0.024025 0.150447
H20   H     H_    0.645936 0.143379 0.935360 0.142007
H21   H     H_    0.558142 0.239082 0.053703 0.153336
H22   H     H_    0.554973 0.301092 0.949868 0.175597
H23   H     H_    0.389862 0.613097 0.220517 0.110419
H24   H     H_    0.686670 0.401803 0.004848 0.144875
H25   H     H_    0.698474 0.334691 0.102877 0.135449
H26   H     H_    0.225058 0.337936 0.069120 0.155603
H27   H     H_    0.207350 0.280681 0.961462 0.156158
H28   H     H_    0.275311 0.216940 0.046971 0.140503
H29   H     H_    0.383261 0.276910 0.934706 0.158164
H30   H     H_    0.401266 0.331934 0.043051 0.170344
H31   H     H_    0.304604 0.480500 0.998075 0.142455
H32   H     H_    0.272505 0.424265 0.896355 0.143058
H33   H     H_    0.125468 0.382945 0.214767 0.151900
H34   H     H_    0.640678 0.554325 0.783414 0.120590
H35   H     H_    0.098094 0.505073 0.257470 0.153889
H36   H     H_    0.159078 0.485313 0.154539 0.138267
H37   H     H_    0.266822 0.529168 0.283602 0.187671
H38   H     H_    0.303257 0.418729 0.224475 0.155223
H39   H     H_    0.325736 0.369867 0.372738 0.182584
H40   H     H_    0.214708 0.329757 0.345660 0.106523
H41   H     H_    0.858386 0.808550 0.606907 0.158368
H42   H     H_    0.876221 0.764162 0.493522 0.152644
H43   H     H_    0.808450 0.876169 0.515014 0.138303
H44   H     H_    0.706857 0.736630 0.474411 0.186656
H45   H     H_    0.392959 0.609404 0.058554 0.110099
H46   H     H_    0.677513 0.799294 0.577346 0.147157
H47   H     H_    0.673615 0.637460 0.620124 0.180173
H48   H     H_    0.785505 0.667377 0.656601 0.109077
H49   H     H_    0.638815 0.553423 0.945051 0.109764
H50   H     H_    0.250182 0.569357 0.626527 0.134056
H51   H     H_    0.755621 0.362528 0.436099 0.132409
H52   H     H_    0.067870 0.422678 0.382758 0.122328
N1    N     N_R   0.258690 0.500000 0.500020 -0.228761
N2    N     N_R   0.741310 0.500000 0.499980 -0.228437
N3    N     N_1   0.034374 0.581094 0.733566 -0.325232
N4    N     N_1   0.980208 0.245973 0.425408 -0.340700
O1    O     O_R   0.581430 0.500010 0.371450 -0.494230
O2    O     O_R   0.418570 0.499990 0.628550 -0.513484
O3    O     O_R   0.418560 0.500010 0.371460 -0.521790
O4    O     O_R   0.581440 0.499990 0.628540 -0.510736
O5    O     O_R   0.592950 0.362150 0.500010 -0.501178
O6    O     O_R   0.407050 0.637850 0.499990 -0.485073
O7    O     O_R   0.430080 0.362150 0.500020 -0.509842
O8    O     O_R   0.569920 0.637850 0.499980 -0.517603

loop_
_geom_bond_atom_site_label_1
_geom_bond_atom_site_label_2
_ccdc_geom_bond_type
C23   H45   S    
C3    C42   S    
C23   C45   A    
C48   H41   S    
C38   H29   S    
C42   H39   S    
C9    O7    A    
C35   C36   S    
C30   H17   S    
C44   H36   S    
C7    C8    S    
C4    C46   S    
Cu1   Cu2   S    
C48   H43   S    
C46   H48   S    
C35   H21   S    
C47   H44   S    
Cu2   N1    S    
C25   H23   S    
C37   H31   S    
C28   C29   S    
C19   C21   A    
C24   C26   A    
C30   C31   S    
C21   H12   S    
C33   H24   S    
C15   C16   S    
Cu2   O3    S    
C9    C13   S    
C19   C37   S    
C26   C34   A    
C11   C17   T    
C29   H5    S    
C52   N1    A    
C22   C25   A    
Cu2   O6    S    
C50   C52   A    
C44   H33   S    
C39   H28   S    
C28   H7    S    
Cu1   O1    S    
C1    C22   S    
C14   C17   S    
C1    O3    A    
C14   C30   S    
C20   H1    S    
C30   H16   S    
C12   O4    A    
C5    H52   S    
C28   H6    S    
C31   H14   S    
C46   H47   S    
C35   H22   S    
C9    O5    A    
C37   H32   S    
C32   H10   S    
C4    C6    A    
C10   C11   S    
C5    C7    A    
Cu1   O8    S    
C33   H25   S    
C6    C8    A    
C3    N1    A    
C43   H37   S    
C47   H46   S    
C43   C44   S    
C37   C38   S    
C10   O8    A    
C27   H8    S    
C4    N2    A    
C19   C49   A    
C15   C27   S    
C47   C48   S    
C45   C49   S    
Cu2   O2    S    
C8    C51   A    
C39   H27   S    
C36   H20   S    
C32   H13   S    
C29   H3    S    
C41   N4    T    
C21   C24   A    
Cu2   O7    S    
C42   C43   S    
C20   C22   A    
C18   C45   A    
C12   O2    A    
C10   O6    A    
Cu1   O4    S    
C46   C47   S    
C52   H50   S    
C34   C49   A    
C48   H42   S    
C38   H30   S    
C42   H40   S    
C31   C32   S    
C34   H49   S    
C7    C50   A    
C6    H2    S    
C3    C5    A    
C40   N3    T    
C12   C24   S    
C2    H51   S    
C43   H38   S    
C39   H26   S    
C1    O1    A    
Cu1   N2    S    
C38   C39   S    
C40   C50   S    
C2    N2    A    
C33   C35   S    
C18   C20   A    
C23   C25   A    
C18   C33   S    
C2    C51   A    
Cu1   O5    S    
C31   H15   S    
C29   H4    S    
C26   H34   S    
C13   C16   T    
C27   C28   S    
C14   C15   D    
C27   H9    S    
C36   H19   S    
C41   C51   S    
C44   H35   S    
C36   H18   S    
C32   H11   S    
