data_mof_unit_12625.cif
_audit_creation_date              2012-10-26T19:42:19-0400
_audit_creation_method            fapswitch 2.2
_symmetry_space_group_name_H-M    P1
_symmetry_Int_Tables_number       1
_space_group_crystal_system       triclinic
_cell_length_a                    9.610216
_cell_length_b                    10.89255
_cell_length_c                    17.240161
_cell_angle_alpha                 92.227489
_cell_angle_beta                  86.100122
_cell_angle_gamma                 89.475914
_cell_volume                      1799.03064695

loop_
_atom_site_label
_atom_site_type_symbol
_atom_type_description
_atom_site_fract_x
_atom_site_fract_y
_atom_site_fract_z
_atom_type_partial_charge
C1    C     C_R   0.499122 0.737093 0.495099 0.546850
C2    C     C_R   0.526442 0.486235 0.264776 0.014614
C3    C     C_R   0.241431 0.886796 0.468053 -0.091692
C4    C     C_R   0.481901 0.501444 0.649783 0.600455
C5    C     C_R   0.115006 0.948789 0.485411 -0.130726
C6    C     C_R   0.113729 0.062595 0.524523 -0.114377
C7    C     C_R   0.238058 0.119886 0.538692 -0.046863
C8    C     C_R   0.367650 0.064173 0.513633 0.003197
C9    C     C_R   0.368492 0.938829 0.490039 0.013190
C10   C     C_R   0.495375 0.871191 0.491282 -0.023028
C11   C     C_R   0.619852 0.933304 0.500923 -0.145992
C12   C     C_R   0.394135 0.438079 0.783029 0.204232
C13   C     C_R   0.621736 0.060306 0.509037 0.073014
C14   C     C_R   0.496032 0.128101 0.512353 0.058618
C15   C     C_R   0.870361 0.336408 0.397313 -0.068026
C16   C     C_R   0.499214 0.262750 0.505768 0.582201
C17   C     C_R   0.949251 0.255448 0.346709 0.060410
C18   C     C_R   0.092923 0.256070 0.347227 -0.135479
C19   C     C_R   0.157860 0.336525 0.397161 -0.130648
C20   C     C_R   0.081686 0.419497 0.449539 0.143654
C21   C     C_R   0.932319 0.419473 0.449582 0.138792
C22   C     C_R   0.919530 0.576716 0.547890 0.004488
C23   C     C_R   0.409392 0.461689 0.145321 -0.128145
C24   C     C_R   0.067350 0.576685 0.547862 0.012379
C25   C     C_R   0.518070 0.496924 0.349915 0.523876
C26   C     C_R   0.473936 0.516114 0.734345 0.007697
C27   C     C_R   0.552933 0.610203 0.766934 -0.172436
C28   C     C_R   0.555573 0.626054 0.847080 -0.099187
C29   C     C_R   0.480989 0.546634 0.895421 0.072076
C30   C     C_R   0.398185 0.454841 0.863625 -0.078629
C31   C     C_R   0.403348 0.473137 0.225855 -0.135621
C32   C     C_R   0.656025 0.485365 0.221726 -0.135337
C33   C     C_R   0.661703 0.474536 0.140712 -0.122014
C34   C     C_R   0.538094 0.464602 0.102613 0.037385
C35   C     C_2   0.493177 0.556884 0.979562 0.123758
C36   C     C_2   0.541218 0.460331 0.017530 0.080946
Cu1   Cu    Cu3+1 0.359340 0.500010 0.500010 0.956401
Cu2   Cu    Cu3+1 0.640660 0.499990 0.499990 0.955131
H1    H     H_    0.613752 0.671052 0.730021 0.128112
H2    H     H_    0.302074 0.471753 0.257439 0.129538
H3    H     H_    0.155438 0.193663 0.308367 0.138189
H4    H     H_    0.268174 0.329344 0.391821 0.183139
H5    H     H_    0.117061 0.639673 0.587091 0.124047
H6    H     H_    0.752453 0.493795 0.250463 0.128731
H7    H     H_    0.339598 0.394872 0.902089 0.158087
H8    H     H_    0.313557 0.452360 0.116035 0.110060
H9    H     H_    0.619096 0.697657 0.871329 0.145010
H10   H     H_    0.820168 0.092305 0.470997 0.231678
H11   H     H_    0.790545 0.086554 0.569274 0.235759
H12   H     H_    0.761707 0.476170 0.107780 0.111828
H13   H     H_    0.775806 0.176941 0.303187 0.222435
H14   H     H_    0.910137 0.198058 0.237950 0.232964
H15   H     H_    0.696223 0.336617 0.989084 0.237542
H16   H     H_    0.534431 0.277196 0.995197 0.241437
H17   H     H_    0.114355 0.425101 0.734658 0.334178
H18   H     H_    0.542226 0.703150 0.048926 0.236941
H19   H     H_    0.372318 0.660942 0.058942 0.233849
H20   H     H_    0.717696 0.883483 0.502662 0.133411
H21   H     H_    0.237510 0.800138 0.435794 0.148924
H22   H     H_    0.018067 0.907003 0.470513 0.109493
H23   H     H_    0.017465 0.109156 0.542889 0.133179
H24   H     H_    0.229943 0.206126 0.571628 0.228808
H25   H     H_    0.859047 0.639702 0.587175 0.112727
H26   H     H_    0.761281 0.330483 0.393380 0.184467
N1    N     N_R   0.852190 0.498790 0.499250 -0.242892
N2    N     N_R   0.148060 0.498710 0.499220 -0.238364
N3    N     N_3   0.751941 0.119067 0.518598 -0.593824
N4    N     N_3   0.884466 0.171002 0.294621 -0.630040
N5    N     N_3   0.593307 0.351302 0.975299 -0.617254
N6    N     N_3   0.457189 0.672872 0.018907 -0.632966
O1    O     O_R   0.381190 0.680360 0.500010 -0.519072
O2    O     O_2   0.241355 0.235164 0.809854 -0.276768
O3    O     O_3   0.165548 0.366631 0.697337 -0.508921
O4    O     O_R   0.618760 0.680340 0.500000 -0.514316
O5    O     O_R   0.367440 0.500030 0.613600 -0.448551
O6    O     O_R   0.605010 0.500010 0.613590 -0.498231
O7    O     O_R   0.381240 0.319660 0.500000 -0.541489
O8    O     O_R   0.618810 0.319640 0.499990 -0.475918
O9    O     O_R   0.394990 0.499990 0.386410 -0.534928
O10   O     O_R   0.632560 0.499970 0.386400 -0.533961
O11   O     O_2   0.393743 0.236166 0.690406 -0.272392
S1    S     S_3+6 0.298575 0.313555 0.745542 0.010188

loop_
_geom_bond_atom_site_label_1
_geom_bond_atom_site_label_2
_ccdc_geom_bond_type
C28   H9    S    
C25   O10   A    
C30   H7    S    
C35   C36   D    
H15   N5    S    
O11   S1    D    
C7    C8    A    
C22   N1    A    
Cu2   O6    S    
Cu1   O9    S    
C26   C27   A    
C1    O1    A    
C1    O4    A    
C6    H23   S    
C20   N2    A    
C28   C29   A    
C18   C19   A    
C13   N3    S    
C5    C6    A    
C31   H2    S    
C2    C32   A    
C16   O7    A    
C4    O5    A    
C22   H25   S    
C19   C20   A    
C35   N6    S    
C27   H1    S    
C8    C9    A    
C15   H26   S    
C14   C16   S    
H19   N6    S    
C29   C30   A    
C9    C10   A    
C16   O8    A    
H14   N4    S    
C19   H4    S    
C24   N2    A    
C21   N1    A    
Cu1   O5    S    
C23   H8    S    
C13   C14   A    
C33   C34   A    
C18   H3    S    
Cu2   O8    S    
C33   H12   S    
Cu1   O7    S    
C12   C26   A    
C2    C31   A    
C23   C31   A    
C7    H24   S    
Cu1   Cu2   S    
C3    C9    A    
Cu2   N1    S    
C23   C34   A    
Cu1   N2    S    
C17   C18   A    
C32   H6    S    
C12   S1    S    
H18   N6    S    
Cu1   O1    S    
C22   C24   A    
C11   H20   S    
O3    S1    S    
C36   N5    S    
Cu2   O4    S    
C15   C17   A    
C17   N4    S    
C8    C14   A    
H11   N3    S    
C5    H22   S    
C12   C30   A    
C25   O9    A    
C1    C10   S    
C3    C5    A    
C4    C26   S    
C6    C7    A    
C29   C35   S    
C32   C33   A    
C11   C13   A    
H16   N5    S    
Cu2   O10   S    
C2    C25   S    
C34   C36   S    
H13   N4    S    
H10   N3    S    
C4    O6    A    
C10   C11   A    
H17   O3    S    
C15   C21   A    
C20   C21   A    
C27   C28   A    
C24   H5    S    
O2    S1    D    
C3    H21   S    
