data_mof_unit_51174.cif
_audit_creation_date              2013-03-05T16:32:42-0500
_audit_creation_method            fapswitch 2.2
_symmetry_space_group_name_H-M    P1
_symmetry_Int_Tables_number       1
_space_group_crystal_system       triclinic
_cell_length_a                    9.537239
_cell_length_b                    10.822006
_cell_length_c                    17.258002
_cell_angle_alpha                 90.141701
_cell_angle_beta                  86.993008
_cell_angle_gamma                 89.937903
_cell_volume                      1778.77463591

loop_
_atom_site_label
_atom_site_type_symbol
_atom_site_description
_atom_site_fract_x
_atom_site_fract_y
_atom_site_fract_z
_atom_type_partial_charge
O1    O     O_R   0.381190 0.680360 0.500000 -0.583885
O2    O     O_R   0.618770 0.680320 0.499990 -0.590954
C1    C     C_R   0.500125 0.737724 0.498597 0.802515
O3    O     O_R   0.367430 0.500040 0.613600 -0.583523
O4    O     O_R   0.605020 0.500000 0.613590 -0.583153
C2    C     C_R   0.483165 0.496324 0.650087 0.818524
Cu1   Cu    Cu3+1 0.359330 0.500020 0.500000 0.945331
Cu2   Cu    Cu3+1 0.640670 0.499980 0.500000 0.945815
O5    O     O_R   0.381230 0.319680 0.500010 -0.579658
O6    O     O_R   0.618810 0.319640 0.500000 -0.584698
O7    O     O_R   0.394980 0.500000 0.386410 -0.587214
O8    O     O_R   0.632570 0.499960 0.386400 -0.586260
C3    C     C_R   0.500268 0.262302 0.498506 0.804171
C4    C     C_R   0.517013 0.502779 0.349882 0.799038
C5    C     C_R   0.479165 0.480247 0.734457 -0.106642
C6    C     C_R   0.605559 0.461369 0.771102 -0.255582
C7    C     C_R   0.605996 0.439831 0.850732 0.371673
C8    C     C_R   0.476776 0.441604 0.894619 0.035944
C9    C     C_R   0.350364 0.456648 0.857860 -0.194107
C10   C     C_R   0.351341 0.475952 0.778149 -0.182076
C11   C     C_R   0.400637 0.528877 0.145266 0.035530
C12   C     C_R   0.397693 0.518957 0.225937 -0.233101
C13   C     C_R   0.652131 0.520177 0.223073 -0.198267
C14   C     C_R   0.656261 0.529337 0.142733 -0.148403
C15   C     C_R   0.532025 0.529435 0.103260 0.112907
C16   C     C_2   0.470675 0.440768 0.979317 -0.113892
C17   C     C_2   0.543949 0.523583 0.018348 -0.192177
C18   C     C_R   0.522845 0.512481 0.265132 -0.049006
H1    H     H_    0.704628 0.460147 0.737425 0.197775
H2    H     H_    0.297084 0.518458 0.258004 0.149831
H3    H     H_    0.750064 0.518414 0.252001 0.148662
H4    H     H_    0.618552 0.584396 0.987717 0.156098
H5    H     H_    0.251055 0.457692 0.891422 0.184030
H6    H     H_    0.252537 0.488571 0.750960 0.177437
H7    H     H_    0.396856 0.378900 0.009483 0.160198
H8    H     H_    0.756775 0.532582 0.111021 0.141443
C19   C     C_R   0.375733 0.936615 0.487797 0.134285
C20   C     C_R   0.501287 0.870795 0.490735 -0.095928
C21   C     C_R   0.629056 0.935406 0.482337 -0.214331
H9    H     H_    0.728792 0.887197 0.479718 0.162565
C22   C     C_R   0.629149 0.064214 0.482306 -0.213756
H10   H     H_    0.728919 0.112117 0.479738 0.159692
C23   C     C_R   0.501475 0.129227 0.490643 -0.095517
C24   C     C_R   0.375843 0.063775 0.487777 0.115303
C25   C     C_3   0.245182 0.070886 0.539292 -0.452754
C26   C     C_3   0.244959 0.930553 0.539254 -0.478411
H11   H     H_    0.263602 0.111865 0.597051 0.205908
H12   H     H_    0.155773 0.111338 0.509161 0.191796
H13   H     H_    0.263050 0.889831 0.597009 0.197898
H14   H     H_    0.155529 0.890399 0.508950 0.193579
C27   C     C_R   0.929278 0.401099 0.471203 0.262425
N1    N     N_R   0.852130 0.499070 0.499500 -0.186807
C28   C     C_R   0.922026 0.591022 0.536047 -0.076543
H15   H     H_    0.863591 0.665854 0.564077 0.141846
C29   C     C_R   0.070943 0.590965 0.536108 -0.074795
H16   H     H_    0.123858 0.665531 0.564355 0.139639
N2    N     N_R   0.148040 0.499110 0.499500 -0.186067
C30   C     C_R   0.076608 0.401122 0.471227 0.262386
C31   C     C_3   0.090483 0.350750 0.390746 -0.511015
C32   C     C_3   0.931272 0.350791 0.390643 -0.506278
H17   H     H_    0.139856 0.417138 0.348727 0.211583
H18   H     H_    0.136761 0.256423 0.388831 0.193601
H19   H     H_    0.889997 0.417174 0.348483 0.214673
H20   H     H_    0.885706 0.256440 0.388626 0.190476
C33   C     C_R   0.266052 0.540929 0.106596 0.091511
C34   C     C_R   0.161400 0.450431 0.117557 -0.190298
C35   C     C_R   0.038503 0.457483 0.077084 -0.123372
C36   C     C_R   0.018188 0.555761 0.026447 -0.083885
C37   C     C_R   0.120458 0.647421 0.016414 -0.151470
C38   C     C_R   0.243992 0.640273 0.056302 -0.131809
H21   H     H_    0.176607 0.372916 0.155819 0.135478
H22   H     H_    0.959295 0.386374 0.084708 0.161758
H23   H     H_    0.923039 0.561150 0.995135 0.176584
H24   H     H_    0.104438 0.723579 0.977312 0.144302
H25   H     H_    0.323039 0.711341 0.047442 0.133697
N3    N     N_R   0.736963 0.413742 0.885435 0.098319
O9    O     O_R   0.741637 0.336274 0.942832 -0.373834
O10   O     O_R   0.854436 0.455844 0.853997 -0.406763

loop_
_geom_bond_atom_site_label_1
_geom_bond_atom_site_label_2
_geom_bond_distance
_ccdc_geom_bond_type
C29   H16   1.080860 S    
C22   H10   1.082991 S    
C9    C10   1.391487 A    
C8    C16   1.459868 S    
Cu1   Cu2   2.683206 S    
C21   C22   1.393973 A    
C28   H15   1.081311 S    
C24   C25   1.494132 S    
Cu1   O7    1.971951 S    
C26   H13   1.112427 S    
C16   C17   1.339061 D    
C14   H8    1.079285 S    
C32   H19   1.110169 S    
N3    O10   1.302202 A    
C8    C9    1.401007 A    
O4    C2    1.293200 A    
O7    C4    1.294631 A    
C33   C38   1.405981 A    
C35   H22   1.082352 S    
O5    C3    1.292455 A    
C2    C5    1.465359 S    
C1    C20   1.446804 S    
C36   C37   1.396604 A    
C7    N3    1.441217 S    
C13   C14   1.388784 A    
Cu2   N1    2.016324 S    
C10   H6    1.083142 S    
C25   H11   1.112431 S    
C34   C35   1.397672 A    
C31   C32   1.518533 S    
C12   C18   1.404251 A    
C11   C12   1.395419 A    
C22   C23   1.406293 A    
O3    Cu1   1.966073 S    
C28   C29   1.420308 A    
C5    C10   1.400269 A    
C31   H17   1.109611 S    
C35   C36   1.397975 A    
C14   C15   1.397376 A    
O3    C2    1.299783 A    
C9    H5    1.084006 S    
C21   H9    1.083199 S    
C6    C7    1.394682 A    
C36   H23   1.081837 S    
C25   C26   1.518686 S    
C27   N1    1.364557 A    
O1    C1    1.292809 A    
C13   H3    1.082091 S    
C23   C24   1.395599 A    
C19   C20   1.395894 A    
C34   H21   1.083182 S    
Cu2   O8    1.966077 S    
C7    C8    1.412363 A    
C37   H24   1.082266 S    
C27   C30   1.405136 A    
C13   C18   1.400286 A    
N3    O9    1.301803 A    
O8    C4    1.298316 A    
C29   N2    1.369132 A    
C3    C23   1.446161 S    
N1    C28   1.369260 A    
C25   H12   1.111755 S    
Cu1   O5    1.962563 S    
C11   C15   1.414397 A    
C31   H18   1.111429 S    
C12   H2    1.082277 S    
C11   C33   1.483197 S    
C17   H4    1.087230 S    
O1    Cu1   1.962969 S    
O2    Cu2   1.962561 S    
O6    C3    1.291650 A    
O4    Cu2   1.971951 S    
C15   C17   1.465070 S    
C26   H14   1.111884 S    
C32   H20   1.111315 S    
C19   C24   1.376128 A    
O2    C1    1.291625 A    
C30   C31   1.490187 S    
N2    C30   1.364037 A    
C20   C21   1.406638 A    
C37   C38   1.397537 A    
C16   H7    1.085934 S    
C6    H1    1.083061 S    
Cu2   O6    1.962969 S    
C33   C34   1.405120 A    
C38   H25   1.083041 S    
C27   C32   1.491035 S    
C4    C18   1.464787 S    
C19   C26   1.494237 S    
Cu1   N2    2.015628 S    
C5    C6    1.405304 A    
