data_mof_unit_33139.cif
_audit_creation_date              2012-10-26T19:17:54-0400
_audit_creation_method            fapswitch 2.2
_symmetry_space_group_name_H-M    P1
_symmetry_Int_Tables_number       1
_space_group_crystal_system       triclinic
_cell_length_a                    10.854153
_cell_length_b                    12.278772
_cell_length_c                    13.428685
_cell_angle_alpha                 116.475709
_cell_angle_beta                  79.115954
_cell_angle_gamma                 100.471442
_cell_volume                      1563.47899744

loop_
_atom_site_label
_atom_site_type_symbol
_atom_type_description
_atom_site_fract_x
_atom_site_fract_y
_atom_site_fract_z
_atom_type_partial_charge
C1    C     C_R   0.504670 0.854040 0.288463 0.534372
C2    C     C_R   0.217921 0.291615 0.327162 -0.123765
C3    C     C_R   0.265226 0.212280 0.219644 -0.132052
C4    C     C_R   0.736694 0.000630 0.503420 0.541989
C5    C     C_R   0.271767 0.089859 0.193432 -0.119544
C6    C     C_R   0.222763 0.044107 0.272822 -0.077586
C7    C     C_R   0.166760 0.120963 0.378923 0.044181
C8    C     C_R   0.497763 0.263949 0.019228 -0.146073
C9    C     C_R   0.486764 0.227499 0.829655 0.006079
C10   C     C_R   0.487759 0.819185 0.095201 -0.142528
C11   C     C_R   0.476169 0.743876 0.983261 -0.147781
C12   C     C_R   0.680762 0.733623 0.725330 -0.097899
C13   C     C_R   0.472104 0.617582 0.942689 -0.117636
C14   C     C_R   0.471322 0.562482 0.015701 0.036758
C15   C     C_R   0.464858 0.638530 0.132622 0.028549
C16   C     C_R   0.487051 0.145046 0.711590 0.545765
C17   C     C_R   0.476409 0.434392 0.977209 0.032272
C18   C     C_R   0.480003 0.386598 0.055268 0.048087
C19   C     C_R   0.456716 0.459397 0.168763 -0.158120
C20   C     C_R   0.438011 0.579991 0.205707 -0.131216
C21   C     C_R   0.478689 0.351860 0.864074 -0.127648
C22   C     C_R   0.499136 0.184160 0.906928 -0.144919
C23   C     C_R   0.043106 0.941442 0.554281 -0.149761
C24   C     C_R   0.484951 0.769017 0.171170 -0.000277
C25   C     C_R   0.699688 0.346563 0.332384 -0.154079
C26   C     C_R   0.331224 0.760590 0.644257 0.042875
C27   C     C_R   0.297546 0.664781 0.676161 -0.153756
C28   C     C_R   0.263062 0.000487 0.498638 0.544060
C29   C     C_R   0.361504 0.560927 0.622001 -0.133577
C30   C     C_R   0.460323 0.551678 0.534643 -0.010888
C31   C     C_R   0.492951 0.653132 0.506411 0.178182
C32   C     C_R   0.529250 0.447032 0.475521 -0.017405
C33   C     C_R   0.629967 0.446916 0.391066 0.025007
C34   C     C_R   0.129375 0.002757 0.499537 -0.002739
C35   C     C_R   0.661365 0.547322 0.366161 -0.180521
C36   C     C_R   0.594656 0.648057 0.422736 -0.097386
C37   C     C_R   0.503385 0.341738 0.496350 0.046417
C38   C     C_R   0.670003 0.246379 0.357680 0.044587
C39   C     C_R   0.670379 0.858345 0.764775 -0.097405
C40   C     C_R   0.745826 0.925924 0.710623 -0.046921
C41   C     C_R   0.830515 0.868100 0.615169 0.047059
C42   C     C_R   0.841396 0.743036 0.577097 -0.099585
C43   C     C_R   0.766765 0.676264 0.632144 -0.102210
C44   C     C_1   0.112178 0.329122 0.515616 0.173266
C45   C     C_R   0.085265 0.064190 0.448518 -0.026398
C46   C     C_R   0.956340 0.062852 0.453767 -0.131782
C47   C     C_R   0.869924 0.000727 0.507224 -0.002320
C48   C     C_R   0.913786 0.938469 0.558223 -0.034405
C49   C     C_R   0.167997 0.246723 0.407279 0.016010
Cu1   Cu    Cu3+1 0.529370 0.098270 0.475420 0.941879
Cu2   Cu    Cu3+1 0.470630 0.901730 0.524580 0.912363
H1    H     H_    0.622480 0.680919 0.766525 0.111096
H2    H     H_    0.469120 0.566178 0.853870 0.093112
H3    H     H_    0.473480 0.784107 0.926768 0.106587
H4    H     H_    0.604436 0.902888 0.837556 0.086897
H5    H     H_    0.396556 0.621422 0.291377 0.164614
H6    H     H_    0.723328 0.168362 0.313194 0.123126
H7    H     H_    0.738679 0.548338 0.302168 0.115321
H8    H     H_    0.776797 0.345893 0.267797 0.095677
H9    H     H_    0.427946 0.332954 0.557999 0.120526
H10   H     H_    0.281356 0.841050 0.686675 0.128333
H11   H     H_    0.332251 0.490004 0.650745 0.113965
H12   H     H_    0.293537 0.245204 0.155827 0.122177
H13   H     H_    0.221844 0.671065 0.743123 0.120772
H14   H     H_    0.627049 0.719918 0.397548 0.192321
H15   H     H_    0.738015 0.022765 0.742519 0.106449
H16   H     H_    0.907195 0.697177 0.504362 0.108196
H17   H     H_    0.774882 0.579793 0.602010 0.130449
H18   H     H_    0.076299 0.895495 0.595283 0.134085
H19   H     H_    0.923613 0.107354 0.411180 0.136846
H20   H     H_    0.215685 0.386909 0.346415 0.111709
H21   H     H_    0.309867 0.029272 0.110079 0.101789
H22   H     H_    0.221351 0.947280 0.249333 0.104737
H23   H     H_    0.509123 0.088788 0.880694 0.117181
H24   H     H_    0.446599 0.421627 0.229380 0.121561
H25   H     H_    0.506539 0.228890 0.078428 0.109114
H26   H     H_    0.471264 0.381151 0.801166 0.116089
H27   H     H_    0.497445 0.917378 0.122542 0.129007
N1    N     N_R   0.573890 0.246290 0.438210 -0.234657
N2    N     N_R   0.426890 0.754320 0.561170 -0.240106
N3    N     N_1   0.067089 0.394961 0.602379 -0.318526
O1    O     O_R   0.536940 0.972510 0.318130 -0.504919
O2    O     O_R   0.487330 0.806530 0.359650 -0.544174
O3    O     O_R   0.705160 0.082990 0.479250 -0.504736
O4    O     O_R   0.655550 0.917010 0.520760 -0.514955
O5    O     O_R   0.512670 0.193470 0.640350 -0.511715
O6    O     O_R   0.463060 0.027490 0.681870 -0.513528
O7    O     O_R   0.344450 0.082990 0.479240 -0.497055
O8    O     O_R   0.294840 0.917010 0.520750 -0.518942

loop_
_geom_bond_atom_site_label_1
_geom_bond_atom_site_label_2
_ccdc_geom_bond_type
C44   C49   S    
C27   C29   A    
C41   C42   A    
C23   H18   S    
C19   C20   A    
C20   H5    S    
Cu1   N1    S    
Cu2   O4    S    
C10   H27   S    
Cu1   O3    S    
C31   N2    A    
C45   C46   A    
C37   N1    A    
C26   C27   A    
C35   H7    S    
C7    C45   S    
C26   H10   S    
C5    H21   S    
C30   C31   A    
C9    C22   A    
C38   N1    A    
C8    H25   S    
C18   C19   A    
Cu2   N2    S    
C29   H11   S    
C12   C43   A    
C39   H4    S    
C35   C36   A    
C43   H17   S    
C28   O7    A    
C16   O6    A    
C8    C22   A    
C28   O8    A    
Cu1   O7    S    
C28   C34   S    
C40   H15   S    
C13   C14   A    
C16   O5    A    
C14   C17   A    
C12   H1    S    
Cu1   Cu2   S    
C13   H2    S    
C15   C20   A    
C7    C49   A    
C44   N3    T    
C10   C11   A    
Cu2   O6    S    
C39   C40   A    
C36   H14   S    
C4    O4    A    
C10   C24   A    
C1    O1    A    
C8    C18   A    
C29   C30   A    
C2    C49   A    
C25   C38   A    
C38   H6    S    
C47   C48   A    
C4    O3    A    
C23   C34   A    
C17   C18   A    
C34   C45   A    
C32   C37   A    
C11   H3    S    
C40   C41   A    
C42   H16   S    
C42   C43   A    
C22   H23   S    
C2    H20   S    
Cu2   O2    S    
Cu1   O1    S    
C6    H22   S    
C46   C47   A    
C15   C24   A    
C23   C48   A    
C14   C15   A    
C9    C16   S    
C3    C5    A    
C26   N2    A    
C6    C7    A    
C3    H12   S    
C1    O2    A    
C32   C33   A    
C12   C39   A    
C19   H24   S    
C2    C3    A    
Cu2   O8    S    
C30   C32   A    
C11   C13   A    
C9    C21   A    
C5    C6    A    
C33   C35   A    
C41   C48   S    
C17   C21   A    
C46   H19   S    
C37   H9    S    
C27   H13   S    
Cu1   O5    S    
C1    C24   S    
C21   H26   S    
C31   C36   A    
C25   H8    S    
C25   C33   A    
C4    C47   S    
