data_mof_unit_9821.cif
_audit_creation_date              2012-12-10T20:21:46-0500
_audit_creation_method            fapswitch 2.2
_symmetry_space_group_name_H-M    P1
_symmetry_Int_Tables_number       1
_space_group_crystal_system       triclinic
_cell_length_a                    19.066306
_cell_length_b                    18.61541
_cell_length_c                    8.869623
_cell_angle_alpha                 89.96477
_cell_angle_beta                  91.727586
_cell_angle_gamma                 90.461654
_cell_volume                      3146.53631944

loop_
_atom_site_label
_atom_site_type_symbol
_atom_type_description
_atom_site_fract_x
_atom_site_fract_y
_atom_site_fract_z
_atom_type_partial_charge
C1    C     C_R   0.365848 0.499761 0.497451 0.964402
C2    C     C_R   0.542290 0.196863 0.604480 0.417548
C3    C     C_R   0.500442 0.842560 0.500374 -0.225402
C4    C     C_R   0.500793 0.157668 0.499684 -0.211291
C5    C     C_R   0.439528 0.961910 0.532040 -0.155447
C6    C     C_R   0.561866 0.038344 0.468256 -0.152536
C7    C     C_R   0.561859 0.962746 0.469025 -0.154783
C8    C     C_R   0.439707 0.037492 0.532433 -0.153610
C9    C     C_R   0.500815 0.076804 0.500147 0.261999
C10   C     C_R   0.500633 0.923447 0.500564 0.198515
C11   C     C_R   0.499791 0.500006 0.218761 0.903732
C12   C     C_R   0.634374 0.500415 0.495111 0.946190
C13   C     C_R   0.500163 0.499985 0.781247 0.953788
C14   C     C_1   0.499855 0.500003 0.065488 -0.219706
C15   C     C_1   0.499993 0.499966 0.934537 -0.207814
C16   C     C_R   0.754897 0.456717 0.547455 -0.036457
C17   C     C_R   0.264822 0.499054 0.318547 -0.068956
C18   C     C_R   0.245887 0.501060 0.590398 -0.049779
C19   C     C_R   0.734137 0.545240 0.346751 -0.059795
C20   C     C_R   0.826647 0.458077 0.518006 0.472786
C21   C     C_R   0.192653 0.502100 0.289909 0.529687
C22   C     C_R   0.173299 0.499945 0.561873 0.467349
C23   C     C_R   0.549252 0.727812 0.585373 0.073887
C24   C     C_R   0.804866 0.543400 0.312409 0.526932
C25   C     C_R   0.851070 0.501249 0.399850 -0.128655
C26   C     C_R   0.147171 0.501958 0.411350 -0.124684
C27   C     C_R   0.708979 0.501670 0.464844 -0.229286
C28   C     C_R   0.291032 0.499377 0.468942 -0.219722
C29   C     C_R   0.962824 0.568374 0.420778 0.027282
C30   C     C_R   0.035088 0.445817 0.324446 0.029791
C31   C     C_R   0.036296 0.568538 0.423471 0.035512
C32   C     C_R   0.961480 0.445886 0.320389 0.038412
C33   C     C_R   0.071684 0.506135 0.381817 0.149072
C34   C     C_R   0.462213 0.272063 0.391519 0.078058
C35   C     C_R   0.926174 0.505992 0.374701 0.150677
C36   C     C_3   0.902709 0.452474 0.720816 -0.353781
C37   C     C_3   0.162626 0.572561 0.089677 -0.294127
C38   C     C_3   0.105948 0.433618 0.717977 -0.319334
C39   C     C_3   0.827831 0.548578 0.063463 -0.311421
C40   C     C_3   0.567571 0.849372 0.826169 -0.273312
C41   C     C_3   0.348141 0.164773 0.311058 -0.274745
C42   C     C_3   0.433855 0.849372 0.174410 -0.282380
C43   C     C_3   0.653217 0.169027 0.688745 -0.271253
C44   C     C_R   0.451101 0.727431 0.414424 0.085269
C45   C     C_R   0.537832 0.272892 0.608857 0.075818
C46   C     C_R   0.548098 0.803735 0.591899 0.413436
C47   C     C_R   0.458842 0.195890 0.395133 0.418517
C48   C     C_R   0.452638 0.803378 0.408463 0.411927
H1    H     H_    0.391722 0.933338 0.558251 0.159287
H2    H     H_    0.254420 0.550889 0.792979 0.220144
H3    H     H_    0.647184 0.558485 0.211433 0.182005
H4    H     H_    0.669133 0.630875 0.322077 0.217799
H5    H     H_    0.926206 0.413754 0.802520 0.185404
H6    H     H_    0.863902 0.484793 0.782082 0.139819
H7    H     H_    0.945657 0.487831 0.682036 0.191413
H8    H     H_    0.215602 0.597937 0.086606 0.168017
H9    H     H_    0.127308 0.605599 0.158648 0.156609
H10   H     H_    0.140455 0.571858 0.972636 0.220408
H11   H     H_    0.075534 0.436303 0.822481 0.200105
H12   H     H_    0.609484 0.066787 0.440737 0.132004
H13   H     H_    0.150886 0.396958 0.740504 0.160782
H14   H     H_    0.070702 0.410875 0.627861 0.171698
H15   H     H_    0.773358 0.531668 0.030567 0.166359
H16   H     H_    0.862751 0.501018 0.070183 0.153138
H17   H     H_    0.847171 0.584089 0.972984 0.189367
H18   H     H_    0.939850 0.638990 0.586187 0.171495
H19   H     H_    0.937856 0.674050 0.409041 0.208873
H20   H     H_    0.058715 0.340106 0.345675 0.168667
H21   H     H_    0.059763 0.372290 0.166364 0.197715
H22   H     H_    0.062115 0.673991 0.403761 0.173114
H23   H     H_    0.609583 0.934818 0.442873 0.161555
H24   H     H_    0.062719 0.642610 0.583792 0.207353
H25   H     H_    0.934991 0.374653 0.155042 0.163193
H26   H     H_    0.935554 0.340111 0.332457 0.210053
H27   H     H_    0.584535 0.652536 0.736236 0.223713
H28   H     H_    0.640508 0.672810 0.593457 0.211912
H29   H     H_    0.464131 0.325967 0.193681 0.222220
H30   H     H_    0.396568 0.348817 0.308456 0.216920
H31   H     H_    0.416597 0.652348 0.261603 0.215381
H32   H     H_    0.359628 0.671192 0.403022 0.217175
H33   H     H_    0.532102 0.324870 0.807904 0.220012
H34   H     H_    0.392147 0.065273 0.559811 0.130716
H35   H     H_    0.600241 0.352100 0.698414 0.238561
H36   H     H_    0.519243 0.882511 0.818524 0.151471
H37   H     H_    0.556157 0.796889 0.880868 0.155006
H38   H     H_    0.606315 0.878438 0.899837 0.193631
H39   H     H_    0.335513 0.164071 0.432971 0.126097
H40   H     H_    0.327178 0.214296 0.257283 0.185089
H41   H     H_    0.320247 0.118504 0.257237 0.187010
H42   H     H_    0.482281 0.883129 0.182806 0.155075
H43   H     H_    0.445225 0.797172 0.119405 0.154460
H44   H     H_    0.395361 0.878103 0.100597 0.191837
H45   H     H_    0.752586 0.425336 0.766377 0.188436
H46   H     H_    0.665993 0.166420 0.567073 0.128506
H47   H     H_    0.673030 0.220347 0.738057 0.180613
H48   H     H_    0.682011 0.124927 0.746818 0.188884
H49   H     H_    0.742395 0.357956 0.639008 0.216372
H50   H     H_    0.344014 0.542013 0.199667 0.172026
H51   H     H_    0.341082 0.450954 0.201365 0.182902
H52   H     H_    0.257049 0.460102 0.801685 0.221784
N1    N     N_R   0.500000 0.689440 0.500000 -0.164687
N2    N     N_3   0.921880 0.384697 0.266591 -0.455647
N3    N     N_3   0.604573 0.692930 0.668612 -0.408724
N4    N     N_3   0.426911 0.307239 0.268329 -0.430837
N5    N     N_3   0.396142 0.692093 0.329318 -0.419039
N6    N     N_3   0.570823 0.308562 0.734953 -0.429844
N7    N     N_R   0.500000 0.310560 0.500000 -0.159695
N8    N     N_3   0.728599 0.410863 0.663263 -0.454054
N9    N     N_3   0.310663 0.497245 0.193265 -0.417332
N10   N     N_3   0.274207 0.504989 0.741982 -0.439632
N11   N     N_3   0.688666 0.589764 0.255588 -0.403966
N12   N     N_3   0.924849 0.629215 0.473726 -0.438479
N13   N     N_3   0.073244 0.383718 0.278937 -0.442364
N14   N     N_3   0.075792 0.630595 0.473102 -0.456186
O1    O     O_R   0.398180 0.560840 0.499960 -0.628750
O2    O     O_3   0.166265 0.501244 0.142795 -0.583360
O3    O     O_3   0.128330 0.503707 0.681254 -0.613104
O4    O     O_3   0.829825 0.587392 0.199900 -0.570652
O5    O     O_3   0.596703 0.839819 0.683319 -0.579095
O6    O     O_3   0.420606 0.158048 0.285652 -0.573000
O7    O     O_3   0.404373 0.839093 0.316868 -0.581546
O8    O     O_3   0.580861 0.159944 0.713941 -0.573182
O9    O     O_R   0.601820 0.439160 0.500040 -0.603360
O10   O     O_R   0.601820 0.560840 0.500040 -0.651416
O11   O     O_R   0.398180 0.439160 0.499960 -0.626223
O12   O     O_R   0.500000 0.560800 0.285330 -0.634426
O13   O     O_R   0.500000 0.439200 0.714670 -0.632194
O14   O     O_R   0.500000 0.560800 0.714670 -0.623229
O15   O     O_R   0.500000 0.439200 0.285330 -0.632762
O16   O     O_3   0.871884 0.413591 0.599016 -0.600893
Zn1   Zn    Zn3+2 0.500000 0.581210 0.500000 0.904225
Zn2   Zn    Zn3+2 0.500000 0.418790 0.500000 0.918957

loop_
_geom_bond_atom_site_label_1
_geom_bond_atom_site_label_2
_ccdc_geom_bond_type
C22   O3    S    
C41   H41   S    
C21   C26   A    
H52   N10   S    
O9    Zn2   S    
C7    C10   A    
C40   H36   S    
C29   N12   S    
C6    C9    A    
C37   O2    S    
O1    Zn1   S    
C44   N5    S    
H22   N14   S    
C39   H16   S    
H21   N13   S    
C8    H34   S    
C34   N7    A    
C1    O11   A    
H45   N8    S    
C7    H23   S    
C11   C14   S    
C20   C25   A    
H51   N9    S    
H24   N14   S    
C3    C48   A    
H2    N10   S    
C43   H46   S    
H31   N5    S    
C42   H43   S    
C40   H38   S    
O13   Zn2   S    
C36   H5    S    
C37   H8    S    
C38   O3    S    
C23   N3    S    
C8    C9    A    
C1    C28   S    
C43   H47   S    
C31   C33   A    
C19   C27   A    
C31   N14   S    
C37   H10   S    
H20   N13   S    
H26   N2    S    
C38   H13   S    
H28   N3    S    
H50   N9    S    
H27   N3    S    
C39   H17   S    
C5    H1    S    
C21   O2    S    
C11   O15   A    
C2    O8    S    
C2    C45   A    
C41   H39   S    
C12   C27   S    
H30   N4    S    
C32   C35   A    
C6    H12   S    
C11   O12   A    
C18   C28   A    
C24   C25   A    
C48   O7    S    
H4    N11   S    
H32   N5    S    
C34   N4    S    
O10   Zn1   S    
C42   H42   S    
C40   H37   S    
C2    C4    A    
C36   O16   S    
C26   C33   S    
C12   O10   A    
C16   C20   A    
C43   H48   S    
C43   O8    S    
C25   C35   S    
N1    Zn1   S    
H25   N2    S    
C13   C15   S    
C32   N2    S    
O14   Zn1   S    
C45   N6    S    
C41   H40   S    
H33   N6    S    
C47   O6    S    
H3    N11   S    
C30   C33   A    
C18   C22   A    
C17   C28   A    
C18   N10   S    
C20   O16   S    
N7    Zn2   S    
C17   N9    S    
C5    C8    A    
C44   N1    A    
H49   N8    S    
C6    C7    A    
C19   N11   S    
C39   O4    S    
C39   H15   S    
C29   C35   A    
C3    C46   A    
C24   O4    S    
C13   O14   A    
H35   N6    S    
O15   Zn2   S    
C19   C24   A    
C5    C10   A    
C29   C31   A    
C36   H7    S    
C30   C32   A    
O11   Zn2   S    
C23   N1    A    
C12   O9    A    
O12   Zn1   S    
C16   C27   A    
C3    C10   S    
C46   O5    S    
C42   H44   S    
C41   O6    S    
C17   C21   A    
C36   H6    S    
C16   N8    S    
C38   H11   S    
C13   O13   A    
C45   N7    A    
H19   N12   S    
C40   O5    S    
C22   C26   A    
C23   C46   A    
C14   C15   T    
H29   N4    S    
C34   C47   A    
C1    O1    A    
H18   N12   S    
C4    C9    S    
C4    C47   A    
C37   H9    S    
C44   C48   A    
C42   O7    S    
C38   H14   S    
C30   N13   S    
