data_mof_unit_59379.cif
_audit_creation_date              2012-10-26T20:38:02-0400
_audit_creation_method            fapswitch 2.2
_symmetry_space_group_name_H-M    P1
_symmetry_Int_Tables_number       1
_space_group_crystal_system       triclinic
_cell_length_a                    9.984659
_cell_length_b                    11.061874
_cell_length_c                    12.99762
_cell_angle_alpha                 88.25845
_cell_angle_beta                  75.789801
_cell_angle_gamma                 110.557374
_cell_volume                      1292.23543939

loop_
_atom_site_label
_atom_site_type_symbol
_atom_type_description
_atom_site_fract_x
_atom_site_fract_y
_atom_site_fract_z
_atom_type_partial_charge
C1    C     C_R   0.439986 0.255435 0.513127 0.578919
C2    C     C_R   0.669955 0.634640 0.010691 -0.095255
C3    C     C_R   0.339878 0.387823 0.882227 -0.121496
C4    C     C_R   0.660656 0.611642 0.117630 -0.128102
C5    C     C_R   0.571630 0.574563 0.856358 0.003334
C6    C     C_R   0.427929 0.426076 0.143629 0.018926
C7    C     C_R   0.561434 0.552933 0.966248 0.042465
C8    C     C_R   0.438581 0.447391 0.033663 0.042841
C9    C     C_2   0.408090 0.119268 0.545194 0.272254
C10   C     C_2   0.585781 0.886657 0.485962 0.243883
C11   C     C_2   0.479863 0.056603 0.479691 0.274230
C12   C     C_R   0.558948 0.745945 0.494204 0.545717
C13   C     C_2   0.467697 0.923910 0.516715 0.285638
C14   C     C_2   0.303083 0.316635 0.217265 0.255621
C15   C     C_2   0.694760 0.685454 0.782895 0.233700
C16   C     C_2   0.825049 0.437869 0.626940 0.275703
C17   C     C_2   0.185484 0.649225 0.437928 0.337046
C18   C     C_2   0.943855 0.584798 0.341620 0.405016
C19   C     C_2   0.035685 0.312633 0.584822 0.409030
C20   C     C_2   0.082648 0.521901 0.499565 0.098697
C21   C     C_2   0.919770 0.500985 0.518932 0.089049
C22   C     C_R   0.473956 0.497267 0.701740 0.526517
C23   C     C_R   0.526027 0.502646 0.298255 0.537664
C24   C     C_R   0.540405 0.509804 0.184185 0.006790
C25   C     C_R   0.459609 0.490145 0.815776 -0.006230
C26   C     C_R   0.330323 0.365285 0.989243 -0.091325
Cu1   Cu    Cu3+1 0.647370 0.522180 0.481340 1.042860
Cu2   Cu    Cu3+1 0.352630 0.477820 0.518660 1.103530
H1    H     H_    0.744823 0.677853 0.149762 0.133892
H2    H     H_    0.288025 0.127438 0.685514 0.347005
H3    H     H_    0.854698 0.479066 0.696601 0.136066
H4    H     H_    0.161288 0.735484 0.456240 0.056401
H5    H     H_    0.937678 0.664805 0.295156 0.093992
H6    H     H_    0.944957 0.263247 0.550723 0.147269
H7    H     H_    0.256172 0.321120 0.850009 0.159743
H8    H     H_    0.238400 0.281092 0.035395 0.179706
H9    H     H_    0.762053 0.718756 0.964701 0.187560
H10   H     H_    0.326646 0.255703 0.271926 0.112847
H11   H     H_    0.669433 0.744823 0.728125 0.131849
H12   H     H_    0.252873 0.864721 0.575525 0.345330
H13   H     H_    0.581861 0.049617 0.333257 0.349772
H14   H     H_    0.797170 0.935026 0.417664 0.339464
N1    N     N_2   0.131210 0.444490 0.546730 -0.260402
N2    N     N_2   0.868790 0.555510 0.453270 -0.286175
O1    O     O_R   0.578710 0.332530 0.490040 -0.413158
O2    O     O_2   0.824693 0.705710 0.777804 -0.509212
O3    O     O_3   0.334588 0.837252 0.583189 -0.669898
O4    O     O_3   0.561942 0.116468 0.376915 -0.682735
O5    O     O_3   0.726014 0.979420 0.439296 -0.693689
O6    O     O_3   0.323917 0.063077 0.648283 -0.687170
O7    O     O_2   0.720947 0.334330 0.639267 -0.468532
O8    O     O_2   0.284422 0.657586 0.358306 -0.451458
O9    O     O_2   0.005828 0.515901 0.295872 -0.430386
O10   O     O_2   0.056404 0.252851 0.655947 -0.473743
O11   O     O_R   0.421290 0.667470 0.509960 -0.443454
O12   O     O_R   0.329810 0.295070 0.521560 -0.506467
O13   O     O_R   0.670190 0.704930 0.478440 -0.550429
O14   O     O_R   0.604230 0.515670 0.637800 -0.492039
O15   O     O_R   0.395770 0.484330 0.362200 -0.446334
O16   O     O_R   0.355330 0.478200 0.669330 -0.476708
O17   O     O_R   0.644670 0.521800 0.330670 -0.520964
O18   O     O_2   0.173798 0.299481 0.222550 -0.444963

loop_
_geom_bond_atom_site_label_1
_geom_bond_atom_site_label_2
_ccdc_geom_bond_type
C22   O14   A    
H12   O3    S    
C2    C4    A    
C23   C24   S    
C19   H6    S    
C16   C21   S    
C18   N2    S    
C6    C14   S    
C21   N2    D    
C11   C13   S    
C15   H11   S    
Cu2   N1    S    
C4    H1    S    
C18   O9    D    
C16   O7    D    
C3    H7    S    
C6    C24   A    
Cu1   O1    S    
H2    O6    S    
C7    C8    A    
C16   H3    S    
C23   O15   A    
C9    C11   D    
C2    H9    S    
C1    O1    A    
C11   O4    S    
C10   C12   S    
Cu2   O12   S    
C17   O8    D    
C5    C25   A    
C12   O13   A    
Cu1   N2    S    
C19   O10   D    
C26   H8    S    
Cu2   O15   S    
Cu2   O11   S    
C19   N1    S    
Cu2   O16   S    
C22   O16   A    
C8    C26   A    
C4    C24   A    
C18   H5    S    
C1    O12   A    
C5    C15   S    
C12   O11   A    
C14   H10   S    
H14   O5    S    
C14   O18   D    
C3    C25   A    
C20   N1    D    
C1    C9    S    
C20   C21   S    
C22   C25   S    
C5    C7    A    
Cu1   O13   S    
C23   O17   A    
Cu1   Cu2   S    
C13   O3    S    
C17   H4    S    
C6    C8    A    
Cu1   O17   S    
C15   O2    D    
Cu1   O14   S    
C10   O5    S    
C17   C20   S    
H13   O4    S    
C3    C26   A    
C9    O6    S    
C2    C7    A    
C10   C13   D    
