data_mof_unit_10436.cif
_audit_creation_date              2012-10-26T19:56:49-0400
_audit_creation_method            fapswitch 2.2
_symmetry_space_group_name_H-M    P1
_symmetry_Int_Tables_number       1
_space_group_crystal_system       triclinic
_cell_length_a                    15.472707
_cell_length_b                    15.567507
_cell_length_c                    9.830856
_cell_angle_alpha                 89.780386
_cell_angle_beta                  61.668049
_cell_angle_gamma                 89.673985
_cell_volume                      2084.28458228

loop_
_atom_site_label
_atom_site_type_symbol
_atom_type_description
_atom_site_fract_x
_atom_site_fract_y
_atom_site_fract_z
_atom_type_partial_charge
C1    C     C_R   0.369504 0.115803 0.560745 0.564710
C2    C     C_2   0.487354 0.989306 0.085516 0.384114
C3    C     C_2   0.010124 0.482679 0.918426 0.352317
C4    C     C_2   0.987352 0.489306 0.085521 0.384095
C5    C     C_2   0.285685 0.834448 0.591885 -0.076866
C6    C     C_2   0.707738 0.175701 0.415353 -0.081649
C7    C     C_2   0.687060 0.804142 0.418989 -0.105761
C8    C     C_2   0.290855 0.177380 0.592900 -0.095989
C9    C     C_2   0.785690 0.334436 0.591897 -0.076795
C10   C     C_2   0.207715 0.675729 0.415385 -0.081703
C11   C     C_2   0.187045 0.304129 0.419006 -0.105676
C12   C     C_R   0.624777 0.879213 0.442024 0.539068
C13   C     C_2   0.790855 0.677377 0.592907 -0.095874
C14   C     C_2   0.291838 0.758045 0.526487 0.213455
C15   C     C_2   0.701366 0.221829 0.535200 0.253422
C16   C     C_2   0.674534 0.752843 0.537705 0.234156
C17   C     C_2   0.244757 0.181724 0.506493 0.222370
C18   C     C_2   0.791848 0.258053 0.526435 0.213507
C19   C     C_2   0.201354 0.721809 0.535281 0.253477
C20   C     C_2   0.174499 0.252821 0.537725 0.234276
C21   C     C_2   0.744770 0.681736 0.506483 0.222490
C22   C     C_3   0.599975 0.234599 0.802633 -0.107943
C23   C     C_R   0.627815 0.117911 0.440782 0.560279
C24   C     C_3   0.445261 0.719402 0.331945 -0.121738
C25   C     C_3   0.184873 0.093209 0.384682 -0.100466
C26   C     C_3   0.542887 0.701904 0.755994 -0.107022
C27   C     C_3   0.100097 0.734620 0.802776 -0.107948
C28   C     C_3   0.945258 0.219428 0.331831 -0.121690
C29   C     C_3   0.684848 0.593252 0.384684 -0.100483
C30   C     C_3   0.043086 0.201737 0.756274 -0.107034
C31   C     C_3   0.344347 0.910129 0.186611 -0.110706
C32   C     C_3   0.675581 0.998951 0.750185 -0.069340
C33   C     C_3   0.844322 0.410156 0.186617 -0.110684
C34   C     C_R   0.371796 0.883133 0.559936 0.559792
C35   C     C_3   0.175575 0.498911 0.750173 -0.069353
C36   C     C_R   0.869501 0.615800 0.560747 0.564654
C37   C     C_R   0.124771 0.379208 0.442028 0.539111
C38   C     C_R   0.127810 0.617917 0.440787 0.560230
C39   C     C_R   0.871798 0.383130 0.559937 0.559841
C40   C     C_2   0.510129 0.982689 0.918419 0.352282
Cu1   Cu    Cu3+1 0.522650 0.000000 0.349410 1.001028
Cu2   Cu    Cu3+1 0.477350 0.000000 0.650590 1.010060
Cu3   Cu    Cu3+1 0.022650 0.500000 0.349410 1.001010
Cu4   Cu    Cu3+1 0.977350 0.500000 0.650590 1.010259
H1    H     H_    0.628389 0.003027 0.037852 0.174319
H2    H     H_    0.717186 0.370429 0.642980 0.074091
H3    H     H_    0.768697 0.719488 0.692073 0.100813
H4    H     H_    0.242046 0.288354 0.301731 0.085510
H5    H     H_    0.579579 0.297578 0.862357 0.120864
H6    H     H_    0.667188 0.210786 0.804999 0.099156
H7    H     H_    0.539552 0.189172 0.870479 0.145960
H8    H     H_    0.416227 0.745271 0.256224 0.092335
H9    H     H_    0.481768 0.657328 0.281506 0.119294
H10   H     H_    0.502392 0.762813 0.329983 0.162130
H11   H     H_    0.142221 0.143395 0.361478 0.093036
H12   H     H_    0.382139 0.033282 0.954992 0.189182
H13   H     H_    0.137965 0.060067 0.496181 0.103256
H14   H     H_    0.206591 0.045149 0.291440 0.152307
H15   H     H_    0.582081 0.647606 0.776901 0.090771
H16   H     H_    0.508944 0.680716 0.684055 0.125593
H17   H     H_    0.482445 0.722029 0.869820 0.138327
H18   H     H_    0.079923 0.797679 0.862275 0.120757
H19   H     H_    0.167305 0.710688 0.805028 0.099222
H20   H     H_    0.039567 0.689331 0.870918 0.145890
H21   H     H_    0.916202 0.245303 0.256144 0.092272
H22   H     H_    0.981766 0.157358 0.281363 0.119258
H23   H     H_    0.128388 0.503023 0.037847 0.174300
H24   H     H_    0.002395 0.262839 0.329852 0.162190
H25   H     H_    0.642272 0.643456 0.361337 0.092979
H26   H     H_    0.637868 0.560180 0.496237 0.103240
H27   H     H_    0.706547 0.545141 0.291527 0.152326
H28   H     H_    0.082478 0.147720 0.777523 0.090825
H29   H     H_    0.009285 0.180124 0.684358 0.125231
H30   H     H_    0.982518 0.221894 0.869963 0.138356
H31   H     H_    0.395933 0.856446 0.125053 0.097838
H32   H     H_    0.301190 0.925923 0.126433 0.090808
H33   H     H_    0.291332 0.886717 0.303218 0.133208
H34   H     H_    0.882148 0.533295 0.954983 0.189196
H35   H     H_    0.735690 0.974443 0.771201 0.104811
H36   H     H_    0.658076 0.065528 0.795151 0.069536
H37   H     H_    0.704733 0.000746 0.623196 0.162820
H38   H     H_    0.895894 0.356473 0.125009 0.097830
H39   H     H_    0.801144 0.425977 0.126484 0.090824
H40   H     H_    0.791324 0.386730 0.303224 0.133250
H41   H     H_    0.235675 0.474415 0.771222 0.104762
H42   H     H_    0.158074 0.565499 0.795082 0.069686
H43   H     H_    0.204736 0.500677 0.623180 0.162806
H44   H     H_    0.776175 0.169132 0.308806 0.043111
H45   H     H_    0.217191 0.870456 0.642884 0.073968
H46   H     H_    0.268693 0.219492 0.692066 0.100703
H47   H     H_    0.742043 0.788358 0.301708 0.085537
H48   H     H_    0.276137 0.669223 0.308791 0.043054
N1    N     N_2   0.443290 0.000000 0.876860 -0.338948
N2    N     N_2   0.556710 0.000000 0.123140 -0.333026
N3    N     N_2   0.943290 0.500000 0.876860 -0.338885
N4    N     N_2   0.056710 0.500000 0.123140 -0.333040
O1    O     O_R   0.422430 0.089640 0.419570 -0.400921
O2    O     O_R   0.615830 0.910350 0.326090 -0.530545
O3    O     O_R   0.615830 0.089650 0.326090 -0.520067
O4    O     O_R   0.384170 0.910350 0.673910 -0.498887
O5    O     O_R   0.884170 0.589650 0.673910 -0.520800
O6    O     O_R   0.115830 0.410350 0.326090 -0.530560
O7    O     O_R   0.115830 0.589650 0.326090 -0.520090
O8    O     O_R   0.884170 0.410350 0.673910 -0.498828
O9    O     O_3   0.608105 0.243720 0.653666 -0.570415
O10   O     O_3   0.372791 0.704680 0.485931 -0.600440
O11   O     O_3   0.270435 0.126917 0.381470 -0.524647
O12   O     O_R   0.577570 0.910360 0.580430 -0.386873
O13   O     O_3   0.605649 0.772569 0.688767 -0.512223
O14   O     O_3   0.108091 0.743608 0.653866 -0.570293
O15   O     O_3   0.872811 0.204692 0.485826 -0.600343
O16   O     O_3   0.770428 0.626915 0.381485 -0.524640
O17   O     O_3   0.105570 0.272544 0.688775 -0.512122
O18   O     O_3   0.391062 0.984424 0.203047 -0.503716
O19   O     O_3   0.595981 0.941152 0.816507 -0.510675
O20   O     O_3   0.891059 0.484434 0.203056 -0.503698
O21   O     O_3   0.095966 0.441124 0.816527 -0.510719
O22   O     O_R   0.577570 0.089640 0.580430 -0.465981
O23   O     O_R   0.422430 0.910360 0.419570 -0.468469
O24   O     O_R   0.922430 0.589640 0.419570 -0.400949
O25   O     O_R   0.077570 0.410360 0.580430 -0.386869
O26   O     O_R   0.077570 0.589640 0.580430 -0.465849
O27   O     O_R   0.922430 0.410360 0.419570 -0.468487
O28   O     O_R   0.384170 0.089650 0.673910 -0.520815

loop_
_geom_bond_atom_site_label_1
_geom_bond_atom_site_label_2
_ccdc_geom_bond_type
C24   H8    S    
C15   C18   S    
C23   O3    A    
C16   C21   S    
C1    C8    S    
C35   H41   S    
Cu1   Cu2   S    
C29   O16   S    
C40   N1    D    
C23   O22   A    
Cu4   O8    S    
Cu2   O28   S    
C39   O8    A    
C32   H37   S    
C28   H24   S    
C26   H17   S    
C6    H44   S    
C17   O11   S    
C37   O6    A    
C30   H30   S    
C35   H42   S    
C40   O19   S    
C24   H10   S    
Cu2   N1    S    
Cu4   O25   S    
C9    C39   S    
C17   C20   S    
C39   O27   A    
C11   C37   S    
C3    O21   S    
C6    C15   D    
C4    N4    D    
C35   H43   S    
C27   O14   S    
C34   O4    A    
Cu1   O3    S    
C26   H15   S    
H34   N3    S    
C31   O18   S    
C12   O2    A    
Cu3   O24   S    
C22   H6    S    
C10   H48   S    
C9    H2    S    
C11   H4    S    
C7    C12   S    
C25   H13   S    
H1    N2    S    
C16   O13   S    
C31   H33   S    
C29   H25   S    
C28   O15   S    
H12   N1    S    
C11   C20   D    
C2    N2    D    
C18   O15   S    
C13   C36   S    
C1    O1    A    
C12   O12   A    
C30   H29   S    
Cu2   O22   S    
C24   H9    S    
C36   O5    A    
C28   H22   S    
Cu3   Cu4   S    
C38   O7    A    
C27   H18   S    
Cu2   O4    S    
C32   H36   S    
C31   H31   S    
Cu1   N2    S    
C10   C19   D    
C7    H47   S    
C5    C34   S    
Cu3   N4    S    
C13   C21   D    
Cu1   O23   S    
C33   H39   S    
C26   O13   S    
C5    C14   D    
C38   O26   A    
C27   H19   S    
C22   H5    S    
C37   O25   A    
C7    C16   D    
H23   N4    S    
Cu1   O1    S    
C35   O21   S    
C8    H46   S    
C25   H14   S    
C3    C4    S    
Cu3   O27   S    
C21   O16   S    
C25   O11   S    
C13   H3    S    
C29   H26   S    
C33   H38   S    
C19   O14   S    
C34   O23   A    
C33   O20   S    
C14   C19   S    
C4    O20   S    
C25   H11   S    
C30   H28   S    
Cu4   O5    S    
C22   O9    S    
C8    C17   D    
C10   C38   S    
C15   O9    S    
C28   H21   S    
C1    O28   A    
Cu4   N3    S    
C32   H35   S    
C2    O18   S    
C31   H32   S    
C20   O17   S    
Cu2   O12   S    
C6    C23   S    
Cu4   O26   S    
C32   O19   S    
C36   O24   A    
C33   H40   S    
Cu3   O7    S    
Cu3   O6    S    
C27   H20   S    
C2    C40   S    
C9    C18   D    
C14   O10   S    
C24   O10   S    
Cu1   O2    S    
C3    N3    D    
C26   H16   S    
C5    H45   S    
C22   H7    S    
C29   H27   S    
C30   O17   S    
