data_mof_unit_16629.cif
_audit_creation_date              2012-12-11T17:25:00-0500
_audit_creation_method            fapswitch 2.2
_symmetry_space_group_name_H-M    P1
_symmetry_Int_Tables_number       1
_space_group_crystal_system       triclinic
_cell_length_a                    6.954929
_cell_length_b                    20.512239
_cell_length_c                    24.506966
_cell_angle_alpha                 90.086855
_cell_angle_beta                  90.482522
_cell_angle_gamma                 89.521467
_cell_volume                      3495.9427741

loop_
_atom_site_label
_atom_site_type_symbol
_atom_type_description
_atom_site_fract_x
_atom_site_fract_y
_atom_site_fract_z
_atom_type_partial_charge
O1    O     O_R   0.507280 0.423750 0.460310 -0.534325
O2    O     O_R   0.171030 0.555650 0.437630 -0.543871
O3    O     O_R   0.004080 0.576250 0.539690 -0.551802
C1    C     C_R   0.339052 0.575963 0.422000 0.728171
O4    O     O_R   0.177330 0.422980 0.453960 -0.536457
O5    O     O_R   0.010420 0.442640 0.556140 -0.536144
C2    C     C_R   0.346561 0.399108 0.443220 0.694516
O6    O     O_R   0.500930 0.557360 0.443860 -0.527803
O7    O     O_3   0.340310 0.506600 0.533500 -0.378229
V1    V     V_3+5 0.064140 0.498780 0.493780 1.404827
O8    O     O_R   0.680890 0.444350 0.562370 -0.540475
C3    C     C_R   0.850582 0.424572 0.578231 0.734712
O9    O     O_R   0.674590 0.577020 0.546040 -0.535398
C4    C     C_R   0.843199 0.600527 0.557264 0.797823
V2    V     V_3+5 0.564550 0.501220 0.506220 1.420056
O10   O     O_3   0.838250 0.493400 0.466500 -0.367229
C5    C     C_R   0.967060 0.838538 0.911058 -0.059591
C6    C     C_R   0.849639 0.661815 0.589106 -0.218237
C7    C     C_R   0.920448 0.722067 0.909065 -0.164027
C8    C     C_R   0.950851 0.779260 0.938324 -0.163089
C9    C     C_R   0.951036 0.840371 0.853857 -0.232088
C10   C     C_R   0.907706 0.783282 0.823078 0.089707
C11   C     C_R   0.899182 0.723489 0.852065 0.150506
C12   C     C_R   0.874770 0.782762 0.764878 -0.061830
C13   C     C_R   0.868954 0.721395 0.736499 0.026799
C14   C     C_R   0.850149 0.664323 0.767900 -0.176774
C15   C     C_R   0.865067 0.665420 0.824310 -0.228392
C16   C     C_R   0.833216 0.840228 0.734250 0.384498
C17   C     C_R   0.814790 0.837271 0.677668 -0.205258
C18   C     C_R   0.828542 0.778420 0.649419 -0.040715
C19   C     C_R   0.864775 0.719397 0.677765 -0.026930
C20   C     C_R   0.797668 0.778468 0.592818 -0.210523
C21   C     C_R   0.803824 0.720768 0.562848 0.352185
C22   C     C_R   0.894747 0.661398 0.645507 0.290427
H1    H     H_    0.850720 0.620024 0.846460 0.126505
H2    H     H_    0.783800 0.881997 0.655624 0.136413
H3    H     H_    0.910557 0.676534 0.931216 0.113935
H4    H     H_    0.960836 0.777351 0.982441 0.106124
H5    H     H_    0.976032 0.886749 0.834906 0.161256
H6    H     H_    0.814343 0.618031 0.749932 0.182200
H7    H     H_    0.762264 0.823489 0.571744 0.139387
C23   C     C_R   0.738901 0.286587 0.742644 -0.194825
H8    H     H_    0.607453 0.314694 0.737007 0.122196
C24   C     C_R   0.892017 0.295170 0.706474 0.125447
C25   C     C_R   0.061264 0.258469 0.714071 -0.160611
H9    H     H_    0.181008 0.264366 0.686570 0.117999
C26   C     C_R   0.077498 0.213734 0.757205 -0.138586
H10   H     H_    0.209454 0.185842 0.762101 0.136351
C27   C     C_R   0.925189 0.205055 0.793686 0.085761
C28   C     C_R   0.754469 0.241960 0.786137 -0.031972
C29   C     C_1   0.875445 0.341312 0.661535 -0.047515
C30   C     C_1   0.946273 0.158629 0.838499 -0.019800
C31   C     C_1   0.960806 0.120402 0.876193 -0.162555
C32   C     C_1   0.862932 0.379519 0.623768 -0.187251
H11   H     H_    0.696198 0.715751 0.305879 0.111170
C33   C     C_R   0.595119 0.775784 0.239283 -0.152984
H12   H     H_    0.737654 0.793517 0.230274 0.113297
C34   C     C_R   0.436154 0.796883 0.208024 0.136687
C35   C     C_R   0.253092 0.772981 0.220817 -0.147555
H13   H     H_    0.128290 0.788579 0.197361 0.112571
C36   C     C_R   0.229450 0.728496 0.263864 -0.164975
H14   H     H_    0.086950 0.710689 0.272821 0.109188
C37   C     C_R   0.388482 0.707144 0.294943 0.138409
C38   C     C_R   0.571426 0.731356 0.282399 -0.145650
C39   C     C_1   0.459923 0.842384 0.162739 -0.053281
C40   C     C_1   0.364829 0.660545 0.339416 -0.063099
C41   C     C_1   0.349143 0.621822 0.376775 -0.188564
C42   C     C_1   0.475193 0.880040 0.124587 -0.186994
C43   C     C_R   0.465477 0.161369 0.089199 -0.066503
C44   C     C_R   0.356482 0.337993 0.411555 -0.044293
C45   C     C_R   0.435764 0.278545 0.092315 -0.163000
C46   C     C_R   0.456303 0.221230 0.062477 -0.156640
C47   C     C_R   0.450232 0.159078 0.146311 -0.232431
C48   C     C_R   0.415272 0.216517 0.177740 0.100039
C49   C     C_R   0.417035 0.276791 0.149317 0.141153
C50   C     C_R   0.384859 0.216974 0.236068 -0.072809
C51   C     C_R   0.382572 0.278125 0.264857 0.009993
C52   C     C_R   0.391087 0.336221 0.234121 -0.155554
C53   C     C_R   0.403025 0.335338 0.177738 -0.201821
C54   C     C_R   0.350537 0.159202 0.266655 0.340314
C55   C     C_R   0.359372 0.160171 0.323827 -0.138076
C56   C     C_R   0.367292 0.219676 0.352517 0.015652
C57   C     C_R   0.370503 0.279547 0.323373 0.079205
C58   C     C_R   0.365136 0.220435 0.410205 -0.130871
C59   C     C_R   0.360000 0.278772 0.439117 -0.164859
C60   C     C_R   0.362997 0.338609 0.354307 -0.183467
H15   H     H_    0.406246 0.381427 0.156151 0.120725
H16   H     H_    0.360815 0.386040 0.335603 0.085283
H17   H     H_    0.356441 0.277669 0.483307 0.104211
H18   H     H_    0.433891 0.324590 0.070661 0.117489
H19   H     H_    0.466639 0.223592 0.018432 0.122870
H20   H     H_    0.471436 0.111928 0.164504 0.164589
H21   H     H_    0.387740 0.383980 0.252239 0.119450
H22   H     H_    0.364479 0.175781 0.433665 0.127128
O11   O     O_R   0.323320 0.942780 0.056240 -0.534708
O12   O     O_R   0.647300 0.077050 0.046060 -0.538978
O13   O     O_R   0.813840 0.057330 0.943840 -0.532428
C61   C     C_R   0.478018 0.100990 0.056759 0.702915
O14   O     O_R   0.653250 0.944380 0.062400 -0.538453
O15   O     O_R   0.819830 0.923720 0.960300 -0.536133
C62   C     C_R   0.485145 0.924682 0.078476 0.723430
O16   O     O_R   0.317330 0.076390 0.039790 -0.534647
O17   O     O_3   0.483830 0.993470 0.966560 -0.367171
V3    V     V_3+5 0.760140 0.001210 0.006210 1.422524
O18   O     O_R   0.149290 0.922840 0.953850 -0.540806
C63   C     C_R   0.980302 0.899104 0.943149 0.693036
O19   O     O_R   0.143340 0.055500 0.937510 -0.535067
C64   C     C_R   0.973635 0.075369 0.921724 0.727688
V4    V     V_3+5 0.259690 0.998600 0.993650 1.427355
O20   O     O_3   0.986130 0.006520 0.033440 -0.369146
C65   C     C_1   0.593994 0.234924 0.822619 0.281939
N1    N     N_1   0.465599 0.229266 0.851926 -0.364348
O21   O     O_3   0.961848 0.603231 0.667535 -0.589037
C66   C     C_3   0.153772 0.609425 0.686730 0.037129
H23   H     H_    0.160760 0.588853 0.728624 0.152599
H24   H     H_    0.206598 0.660617 0.689546 0.117964
C67   C     C_3   0.288829 0.570047 0.650379 -0.268207
H25   H     H_    0.229721 0.520454 0.643690 0.209178
H26   H     H_    0.300878 0.595070 0.610419 0.205147
C68   C     C_3   0.488237 0.563950 0.676219 -0.802196
H27   H     H_    0.547953 0.613186 0.683455 0.230972
H28   H     H_    0.585175 0.536462 0.648602 0.250090
H29   H     H_    0.480883 0.537477 0.715640 0.219465
C69   C     C_1   0.353171 0.098405 0.352500 0.341919
N2    N     N_1   0.348274 0.049063 0.375267 -0.363671
O22   O     O_3   0.305555 0.100479 0.241840 -0.580428
C70   C     C_3   0.112090 0.101492 0.223226 0.071986
H30   H     H_    0.105822 0.073196 0.184556 0.144159
H31   H     H_    0.055808 0.151308 0.213385 0.115491
C71   C     C_3   0.982290 0.068635 0.264956 -0.317776
H32   H     H_    0.037921 0.018807 0.273954 0.218774
H33   H     H_    0.982107 0.097377 0.303400 0.196184
C72   C     C_3   0.776387 0.064078 0.243741 -0.782556
H34   H     H_    0.719348 0.113756 0.235437 0.234855
H35   H     H_    0.685022 0.040631 0.274903 0.257737
H36   H     H_    0.770564 0.034637 0.205684 0.222840
O23   O     O_3   0.751356 0.721924 0.508239 -0.573952
C73   C     C_3   0.917276 0.721717 0.475115 0.084206
H37   H     H_    0.886251 0.690630 0.438960 0.141513
H38   H     H_    0.048093 0.700382 0.495241 0.100060
C74   C     C_3   0.959488 0.790955 0.455638 -0.324829
H39   H     H_    0.827756 0.812445 0.436678 0.212498
H40   H     H_    0.001713 0.821614 0.491113 0.191991
C75   C     C_3   0.121240 0.791243 0.413961 -0.791178
H41   H     H_    0.254615 0.769694 0.431850 0.241157
H42   H     H_    0.151055 0.842143 0.401427 0.242816
H43   H     H_    0.078531 0.762960 0.377198 0.227037
O24   O     O_3   0.794582 0.899742 0.758550 -0.585870
C76   C     C_3   0.602555 0.901474 0.777497 0.077449
H44   H     H_    0.602893 0.926387 0.817803 0.142431
H45   H     H_    0.538928 0.852303 0.784329 0.113913
C77   C     C_3   0.475578 0.940899 0.738089 -0.330783
H46   H     H_    0.533640 0.990982 0.734119 0.205633
H47   H     H_    0.475973 0.917462 0.697206 0.193155
C78   C     C_3   0.268874 0.944927 0.758104 -0.784217
H48   H     H_    0.207976 0.895201 0.760640 0.238743
H49   H     H_    0.180320 0.974091 0.729016 0.244354
H50   H     H_    0.263094 0.968513 0.798913 0.222750

loop_
_geom_bond_atom_site_label_1
_geom_bond_atom_site_label_2
_ccdc_geom_bond_type
C13   C19   A    
C45   C49   A    
O22   C70   S    
C78   H49   S    
C67   H25   S    
C47   C48   A    
C4    C6    S    
C71   H33   S    
C7    C8    A    
C1    O6    A    
C2    C44   S    
C53   H15   S    
C55   C56   A    
C26   C27   A    
C51   C52   A    
C68   H27   S    
C22   O21   S    
C17   H2    S    
C14   C15   A    
C48   C50   A    
C9    C10   A    
C16   C17   A    
C76   H45   S    
O5    C3    A    
C18   C19   A    
C60   H16   S    
C51   C57   A    
C52   H21   S    
V2    O10   S    
O15   V3    S    
C5    C8    A    
C33   H12   S    
C36   C37   A    
C7    H3    S    
O13   C64   A    
O8    V2    S    
C58   C59   A    
C65   N1    T    
C21   O23   S    
O12   C61   A    
C72   H36   S    
O19   C64   A    
C33   C38   A    
C67   H26   S    
C43   C47   A    
O1    V2    S    
C11   C15   A    
O7    V1    S    
C68   H29   S    
C43   C61   S    
C39   C42   T    
O14   V3    S    
C37   C40   S    
C35   H13   S    
O9    C4    A    
C78   H50   S    
O19   V4    S    
C74   H39   S    
C23   C24   A    
C75   H43   S    
C68   H28   S    
C66   H23   S    
C25   C26   A    
C35   C36   A    
C16   O24   S    
C48   C49   A    
C55   C69   S    
C66   C67   S    
C50   C54   A    
C12   C13   A    
C75   H42   S    
O11   V4    S    
C67   C68   S    
O4    C2    A    
C46   H19   S    
C59   H17   S    
C52   C53   A    
C75   H41   S    
C15   H1    S    
C34   C35   A    
C61   O16   A    
C5    C9    A    
C43   C46   A    
C7    C11   A    
C70   H31   S    
C17   C18   A    
C8    H4    S    
C34   C39   S    
C26   H10   S    
C9    H5    S    
C77   C78   S    
C20   H7    S    
C27   C30   S    
H11   C38   S    
C19   C22   A    
C58   H22   S    
C50   C51   A    
C6    C22   A    
O3    C4    A    
C73   H38   S    
C23   C28   A    
C24   C29   S    
O14   C62   A    
C77   H47   S    
C56   C57   A    
O6    V2    S    
C56   C58   A    
O12   V3    S    
O9    V2    S    
C72   H34   S    
C10   C12   A    
C76   C77   S    
C71   C72   S    
C23   H8    S    
C70   H30   S    
O2    V1    S    
C78   H48   S    
C30   C31   T    
V3    O20   S    
O21   C66   S    
O23   C73   S    
O18   V4    S    
O1    C2    A    
C24   C25   A    
C12   C16   A    
C47   H20   S    
C54   C55   A    
C73   C74   S    
O5    V1    S    
C1    C41   S    
C66   H24   S    
O8    C3    A    
C74   C75   S    
O18   C63   A    
O15   C63   A    
C42   C62   S    
O17   V4    S    
C29   C32   T    
C20   C21   A    
C74   H40   S    
C71   H32   S    
C13   C14   A    
C70   C71   S    
C45   C46   A    
O3    V1    S    
V1    O10   S    
C5    C63   S    
C18   C20   A    
C31   C64   S    
C14   H6    S    
C45   H18   S    
C54   O22   S    
O2    C1    A    
C28   C65   S    
C33   C34   A    
C40   C41   T    
O24   C76   S    
O7    V2    S    
C36   H14   S    
C6    C21   A    
O13   V3    S    
C73   H37   S    
C37   C38   A    
C25   H9    S    
O4    V1    S    
C57   C60   A    
C77   H46   S    
C27   C28   A    
V4    O20   S    
O17   V3    S    
C72   H35   S    
C10   C11   A    
O16   V4    S    
C76   H44   S    
C44   C59   A    
C49   C53   A    
C3    C32   S    
O11   C62   A    
C69   N2    T    
C44   C60   A    
