data_mof_unit_22162.cif
_audit_creation_date              2012-12-11T14:52:40-0500
_audit_creation_method            fapswitch 2.2
_symmetry_space_group_name_H-M    P1
_symmetry_Int_Tables_number       1
_space_group_crystal_system       triclinic
_cell_length_a                    19.153338
_cell_length_b                    11.368832
_cell_length_c                    18.711806
_cell_angle_alpha                 89.296789
_cell_angle_beta                  90.873659
_cell_angle_gamma                 90.639679
_cell_volume                      4073.48994954

loop_
_atom_site_label
_atom_site_type_symbol
_atom_type_description
_atom_site_fract_x
_atom_site_fract_y
_atom_site_fract_z
_atom_type_partial_charge
C1    C     C_R   0.272551 0.040746 0.854304 0.541060
C2    C     C_R   0.697013 0.525334 0.041174 0.147041
C3    C     C_3   0.009988 0.333106 0.071672 0.013676
C4    C     C_3   0.304988 0.813548 0.974809 -0.299966
C5    C     C_3   0.669267 0.820235 0.031797 -0.249142
C6    C     C_3   0.805008 0.313532 0.974750 -0.299728
C7    C     C_3   0.169289 0.320242 0.031865 -0.248377
C8    C     C_3   0.219547 0.840185 0.336571 -0.250964
C9    C     C_3   0.790710 0.844360 0.659842 -0.246856
C10   C     C_3   0.594520 0.252084 0.402640 -0.193782
C11   C     C_3   0.279698 0.339933 0.663909 -0.268260
C12   C     C_3   0.397659 0.433256 0.899446 -0.256008
C13   C     C_R   0.789293 0.003889 0.952511 0.092292
C14   C     C_3   0.576823 0.466995 0.073116 -0.174189
C15   C     C_3   0.897671 0.933285 0.899448 -0.256160
C16   C     C_3   0.076868 0.966945 0.073211 -0.173790
C17   C     C_3   0.394699 0.448955 0.104174 -0.193726
C18   C     C_3   0.604759 0.476112 0.873790 -0.243757
C19   C     C_3   0.894701 0.948890 0.104128 -0.193252
C20   C     C_3   0.104771 0.976048 0.873851 -0.243776
C21   C     C_3   0.424836 0.125073 0.438718 -0.285971
C22   C     C_3   0.544644 0.091722 0.612702 -0.269629
C23   C     C_3   0.010492 0.634540 0.411615 -0.214113
C24   C     C_R   0.197042 0.025279 0.041222 0.147914
C25   C     C_3   0.035236 0.607167 0.601015 -0.259859
C26   C     C_R   0.292494 0.500021 0.028843 0.120135
C27   C     C_R   0.698375 0.520819 0.965290 0.102416
C28   C     C_R   0.792482 0.999994 0.028825 0.119381
C29   C     C_R   0.198390 0.020769 0.965332 0.102384
C30   C     C_R   0.242967 0.566676 0.068504 -0.052068
C31   C     C_R   0.756020 0.574199 0.928626 -0.044037
C32   C     C_R   0.742946 0.066637 0.068483 -0.052182
C33   C     C_R   0.727009 0.038625 0.144607 0.530908
C34   C     C_R   0.256026 0.074168 0.928652 -0.044277
C35   C     C_R   0.191028 0.630366 0.030071 0.226853
C36   C     C_R   0.810683 0.628865 0.969971 0.264238
C37   C     C_R   0.691007 0.130327 0.030043 0.226187
C38   C     C_R   0.310688 0.128845 0.969992 0.264343
C39   C     C_R   0.184543 0.621855 0.957007 0.263474
C40   C     C_R   0.810224 0.623698 0.043282 0.248717
C41   C     C_R   0.684533 0.121824 0.956980 0.263645
C42   C     C_R   0.310237 0.123684 0.043306 0.249592
C43   C     C_R   0.240177 0.575613 0.917763 -0.052594
C44   C     C_R   0.772549 0.540756 0.854295 0.541441
C45   C     C_R   0.750759 0.585390 0.078872 -0.074667
C46   C     C_R   0.740172 0.075591 0.917745 -0.051710
C47   C     C_R   0.250783 0.085352 0.078905 -0.074644
C48   C     C_R   0.517447 0.734169 0.543838 0.214605
C49   C     C_R   0.514011 0.723578 0.470158 0.244702
C50   C     C_R   0.017370 0.236769 0.543167 0.212673
C51   C     C_R   0.011770 0.224718 0.469538 0.248175
C52   C     C_R   0.504937 0.825868 0.427183 -0.008809
C53   C     C_R   0.499635 0.838398 0.576105 0.010348
C54   C     C_R   0.003537 0.326212 0.426042 -0.004086
C55   C     C_R   0.227024 0.538659 0.144624 0.526815
C56   C     C_R   0.998527 0.340452 0.575302 0.003950
C57   C     C_R   0.487598 0.934553 0.458734 0.100055
C58   C     C_R   0.490387 0.942243 0.534544 0.085843
C59   C     C_R   0.988241 0.434742 0.457622 0.095719
C60   C     C_R   0.987957 0.443187 0.532476 0.091283
C61   C     C_R   0.439539 0.815987 0.861492 0.575438
C62   C     C_R   0.534534 0.821723 0.143934 0.547274
C63   C     C_R   0.939557 0.315987 0.861494 0.575073
C64   C     C_R   0.034527 0.321724 0.143937 0.550176
C65   C     C_R   0.222916 0.719766 0.512627 0.161547
C66   C     C_3   0.483767 0.717030 0.984574 0.224477
C67   C     C_R   0.777291 0.730373 0.483874 0.202515
C68   C     C_R   0.712835 0.204321 0.522721 0.144879
C69   C     C_R   0.270072 0.236235 0.485617 0.162125
C70   C     C_R   0.221464 0.705017 0.439411 0.116966
C71   C     C_R   0.780520 0.711994 0.558105 0.071980
C72   C     C_R   0.694530 0.153546 0.460101 0.112310
C73   C     C_R   0.274976 0.213467 0.559323 0.068578
C74   C     C_R   0.260925 0.615935 0.410538 0.009560
C75   C     C_R   0.741185 0.618801 0.588343 0.009506
C76   C     C_R   0.746306 0.093830 0.422048 0.017674
C77   C     C_3   0.445544 0.764976 0.048171 0.209103
C78   C     C_R   0.239851 0.115048 0.587470 0.021247
C79   C     C_R   0.320780 0.578671 0.447375 0.269775
C80   C     C_R   0.685662 0.569912 0.549574 0.255949
C81   C     C_R   0.813144 0.077235 0.451666 0.219467
C82   C     C_R   0.183921 0.065367 0.549392 0.227226
C83   C     C_R   0.326285 0.599301 0.521640 0.177804
C84   C     C_R   0.685414 0.580854 0.475143 0.183402
C85   C     C_R   0.824267 0.104617 0.524416 0.189447
C86   C     C_R   0.180332 0.083086 0.474425 0.208174
C87   C     C_R   0.272797 0.661889 0.556478 -0.036221
C88   C     C_3   0.983814 0.217021 0.984570 0.224454
C89   C     C_R   0.730730 0.662461 0.441764 -0.008882
C90   C     C_R   0.772553 0.167756 0.560064 -0.017553
C91   C     C_R   0.225859 0.166610 0.442289 0.018617
C92   C     C_R   0.257970 0.631913 0.848751 0.521380
C93   C     C_R   0.739943 0.634355 0.150001 0.514987
C94   C     C_R   0.757967 0.131903 0.848742 0.519777
C95   C     C_R   0.239957 0.134316 0.150027 0.509544
C96   C     C_R   0.269283 0.050707 0.649171 0.555230
C97   C     C_R   0.727171 0.042934 0.354390 0.594202
C98   C     C_R   0.769112 0.552333 0.650041 0.554156
C99   C     C_3   0.945566 0.264957 0.048153 0.208707
C100  C     C_R   0.231063 0.550127 0.350343 0.568886
C101  C     C_R   0.470071 0.825234 0.647751 0.594080
C102  C     C_R   0.531017 0.821809 0.353344 0.547400
C103  C     C_R   0.969543 0.325664 0.647304 0.587666
C104  C     C_R   0.030280 0.321932 0.352754 0.553232
C105  C     C_R   0.273629 0.683307 0.635298 0.556233
C106  C     C_R   0.726703 0.684643 0.364107 0.593018
C107  C     C_R   0.775087 0.188961 0.636905 0.572688
C108  C     C_R   0.225575 0.186606 0.363916 0.615870
C109  C     C_3   0.486306 0.939966 0.026619 0.218345
C110  C     C_R   0.289297 0.503904 0.952527 0.092029
C111  C     C_3   0.524753 0.890473 0.961744 0.187581
C112  C     C_3   0.986320 0.439960 0.026607 0.218730
C113  C     C_3   0.024790 0.390474 0.961745 0.187420
C114  C     C_3   0.421051 0.870347 0.002869 0.090691
C115  C     C_3   0.548518 0.785427 0.006928 0.111310
C116  C     C_3   0.921073 0.370323 0.002844 0.090292
C117  C     C_3   0.048550 0.285434 0.006940 0.111093
C118  C     C_3   0.459308 0.821007 0.937709 -0.014599
C119  C     C_3   0.509980 0.833108 0.071674 0.013630
C120  C     C_3   0.959354 0.320996 0.937698 -0.014892
Cr1   Cr    Cr6+3 0.229630 0.835900 0.747350 1.012432
Cr2   Cr    Cr6+3 0.614200 0.677120 0.250660 1.043144
Cr3   Cr    Cr6+3 0.885800 0.177120 0.749340 1.007754
Cr4   Cr    Cr6+3 0.114200 0.177120 0.250660 1.046710
Cr5   Cr    Cr6+3 0.770370 0.835900 0.252650 1.070947
Cr6   Cr    Cr6+3 0.729630 0.335900 0.747350 1.009372
Cr7   Cr    Cr6+3 0.270370 0.335900 0.252650 1.056566
Cr8   Cr    Cr6+3 0.387410 0.989850 0.750850 0.993305
Cr9   Cr    Cr6+3 0.612590 0.989850 0.249150 1.045107
Cr10  Cr    Cr6+3 0.887410 0.489850 0.750850 0.995095
Cr11  Cr    Cr6+3 0.112590 0.489850 0.249150 1.025332
Cr12  Cr    Cr6+3 0.385800 0.677120 0.749340 0.999121
H1    H     H_    0.337196 0.906388 0.062242 0.241505
H2    H     H_    0.753495 0.318113 0.998953 0.154144
H3    H     H_    0.379715 0.087850 0.468221 0.150802
H4    H     H_    0.437383 0.077275 0.585438 0.278277
H5    H     H_    0.555901 0.185792 0.600947 0.193804
H6    H     H_    0.592314 0.039997 0.602314 0.161555
H7    H     H_    0.531832 0.083838 0.670177 0.161970
H8    H     H_    0.940098 0.511609 0.367248 0.255501
H9    H     H_    0.023209 0.655423 0.355109 0.138990
H10   H     H_    0.060148 0.620148 0.441727 0.168514
H11   H     H_    0.983279 0.710818 0.434410 0.161919
H12   H     H_    0.928411 0.567167 0.584420 0.290523
H13   H     H_    0.824635 0.223691 0.983401 0.178609
H14   H     H_    0.023399 0.699836 0.613877 0.146174
H15   H     H_    0.082799 0.606447 0.567843 0.187124
H16   H     H_    0.045974 0.558202 0.651554 0.163354
H17   H     H_    0.802339 0.331990 0.916763 0.168778
H18   H     H_    0.128937 0.217697 0.951674 0.263610
H19   H     H_    0.221374 0.294552 0.014311 0.132043
H20   H     H_    0.167560 0.320396 0.090932 0.180911
H21   H     H_    0.159450 0.409126 0.010962 0.188422
H22   H     H_    0.207388 0.846082 0.570765 0.371569
H23   H     H_    0.862932 0.823371 0.481127 0.328730
H24   H     H_    0.702428 0.344834 0.569407 0.368765
H25   H     H_    0.253485 0.818113 0.999028 0.153873
H26   H     H_    0.351066 0.339041 0.485678 0.340209
H27   H     H_    0.131734 0.760342 0.384102 0.263794
H28   H     H_    0.184211 0.901954 0.307908 0.183434
H29   H     H_    0.237001 0.774532 0.297478 0.125263
H30   H     H_    0.265482 0.890246 0.357480 0.156370
H31   H     H_    0.873641 0.757162 0.611057 0.258256
H32   H     H_    0.829409 0.901972 0.687376 0.170263
H33   H     H_    0.771056 0.779182 0.699516 0.145679
H34   H     H_    0.746721 0.899006 0.639658 0.169266
H35   H     H_    0.589803 0.121084 0.480428 0.291999
H36   H     H_    0.324620 0.723705 0.983432 0.178694
H37   H     H_    0.576203 0.317880 0.441172 0.192199
H38   H     H_    0.549121 0.224235 0.369231 0.155395
H39   H     H_    0.633974 0.290644 0.366123 0.158188
H40   H     H_    0.365950 0.263108 0.614356 0.257117
H41   H     H_    0.316129 0.398348 0.693913 0.149746
H42   H     H_    0.261056 0.270708 0.701523 0.157153
H43   H     H_    0.234623 0.392550 0.644284 0.171065
H44   H     H_    0.409822 0.498140 0.442379 0.360469
H45   H     H_    0.602867 0.468136 0.550996 0.377573
H46   H     H_    0.906009 0.013791 0.437256 0.348463
H47   H     H_    0.302310 0.832035 0.916826 0.168606
H48   H     H_    0.097973 0.968521 0.557401 0.342325
H49   H     H_    0.368330 0.494560 0.588797 0.352863
H50   H     H_    0.680859 0.461435 0.405340 0.325061
H51   H     H_    0.894577 0.989959 0.547924 0.307883
H52   H     H_    0.122134 0.943916 0.454884 0.355781
H53   H     H_    0.491877 0.105129 0.004734 0.399003
H54   H     H_    0.536688 0.012806 0.893781 0.351650
H55   H     H_    0.991891 0.605123 0.004723 0.398990
H56   H     H_    0.036746 0.512728 0.893732 0.352058
H57   H     H_    0.510572 0.600545 0.923691 0.329675
H58   H     H_    0.628879 0.717692 0.951627 0.263684
H59   H     H_    0.390647 0.755655 0.133348 0.307602
H60   H     H_    0.010576 0.100560 0.923652 0.329626
H61   H     H_    0.890331 0.255780 0.133095 0.310586
H62   H     H_    0.296864 0.396906 0.863852 0.246475
H63   H     H_    0.409820 0.522450 0.880339 0.232710
H64   H     H_    0.415253 0.373871 0.856793 0.100378
H65   H     H_    0.427075 0.410650 0.948983 0.210532
H66   H     H_    0.666989 0.429760 0.132046 0.239286
H67   H     H_    0.549638 0.415064 0.115151 0.117746
H68   H     H_    0.557498 0.434260 0.021010 0.227673
H69   H     H_    0.721344 0.794539 0.014225 0.131857
H70   H     H_    0.564064 0.560571 0.079677 0.225790
H71   H     H_    0.796888 0.896914 0.863829 0.246411
H72   H     H_    0.909825 0.022496 0.880368 0.232520
H73   H     H_    0.915278 0.873929 0.856785 0.100046
H74   H     H_    0.927081 0.910657 0.948986 0.210618
H75   H     H_    0.167052 0.929721 0.132124 0.233928
H76   H     H_    0.049695 0.915069 0.115280 0.117212
H77   H     H_    0.057528 0.934160 0.021122 0.227767
H78   H     H_    0.064115 0.060532 0.079732 0.225880
H79   H     H_    0.345857 0.343430 0.030972 0.318295
H80   H     H_    0.667558 0.820406 0.090864 0.179466
H81   H     H_    0.433127 0.490712 0.068473 0.209381
H82   H     H_    0.419253 0.370962 0.129993 0.154864
H83   H     H_    0.381025 0.510027 0.147181 0.208578
H84   H     H_    0.674046 0.359699 0.920899 0.319995
H85   H     H_    0.551747 0.443323 0.886401 0.135928
H86   H     H_    0.616123 0.431491 0.822970 0.176513
H87   H     H_    0.607291 0.572635 0.864429 0.135907
H88   H     H_    0.845821 0.843393 0.030945 0.318301
H89   H     H_    0.933121 0.990649 0.068417 0.209232
H90   H     H_    0.919261 0.870884 0.129925 0.155304
H91   H     H_    0.659426 0.909114 0.010888 0.188429
H92   H     H_    0.881047 0.009942 0.147150 0.210147
H93   H     H_    0.174097 0.859674 0.920910 0.319844
H94   H     H_    0.051761 0.943271 0.886480 0.136086
H95   H     H_    0.116121 0.931416 0.823031 0.176438
H96   H     H_    0.107314 0.072569 0.864480 0.135688
H97   H     H_    0.169648 0.741543 0.101648 0.325379
H98   H     H_    0.860266 0.719887 0.901489 0.346450
H99   H     H_    0.669599 0.241529 0.101590 0.327192
H100  H     H_    0.360245 0.219876 0.901502 0.346484
H101  H     H_    0.118295 0.639207 0.877585 0.349702
H102  H     H_    0.837191 0.406452 0.062158 0.242706
H103  H     H_    0.875484 0.597560 0.121787 0.342418
H104  H     H_    0.618290 0.139160 0.877551 0.349325
H105  H     H_    0.375503 0.097585 0.121811 0.341077
H106  H     H_    0.506221 0.578062 0.582421 0.363194
H107  H     H_    0.522023 0.550373 0.473949 0.337421
H108  H     H_    0.007250 0.082942 0.584597 0.353329
H109  H     H_    0.015258 0.051988 0.474880 0.315167
H110  H     H_    0.449988 0.006021 0.362911 0.254956
H111  H     H_    0.405052 0.178067 0.392741 0.189593
H112  H     H_    0.456193 0.187051 0.471670 0.168424
N1    N     N_2   0.349486 0.897899 0.009138 -0.495434
N2    N     N_2   0.651018 0.450168 0.080538 -0.484227
N3    N     N_2   0.823537 0.918861 0.910269 -0.543283
N4    N     N_2   0.151065 0.950117 0.080614 -0.484278
N5    N     N_2   0.333888 0.411697 0.063445 -0.460034
N6    N     N_2   0.652036 0.439060 0.930682 -0.462600
N7    N     N_2   0.833869 0.911659 0.063424 -0.461104
N8    N     N_2   0.152058 0.938996 0.930733 -0.462488
N9    N     N_2   0.467720 0.031523 0.412727 -0.491262
N10   N     N_2   0.486034 0.053501 0.568404 -0.531962
N11   N     N_2   0.965166 0.531966 0.414782 -0.476739
N12   N     N_2   0.617874 0.740725 0.003237 -0.513298
N13   N     N_2   0.976590 0.555604 0.562439 -0.504834
N14   N     N_2   0.849505 0.397901 0.009067 -0.495514
N15   N     N_2   0.117909 0.240732 0.003279 -0.513315
N16   N     N_2   0.182620 0.784276 0.395130 -0.469120
N17   N     N_2   0.823833 0.786987 0.600846 -0.525922
N18   N     N_2   0.621996 0.150763 0.440638 -0.442621
N19   N     N_2   0.315469 0.289565 0.604008 -0.540858
N20   N     N_2   0.323525 0.418858 0.910285 -0.543318
O1    O     O_R   0.214270 0.709000 0.827470 -0.537977
O2    O     O_R   0.543270 0.717630 0.330160 -0.423337
O3    O     O_R   0.956730 0.217630 0.669840 -0.440257
O4    O     O_R   0.043270 0.217630 0.330160 -0.417725
O5    O     O_R   0.320620 0.625640 0.672920 -0.497730
O6    O     O_R   0.679380 0.625640 0.327080 -0.487030
O7    O     O_R   0.820620 0.125640 0.672920 -0.466014
O8    O     O_R   0.179380 0.125640 0.327080 -0.459953
O9    O     O_3   0.334280 0.834290 0.749180 -0.310217
O10   O     O_3   0.665720 0.834290 0.250820 -0.326499
O11   O     O_3   0.834280 0.334290 0.749180 -0.316777
O12   O     O_R   0.785730 0.709000 0.172530 -0.491218
O13   O     O_3   0.165720 0.334290 0.250820 -0.321638
O14   O     O_R   0.236160 0.958490 0.823130 -0.520809
O15   O     O_R   0.763840 0.958490 0.176870 -0.490746
O16   O     O_R   0.736160 0.458490 0.823130 -0.520973
O17   O     O_R   0.263840 0.458490 0.176870 -0.490913
O18   O     O_R   0.332080 0.075470 0.831280 -0.508689
O19   O     O_R   0.667920 0.075470 0.168720 -0.489925
O20   O     O_R   0.832080 0.575470 0.831280 -0.508515
O21   O     O_R   0.167920 0.575470 0.168720 -0.490999
O22   O     O_R   0.446300 0.918110 0.826620 -0.487732
O23   O     O_R   0.714270 0.209000 0.827470 -0.539250
O24   O     O_R   0.553700 0.918110 0.173380 -0.471451
O25   O     O_R   0.946300 0.418110 0.826620 -0.485747
O26   O     O_R   0.053700 0.418110 0.173380 -0.468955
O27   O     O_R   0.457110 0.716200 0.831760 -0.541913
O28   O     O_R   0.542890 0.716200 0.168240 -0.520247
O29   O     O_R   0.957110 0.216200 0.831760 -0.542641
O30   O     O_R   0.042890 0.216200 0.168240 -0.519832
O31   O     O_R   0.320980 0.624310 0.823030 -0.520448
O32   O     O_R   0.679020 0.624310 0.176970 -0.509503
O33   O     O_R   0.820980 0.124310 0.823030 -0.523049
O34   O     O_R   0.285730 0.209000 0.172530 -0.491330
O35   O     O_R   0.179020 0.124310 0.176970 -0.515177
O36   O     O_R   0.213890 0.710430 0.665540 -0.497226
O37   O     O_R   0.786110 0.710430 0.334460 -0.464245
O38   O     O_R   0.713890 0.210430 0.665540 -0.499834
O39   O     O_R   0.286110 0.210430 0.334460 -0.501745
O40   O     O_R   0.235810 0.959820 0.673020 -0.469581
O41   O     O_R   0.764190 0.959820 0.326980 -0.430360
O42   O     O_R   0.735810 0.459820 0.673020 -0.471661
O43   O     O_R   0.264190 0.459820 0.326980 -0.427451
O44   O     O_R   0.331700 0.076900 0.669350 -0.551945
O45   O     O_R   0.445950 0.919440 0.676520 -0.518477
O46   O     O_R   0.668300 0.076900 0.330650 -0.512173
O47   O     O_R   0.831700 0.576900 0.669350 -0.553419
O48   O     O_R   0.168300 0.576900 0.330650 -0.550257
O49   O     O_3   0.177515 0.797348 0.539749 -0.700560
O50   O     O_3   0.820694 0.811161 0.450921 -0.641367
O51   O     O_3   0.669705 0.287494 0.548091 -0.686967
O52   O     O_3   0.310466 0.322184 0.454012 -0.661516
O53   O     O_3   0.372030 0.523383 0.409420 -0.636457
O54   O     O_3   0.636713 0.502709 0.585484 -0.632803
O55   O     O_3   0.864425 0.033429 0.408549 -0.639388
O56   O     O_R   0.554050 0.919440 0.323480 -0.506560
O57   O     O_3   0.135998 0.999370 0.587977 -0.641010
O58   O     O_3   0.384203 0.560457 0.558110 -0.742286
O59   O     O_3   0.647035 0.501231 0.436224 -0.685020
O60   O     O_3   0.883793 0.071737 0.560970 -0.705513
O61   O     O_3   0.136697 0.017272 0.430915 -0.641875
O62   O     O_3   0.492094 0.056392 0.048971 -0.590227
O63   O     O_3   0.567480 0.951770 0.914675 -0.697181
O64   O     O_3   0.992092 0.556388 0.048960 -0.589704
O65   O     O_3   0.067535 0.451763 0.914691 -0.697094
O66   O     O_3   0.484841 0.599997 0.968323 -0.765570
O67   O     O_R   0.945950 0.419440 0.676520 -0.525223
O68   O     O_3   0.402256 0.701395 0.094280 -0.726552
O69   O     O_3   0.984917 0.099983 0.968327 -0.765531
O70   O     O_3   0.902324 0.201309 0.094267 -0.725363
O71   O     O_3   0.143899 0.702029 0.062439 -0.587218
O72   O     O_3   0.872586 0.668713 0.942031 -0.650526
O73   O     O_3   0.643854 0.201952 0.062404 -0.587510
O74   O     O_3   0.372581 0.168710 0.942043 -0.650732
O75   O     O_3   0.125416 0.670689 0.926102 -0.648242
O76   O     O_3   0.871699 0.650534 0.079363 -0.620275
O77   O     O_3   0.625410 0.170659 0.926065 -0.648351
O78   O     O_R   0.054050 0.419440 0.323480 -0.519015
O79   O     O_3   0.371712 0.150545 0.079381 -0.620316
O80   O     O_3   0.540362 0.643537 0.586546 -0.651071
O81   O     O_3   0.521831 0.615123 0.438551 -0.615930
O82   O     O_3   0.042160 0.147609 0.585736 -0.657281
O83   O     O_3   0.015762 0.115480 0.438543 -0.626884
O84   O     O_R   0.456730 0.717630 0.669840 -0.445728

loop_
_geom_bond_atom_site_label_1
_geom_bond_atom_site_label_2
_ccdc_geom_bond_type
C33   O19   A    
H57   O66   S    
C7    N15   S    
H44   O53   S    
C20   H95   S    
C111  C118  S    
H62   N20   S    
C5    N12   S    
C106  O37   A    
C90   C107  S    
Cr2   O10   S    
C117  N15   S    
C79   O53   S    
Cr9   O19   S    
C112  O64   S    
Cr10  O67   S    
C78   C96   S    
C89   C106  S    
C70   C74   A    
C68   C90   A    
C43   C110  A    
C103  O3    A    
H60   O69   S    
C59   C60   A    
C12   H64   S    
C69   O52   S    
C23   H11   S    
Cr9   O10   S    
C65   C87   A    
C16   N4    S    
C85   C90   A    
C66   C115  S    
C59   N11   S    
C29   N8    S    
C28   C32   A    
Cr2   O28   S    
C93   O12   A    
C31   C44   S    
Cr1   O1    S    
C99   C116  S    
Cr11  O21   S    
C81   O55   S    
C74   C100  S    
H107  O81   S    
C10   H39   S    
C61   O27   A    
C22   H7    S    
Cr4   O4    S    
C75   C98   S    
C10   N18   S    
C93   O32   A    
H35   N18   S    
C9    H32   S    
C26   N5    S    
C113  C120  S    
C78   C82   A    
C3    C112  S    
C68   C72   A    
H99   O73   S    
C25   H15   S    
H79   N5    S    
C62   C119  S    
Cr4   O35   S    
C74   C79   A    
C103  O67   A    
C4    H47   S    
C30   C55   S    
H102  N14   S    
C5    H80   S    
C61   C118  S    
C19   H92   S    
C56   C103  S    
H105  O79   S    
C53   C58   A    
C48   O80   S    
C94   O23   A    
C14   H67   S    
C28   N7    S    
C8    H30   S    
C38   O74   S    
Cr7   O34   S    
Cr6   O16   S    
C16   H78   S    
C58   N10   S    
C62   O24   A    
C4    N1    S    
C15   H74   S    
C7    H20   S    
C55   O17   A    
H108  O82   S    
C31   C36   A    
C23   H9    S    
H45   O54   S    
C21   H3    S    
Cr8   O44   S    
Cr8   O18   S    
C45   C93   S    
C3    C64   S    
C10   H37   S    
C101  O84   A    
C22   H5    S    
C9    H34   S    
C109  C111  S    
C5    H69   S    
C100  O48   A    
H22   O49   S    
C65   O49   S    
C20   N8    S    
C114  N1    S    
C99   O70   S    
C65   C70   A    
C63   O29   A    
Cr1   O36   S    
C20   H94   S    
C64   O26   A    
C12   N20   S    
H97   O71   S    
C6    H17   S    
C87   C105  S    
C88   O69   S    
C21   H111  S    
C25   N13   S    
H51   O60   S    
C39   O75   S    
C97   O46   A    
Cr3   O33   S    
C19   H90   S    
Cr4   O30   S    
Cr3   O11   S    
C1    C34   S    
C54   C59   A    
C2    C45   A    
C48   C53   A    
Cr8   O9    S    
H48   O57   S    
C88   C99   S    
C77   O68   S    
H56   O65   S    
C49   O81   S    
C61   O22   A    
C73   C78   A    
C50   C56   A    
Cr8   O45   S    
C116  C120  S    
C8    N16   S    
H106  O80   S    
H12   N13   S    
Cr3   O3    S    
H18   N15   S    
C4    H25   S    
C46   C94   S    
C67   O50   S    
C83   O58   S    
Cr12  O27   S    
H8    N11   S    
C32   C37   A    
Cr11  O78   S    
H46   O55   S    
C25   H14   S    
C109  C114  S    
C113  C117  S    
C26   C30   A    
C115  C119  S    
H88   N7    S    
Cr2   O32   S    
C17   H82   S    
Cr3   O29   S    
C112  C116  S    
Cr2   O2    S    
Cr3   O7    S    
Cr4   O8    S    
C11   H42   S    
C50   O82   S    
C97   O41   A    
C43   C92   S    
C20   H96   S    
C19   N7    S    
C57   C58   A    
C44   O16   A    
Cr12  O9    S    
C14   H70   S    
Cr10  O25   S    
C17   N5    S    
Cr5   O41   S    
C21   N9    S    
Cr9   O56   S    
C3    C99   S    
H71   N3    S    
C36   O72   S    
C98   O47   A    
H110  N9    S    
C96   O40   A    
C69   C91   A    
C81   C85   A    
C73   N19   S    
H1    N1    S    
H23   O50   S    
C18   H86   S    
C83   C87   A    
C80   C84   A    
C52   C102  S    
C54   C104  S    
C86   C91   A    
C44   O20   A    
C55   O21   A    
H52   O61   S    
C24   C29   A    
C3    C117  S    
C100  O43   A    
C115  N12   S    
C53   C101  S    
Cr12  O84   S    
C13   C28   A    
C69   C73   A    
C2    C27   A    
C105  O36   A    
H100  O74   S    
C88   C120  S    
C41   O77   S    
C70   N16   S    
H58   N12   S    
Cr5   O10   S    
C105  O5    A    
C40   C45   A    
H54   O63   S    
Cr1   O40   S    
C84   O59   S    
C107  O7    A    
C108  O8    A    
Cr1   O14   S    
Cr12  O5    S    
C6    H13   S    
C16   H76   S    
C76   C97   S    
C82   C86   A    
C27   C31   A    
C29   C34   A    
C56   C60   A    
C68   O51   S    
H26   O52   S    
C60   N13   S    
C35   C39   A    
H53   O62   S    
C92   O31   A    
H55   O64   S    
C49   C52   A    
Cr7   O43   S    
C50   C51   A    
Cr7   O13   S    
C15   H73   S    
C7    H19   S    
C92   O1    A    
C48   C49   A    
C13   N3    S    
C15   N3    S    
H93   N8    S    
C12   H63   S    
C62   O28   A    
C77   C114  S    
C8    H28   S    
C116  N14   S    
C109  C119  S    
C16   H77   S    
H50   O59   S    
C72   N18   S    
C91   C108  S    
Cr4   O13   S    
Cr6   O42   S    
C10   H38   S    
Cr11  O48   S    
C22   H6    S    
C11   H43   S    
H101  O75   S    
Cr12  O31   S    
C6    N14   S    
C32   C33   S    
H40   N19   S    
C9    H33   S    
C2    N2    S    
C1    O14   A    
C79   C83   A    
H49   O58   S    
C37   O73   S    
C1    O18   A    
C14   H68   S    
H66   N2    S    
C25   H16   S    
C67   C71   A    
C66   C77   S    
Cr1   O9    S    
Cr11  O13   S    
C52   C57   A    
Cr2   O6    S    
Cr8   O22   S    
C108  O39   A    
C4    H36   S    
H84   N6    S    
H24   O51   S    
C82   O57   S    
H61   O70   S    
C80   O54   S    
Cr5   O12   S    
C71   N17   S    
C102  O56   A    
Cr6   O11   S    
H27   N16   S    
C98   O42   A    
C19   H89   S    
C72   C76   A    
H75   N4    S    
C15   H72   S    
C104  O78   A    
C30   C35   A    
C57   N9    S    
H4    N10   S    
C27   N6    S    
C38   C42   A    
C8    H29   S    
Cr7   O39   S    
C13   C46   A    
C67   C89   A    
C40   O76   S    
Cr10  O20   S    
Cr6   O38   S    
C41   C46   A    
C23   H10   S    
C11   N19   S    
C75   C80   A    
C26   C110  A    
C110  N20   S    
Cr6   O23   S    
C37   C41   A    
H31   N17   S    
C17   H81   S    
C18   H87   S    
C35   O71   S    
C112  C113  S    
Cr10  O47   S    
C11   H41   S    
H59   O68   S    
C36   C40   A    
C23   N11   S    
C39   C43   A    
C42   O79   S    
Cr5   O15   S    
H98   O72   S    
C9    N17   S    
C85   O60   S    
C107  O38   A    
C113  O65   S    
C7    H21   S    
C12   H65   S    
C109  O62   S    
C114  C118  S    
C21   H112  S    
C5    H91   S    
C106  O6    A    
C102  O2    A    
C24   N4    S    
C84   C89   A    
C86   O61   S    
C66   O66   S    
C33   O15   A    
Cr11  O26   S    
C51   O83   S    
C34   C38   A    
C24   C47   A    
C95   O35   A    
Cr9   O24   S    
C104  O4    A    
C77   C119  S    
C76   C81   A    
C111  C115  S    
Cr9   O46   S    
H104  O77   S    
C51   C54   A    
Cr7   O17   S    
C88   C117  S    
Cr5   O37   S    
C6    H2    S    
C96   O44   A    
C71   C75   A    
C63   C120  S    
C18   N6    S    
C95   O34   A    
C42   C47   A    
C94   O33   A    
C22   N10   S    
C101  O45   A    
C66   C118  S    
C63   O25   A    
C47   C95   S    
C64   O30   A    
H103  O76   S    
C111  O63   S    
Cr10  O11   S    
C17   H83   S    
C18   H85   S    
H109  O83   S    
C14   N2    S    
