data_mof_unit_65295.cif
_audit_creation_date              2012-12-11T14:21:23-0500
_audit_creation_method            fapswitch 2.2
_symmetry_space_group_name_H-M    P1
_symmetry_Int_Tables_number       1
_space_group_crystal_system       triclinic
_cell_length_a                    11.811328
_cell_length_b                    11.838481
_cell_length_c                    19.485042
_cell_angle_alpha                 90.954312
_cell_angle_beta                  90.197713
_cell_angle_gamma                 60.121562
_cell_volume                      2362.05683333

loop_
_atom_site_label
_atom_site_type_symbol
_atom_type_description
_atom_site_fract_x
_atom_site_fract_y
_atom_site_fract_z
_atom_type_partial_charge
C1    C     C_R   0.638996 0.115298 0.599542 0.525097
C2    C     C_1   0.652036 0.148097 0.668831 0.015172
C3    C     C_R   0.685526 0.591057 0.205700 -0.016252
C4    C     C_R   0.610337 0.749835 0.598981 0.557234
C5    C     C_R   0.619967 0.551349 0.254894 -0.048833
C6    C     C_R   0.634839 0.570103 0.325703 -0.119591
C7    C     C_R   0.717760 0.717124 0.293988 0.278017
C8    C     C_R   0.724806 0.680644 0.225568 0.245752
C9    C     C_R   0.525284 0.512633 0.238863 0.260126
C10   C     C_R   0.468128 0.476917 0.290855 -0.077803
C11   C     C_R   0.503513 0.473304 0.358592 0.267804
C12   C     C_1   0.639448 0.707078 0.668212 0.018920
C13   C     C_R   0.588261 0.516965 0.377186 0.098292
C14   C     C_R   0.671636 0.662416 0.342846 -0.009226
C15   C     C_R   0.141560 0.211203 0.192613 0.016447
C16   C     C_R   0.242833 0.144823 0.597929 0.542779
C17   C     C_R   0.117396 0.312600 0.240520 -0.035153
C18   C     C_R   0.111378 0.292280 0.310843 -0.040135
C19   C     C_R   0.222248 0.057342 0.283109 0.103528
C20   C     C_R   0.204548 0.083599 0.212883 0.086262
C21   C     C_R   0.118942 0.426101 0.221592 -0.125772
C22   C     C_R   0.097839 0.521805 0.269937 -0.155283
C23   C     C_1   0.125168 0.199579 0.859384 0.010933
C24   C     C_R   0.058329 0.518163 0.336538 0.290777
C25   C     C_R   0.061434 0.402497 0.357331 0.296259
C26   C     C_R   0.177127 0.161489 0.333629 -0.020635
C27   C     C_R   0.715871 0.211274 0.205565 0.006790
C28   C     C_R   0.644964 0.111626 0.403438 0.625988
C29   C     C_R   0.819912 0.153079 0.254526 -0.130851
C30   C     C_R   0.793736 0.140480 0.324317 -0.082962
C31   C     C_R   0.583225 0.177212 0.285216 0.065768
C32   C     C_R   0.599672 0.212115 0.219878 0.096225
C33   C     C_R   0.948461 0.071285 0.232261 -0.173110
C34   C     C_1   0.171508 0.171241 0.727459 -0.027961
C35   C     C_R   0.027571 0.958738 0.269519 0.252576
C36   C     C_R   0.014167 0.969088 0.340992 0.178391
C37   C     C_R   0.902250 0.071896 0.370075 0.227459
C38   C     C_R   0.670573 0.156339 0.339186 0.030753
C39   C     C_R   0.079721 0.232291 0.928743 0.563062
C40   C     C_R   0.618701 0.738081 0.404466 0.626567
C41   C     C_R   0.684639 0.602202 0.929670 0.548914
C42   C     C_R   0.709599 0.207069 0.930441 0.562338
C43   C     C_R   0.080123 0.240535 0.125339 0.561460
C44   C     C_R   0.706858 0.551157 0.133056 0.558651
C45   C     C_1   0.149250 0.183141 0.798877 -0.027532
C46   C     C_R   0.739353 0.233943 0.134402 0.548309
C47   C     C_R   0.243361 0.138930 0.401557 0.614627
C48   C     C_1   0.670418 0.645160 0.860469 0.011305
C49   C     C_1   0.653428 0.685575 0.728659 -0.027423
C50   C     C_1   0.662818 0.666710 0.800033 -0.027986
C51   C     C_3   0.827249 0.836552 0.287698 -0.009466
C52   C     C_3   0.988657 0.629411 0.445406 -0.027687
C53   C     C_3   0.941016 0.356952 0.430322 -0.158421
C54   C     C_3   0.058381 0.824923 0.173973 -0.137773
C55   C     C_3   0.817445 0.191375 0.472220 -0.083503
C56   C     C_1   0.196144 0.161582 0.667046 0.007810
C57   C     C_3   0.355570 0.593196 0.162839 -0.047557
C58   C     C_3   0.645250 0.847636 0.148467 -0.052732
C59   C     C_3   0.337499 0.490839 0.425794 -0.048022
C60   C     C_1   0.679730 0.190499 0.861226 0.009584
C61   C     C_1   0.658288 0.165864 0.729311 -0.025256
C62   C     C_1   0.666260 0.179713 0.800725 -0.028345
Cr1   Cr    Cr6+3 0.404720 0.198220 0.499960 1.063244
Cr2   Cr    Cr6+3 0.698290 0.897110 0.500380 1.049863
Cr3   Cr    Cr6+3 0.396970 0.904720 0.499610 1.107649
Cr4   Cr    Cr6+3 0.926180 0.151990 0.028120 1.020908
Cr5   Cr    Cr6+3 0.921330 0.451820 0.027470 1.041084
Cr6   Cr    Cr6+3 0.626260 0.446870 0.028710 1.072218
H1    H     H_    0.111029 0.601865 0.255317 0.151365
H2    H     H_    0.955075 0.727486 0.468252 0.162135
H3    H     H_    0.858218 0.414075 0.395351 0.116729
H4    H     H_    0.904975 0.377972 0.483917 0.163628
H5    H     H_    0.982727 0.251614 0.419847 0.141509
H6    H     H_    0.092565 0.862262 0.131750 0.159691
H7    H     H_    0.950185 0.873131 0.172878 0.136675
H8    H     H_    0.092895 0.721203 0.162555 0.101042
H9    H     H_    0.775979 0.270197 0.434584 0.117401
H10   H     H_    0.877316 0.207229 0.510867 0.132452
H11   H     H_    0.736172 0.193867 0.501110 0.178812
H12   H     H_    0.978460 0.071397 0.181231 0.195450
H13   H     H_    0.337417 0.607265 0.106911 0.149023
H14   H     H_    0.326408 0.689558 0.186439 0.210883
H15   H     H_    0.295985 0.552235 0.182529 0.104594
H16   H     H_    0.668908 0.922431 0.131393 0.162016
H17   H     H_    0.562698 0.895418 0.185373 0.191572
H18   H     H_    0.614220 0.813313 0.102663 0.176796
H19   H     H_    0.328861 0.568042 0.461989 0.163810
H20   H     H_    0.272290 0.532131 0.381021 0.161895
H21   H     H_    0.305927 0.430591 0.453842 0.170394
H22   H     H_    0.401039 0.442739 0.277792 0.141898
H23   H     H_    0.149736 0.437198 0.171291 0.181561
H24   H     H_    0.876207 0.851917 0.331973 0.201566
H25   H     H_    0.793011 0.920565 0.253298 0.134764
H26   H     H_    0.900474 0.748655 0.260267 0.159714
H27   H     H_    0.073273 0.559430 0.476151 0.137748
H28   H     H_    0.904837 0.612658 0.449128 0.178196
I1    I     I_    0.465660 0.096363 0.291995 -0.292739
I2    I     I_    0.459189 0.237855 0.140013 -0.337327
I3    I     I_    0.138498 0.820620 0.408672 -0.266513
I4    I     I_    0.619503 0.511518 0.487463 -0.415294
I5    I     I_    0.349941 0.859302 0.300698 -0.254715
I6    I     I_    0.300537 0.938008 0.131667 -0.368114
O1    O     O_R   0.267740 0.231960 0.575440 -0.507787
O2    O     O_R   0.596130 0.579390 0.952730 -0.500726
O3    O     O_R   0.639060 0.321160 0.958670 -0.485211
O4    O     O_R   0.527280 0.186640 0.570530 -0.500991
O5    O     O_R   0.821240 0.124200 0.104370 -0.540034
O6    O     O_R   0.036890 0.167040 0.097840 -0.517564
O7    O     O_R   0.056180 0.349610 0.102880 -0.522470
O8    O     O_R   0.797660 0.564870 0.097950 -0.460159
O9    O     O_R   0.595880 0.584250 0.104270 -0.454885
O10   O     O_R   0.638830 0.325670 0.099150 -0.413814
O11   O     O_3   0.824590 0.350230 0.028100 -0.330537
O12   O     O_R   0.685970 0.784660 0.430010 -0.480988
O13   O     O_R   0.728090 0.003450 0.576380 -0.503634
O14   O     O_R   0.682970 0.789190 0.570490 -0.520379
O15   O     O_R   0.499290 0.771880 0.575530 -0.478600
O16   O     O_R   0.285330 0.030870 0.569730 -0.492493
O17   O     O_R   0.270980 0.227080 0.423890 -0.463435
O18   O     O_R   0.530280 0.182120 0.430050 -0.446126
O19   O     O_R   0.731330 0.998570 0.424830 -0.461314
O20   O     O_3   0.718016 0.831351 0.311713 -0.530759
O21   O     O_3   0.025466 0.629453 0.376758 -0.606419
O22   O     O_3   0.037836 0.390680 0.425317 -0.589193
O23   O     O_R   0.502530 0.767000 0.423990 -0.450567
O24   O     O_3   0.109368 0.838652 0.237987 -0.561478
O25   O     O_3   0.894092 0.068544 0.441374 -0.537326
O26   O     O_3   0.488678 0.505428 0.172831 -0.520555
O27   O     O_3   0.758586 0.743846 0.177123 -0.582522
O28   O     O_3   0.468212 0.411420 0.406005 -0.561604
O29   O     O_R   0.288330 0.026350 0.429250 -0.461329
O30   O     O_3   0.499990 0.000020 0.499980 -0.290477
O31   O     O_R   0.821500 0.119340 0.952830 -0.498849
O32   O     O_R   0.037130 0.162530 0.957360 -0.482884
O33   O     O_R   0.056440 0.344740 0.951340 -0.497895
O34   O     O_R   0.797900 0.560360 0.957470 -0.495281

loop_
_geom_bond_atom_site_label_1
_geom_bond_atom_site_label_2
_ccdc_geom_bond_type
C58   H17   S    
C59   O28   S    
C34   C56   T    
Cr2   O14   S    
Cr4   O11   S    
C46   O10   A    
C27   C29   A    
C11   C13   A    
C35   C36   A    
C18   C26   A    
C42   O3    A    
Cr4   O5    S    
C57   O26   S    
C12   C49   T    
C7    C8    A    
C39   O33   A    
C54   O24   S    
C42   O31   A    
C23   C45   T    
C36   C37   A    
C16   O16   A    
C59   H21   S    
C5    C6    A    
C55   H9    S    
C52   O21   S    
C20   I6    S    
C58   O27   S    
Cr2   O19   S    
C29   C33   A    
Cr1   O17   S    
C30   C38   A    
C52   H27   S    
C60   C62   T    
C1    C2    S    
Cr6   O10   S    
C19   C26   A    
C59   H20   S    
Cr5   O8    S    
C54   H6    S    
Cr5   O7    S    
C7    C14   A    
C40   O12   A    
Cr2   O30   S    
Cr3   O16   S    
C57   H15   S    
C4    C12   S    
C9    C10   A    
C22   H1    S    
C2    C61   T    
Cr6   O11   S    
C47   O17   A    
Cr2   O13   S    
Cr4   O32   S    
C21   C22   A    
C18   C25   A    
C58   H18   S    
Cr3   O29   S    
C15   C20   A    
C3    C44   S    
C9    O26   S    
Cr2   O12   S    
C24   C25   A    
Cr1   O1    S    
C3    C8    A    
C28   O18   A    
C42   C60   S    
C55   H10   S    
C28   O19   A    
C24   O21   S    
C17   C21   A    
C30   C37   A    
C47   O29   A    
Cr6   O9    S    
Cr3   O23   S    
C35   O24   S    
Cr5   O33   S    
C16   C56   S    
C5    C9    A    
C29   C30   A    
C58   H16   S    
C51   H24   S    
C6    C14   A    
Cr4   O31   S    
C55   H11   S    
C16   O1    A    
C31   C32   A    
C28   C38   S    
C46   O5    A    
C17   C18   A    
C34   C45   S    
Cr1   O30   S    
Cr1   O4    S    
C26   C47   S    
C51   H25   S    
C54   H8    S    
C27   C46   S    
C55   O25   S    
C22   C24   A    
C4    O15   A    
Cr6   O3    S    
C7    O20   S    
C53   H3    S    
C11   O28   S    
Cr3   O30   S    
C21   H23   S    
C15   C17   A    
C27   C32   A    
C4    O14   A    
C53   H5    S    
Cr6   O2    S    
Cr4   O6    S    
C3    C5    A    
C53   O22   S    
C41   O2    A    
C33   H12   S    
C43   O7    A    
C1    O4    A    
C31   C38   A    
C19   C20   A    
Cr5   O34   S    
Cr5   O11   S    
C15   C43   S    
C6    C13   A    
Cr1   O18   S    
C19   I5    S    
C13   I4    S    
C23   C39   S    
C40   O23   A    
C48   C50   T    
C33   C35   A    
C41   C48   S    
C32   I2    S    
C52   H28   S    
C36   I3    S    
C57   H13   S    
C43   O6    A    
C31   I1    S    
C61   C62   S    
C25   O22   S    
C59   H19   S    
C52   H2    S    
C10   C11   A    
C51   H26   S    
C14   C40   S    
C54   H7    S    
C44   O9    A    
C10   H22   S    
C49   C50   S    
C8    O27   S    
C51   O20   S    
Cr3   O15   S    
C57   H14   S    
C1    O13   A    
C53   H4    S    
C41   O34   A    
C37   O25   S    
C39   O32   A    
C44   O8    A    
