data_mof_unit_20801.cif
_audit_creation_date              2012-12-11T14:44:03-0500
_audit_creation_method            fapswitch 2.2
_symmetry_space_group_name_H-M    P1
_symmetry_Int_Tables_number       1
_space_group_crystal_system       triclinic
_cell_length_a                    18.873225
_cell_length_b                    11.007088
_cell_length_c                    18.713702
_cell_angle_alpha                 89.790368
_cell_angle_beta                  89.938237
_cell_angle_gamma                 90.151059
_cell_volume                      3887.52855748

loop_
_atom_site_label
_atom_site_type_symbol
_atom_type_description
_atom_site_fract_x
_atom_site_fract_y
_atom_site_fract_z
_atom_type_partial_charge
C1    C     C_R   0.730901 0.379964 0.146660 0.540135
C2    C     C_R   0.269115 0.379788 0.853374 0.534195
C3    C     C_R   0.230901 0.879964 0.146660 0.540135
C4    C     C_R   0.769115 0.879788 0.853374 0.534195
C5    C     C_R   0.525773 0.380150 0.927808 0.007686
C6    C     C_R   0.475029 0.380313 0.070266 0.005650
C7    C     C_R   0.025773 0.880150 0.927808 0.007686
C8    C     C_R   0.975029 0.880313 0.070266 0.005650
C9    C     C_R   0.011041 0.991443 0.962284 0.033491
C10   C     C_R   0.989503 0.991560 0.034942 0.032912
C11   C     C_R   0.511041 0.491443 0.962284 0.033491
C12   C     C_R   0.489503 0.491560 0.034942 0.032912
C13   C     C_R   0.680490 0.920028 0.030546 -0.127269
C14   C     C_R   0.319711 0.920705 0.969610 -0.127803
C15   C     C_R   0.180490 0.420028 0.030546 -0.127269
C16   C     C_R   0.819712 0.420705 0.969610 -0.127803
C17   C     C_R   0.689682 0.888595 0.959160 -0.151175
C18   C     C_R   0.310406 0.889210 0.041083 -0.150834
C19   C     C_R   0.189682 0.388595 0.959160 -0.151175
C20   C     C_R   0.810405 0.389210 0.041083 -0.150834
C21   C     C_R   0.746299 0.936481 0.920172 0.009031
C22   C     C_R   0.253905 0.937056 0.079836 0.009239
C23   C     C_R   0.246299 0.436481 0.920172 0.009031
C24   C     C_R   0.753905 0.437056 0.079836 0.009239
C25   C     C_R   0.789332 0.026603 0.951009 -0.124922
C26   C     C_R   0.211155 0.027224 0.048719 -0.125725
C27   C     C_R   0.289332 0.526602 0.951009 -0.124923
C28   C     C_R   0.711156 0.527224 0.048719 -0.125724
C29   C     C_R   0.780975 0.056833 0.022209 -0.146438
C30   C     C_R   0.219565 0.057396 0.977407 -0.145788
C31   C     C_R   0.280975 0.556833 0.022209 -0.146438
C32   C     C_R   0.719565 0.557396 0.977408 -0.145788
C33   C     C_R   0.728798 0.999567 0.063408 0.004115
C34   C     C_R   0.271573 0.000120 0.936461 0.006352
C35   C     C_R   0.228798 0.499567 0.063408 0.004115
C36   C     C_R   0.771573 0.500120 0.936461 0.006352
C37   C     C_R   0.525908 0.056557 0.470779 -0.131792
C38   C     C_R   0.520909 0.060917 0.543666 -0.135186
C39   C     C_R   0.025908 0.556558 0.470779 -0.131792
C40   C     C_R   0.020909 0.560917 0.543666 -0.135185
C41   C     C_R   0.499238 0.167970 0.576670 0.028815
C42   C     C_R   0.514833 0.161515 0.429498 0.034376
C43   C     C_R   0.999238 0.667970 0.576670 0.028815
C44   C     C_R   0.014833 0.661515 0.429498 0.034376
C45   C     C_R   0.531238 0.154692 0.146726 0.529544
C46   C     C_R   0.468908 0.154592 0.853113 0.525657
C47   C     C_R   0.031238 0.654692 0.146726 0.529544
C48   C     C_R   0.968908 0.654592 0.853113 0.525657
C49   C     C_R   0.490172 0.274867 0.536355 -0.138507
C50   C     C_R   0.498573 0.271742 0.462612 -0.144090
C51   C     C_R   0.990172 0.774868 0.536355 -0.138507
C52   C     C_R   0.998573 0.771742 0.462612 -0.144090
C53   C     C_R   0.776628 0.062405 0.480681 -0.132944
C54   C     C_R   0.183135 0.927284 0.543928 -0.137548
C55   C     C_R   0.276628 0.562405 0.480681 -0.132944
C56   C     C_R   0.683135 0.427284 0.543928 -0.137548
C57   C     C_R   0.784061 0.032995 0.552287 -0.128560
C58   C     C_R   0.177593 0.917398 0.471069 -0.123351
C59   C     C_R   0.284061 0.532995 0.552287 -0.128560
C60   C     C_R   0.677593 0.417398 0.471069 -0.123351
C61   C     C_R   0.745710 0.935198 0.581452 0.026169
C62   C     C_R   0.238371 0.898254 0.428999 0.033786
C63   C     C_R   0.245710 0.435198 0.581452 0.026169
C64   C     C_R   0.738371 0.398254 0.428999 0.033786
C65   C     C_R   0.694546 0.875586 0.540189 -0.140902
C66   C     C_R   0.304528 0.883877 0.460868 -0.154889
C67   C     C_R   0.194546 0.375586 0.540189 -0.140902
C68   C     C_R   0.804528 0.383877 0.460868 -0.154888
C69   C     C_R   0.686829 0.905711 0.468572 -0.134113
C70   C     C_R   0.310252 0.894835 0.534331 -0.137202
C71   C     C_R   0.186829 0.405710 0.468572 -0.134113
C72   C     C_R   0.810252 0.394835 0.534331 -0.137202
C73   C     C_R   0.730014 0.996041 0.437843 0.028393
C74   C     C_R   0.249698 0.921018 0.575544 0.029887
C75   C     C_R   0.230014 0.496041 0.437843 0.028393
C76   C     C_R   0.749698 0.421018 0.575544 0.029887
C77   C     C_R   0.726636 0.022270 0.140302 0.560792
C78   C     C_R   0.273527 0.022351 0.859483 0.559274
C79   C     C_R   0.226636 0.522270 0.140302 0.560792
C80   C     C_R   0.773527 0.522351 0.859483 0.559274
C81   C     C_R   0.728080 0.374677 0.354072 0.541430
C82   C     C_R   0.269088 0.381491 0.648620 0.547265
C83   C     C_R   0.228080 0.874677 0.354072 0.541430
C84   C     C_R   0.769088 0.881491 0.648620 0.547265
C85   C     C_R   0.534377 0.156280 0.354854 0.534194
C86   C     C_R   0.468766 0.157719 0.647259 0.540881
C87   C     C_R   0.034377 0.656280 0.354854 0.534194
C88   C     C_R   0.968766 0.657719 0.647259 0.540881
C89   C     C_R   0.727025 0.022339 0.361564 0.561334
C90   C     C_R   0.258370 0.969861 0.646275 0.552580
C91   C     C_R   0.227025 0.522339 0.361564 0.561334
C92   C     C_R   0.758370 0.469860 0.646275 0.552580
C93   C     C_R   0.499000 0.159513 0.925213 0.004966
C94   C     C_R   0.501767 0.159728 0.074298 0.003847
C95   C     C_R   0.999000 0.659512 0.925213 0.004966
C96   C     C_R   0.001767 0.659728 0.074298 0.003847
C97   C     C_R   0.506571 0.270499 0.962249 0.007591
C98   C     C_R   0.494505 0.270637 0.036656 0.006350
C99   C     C_R   0.006572 0.770499 0.962249 0.007591
C100  C     C_R   0.994505 0.770637 0.036656 0.006350
C101  C     C_R   0.501734 0.050350 0.036470 -0.149444
C102  C     C_R   0.499187 0.050215 0.963483 -0.149816
C103  C     C_R   0.001734 0.550350 0.036470 -0.149444
C104  C     C_R   0.999187 0.550215 0.963483 -0.149816
Cr1   Cr    Cr6+3 0.772000 0.169640 0.250110 1.010826
Cr2   Cr    Cr6+3 0.228000 0.169640 0.749890 1.013292
Cr3   Cr    Cr6+3 0.272000 0.669640 0.250110 1.010826
Cr4   Cr    Cr6+3 0.728000 0.669640 0.749890 1.013292
Cr5   Cr    Cr6+3 0.614960 0.323350 0.249260 1.037778
Cr6   Cr    Cr6+3 0.385040 0.323350 0.750740 1.041055
Cr7   Cr    Cr6+3 0.114960 0.823350 0.249260 1.037778
Cr8   Cr    Cr6+3 0.885040 0.823350 0.750740 1.041055
Cr9   Cr    Cr6+3 0.616670 0.010620 0.250840 1.026667
Cr10  Cr    Cr6+3 0.383330 0.010620 0.749160 1.025453
Cr11  Cr    Cr6+3 0.116670 0.510620 0.250840 1.026667
Cr12  Cr    Cr6+3 0.883330 0.510620 0.749160 1.025453
H1    H     H_    0.506138 0.963477 0.063009 0.155065
H2    H     H_    0.494821 0.963246 0.937323 0.156819
H3    H     H_    0.006138 0.463477 0.063009 0.155065
H4    H     H_    0.994821 0.463246 0.937323 0.156819
H5    H     H_    0.809417 0.133523 0.458026 0.130599
H6    H     H_    0.135988 0.946521 0.574986 0.127385
H7    H     H_    0.309416 0.633523 0.458026 0.130599
H8    H     H_    0.635988 0.446521 0.574986 0.127385
H9    H     H_    0.823234 0.081498 0.583497 0.133495
H10   H     H_    0.125214 0.923978 0.447862 0.140538
H11   H     H_    0.323234 0.581498 0.583497 0.133495
H12   H     H_    0.625214 0.423978 0.447862 0.140538
H13   H     H_    0.664211 0.800117 0.561640 0.132624
H14   H     H_    0.351293 0.865312 0.429141 0.123081
H15   H     H_    0.164211 0.300116 0.561640 0.132624
H16   H     H_    0.851293 0.365312 0.429141 0.123081
H17   H     H_    0.649639 0.854071 0.436739 0.132317
H18   H     H_    0.362505 0.890189 0.558074 0.140601
H19   H     H_    0.149639 0.354071 0.436739 0.132317
H20   H     H_    0.862505 0.390189 0.558074 0.140601
H21   H     H_    0.638232 0.877022 0.060646 0.165587
H22   H     H_    0.361806 0.877669 0.939664 0.166483
H23   H     H_    0.138232 0.377022 0.060646 0.165587
H24   H     H_    0.861806 0.377669 0.939664 0.166483
H25   H     H_    0.655941 0.821275 0.935582 0.159202
H26   H     H_    0.343842 0.821664 0.064912 0.156805
H27   H     H_    0.155941 0.321275 0.935582 0.159202
H28   H     H_    0.843842 0.321664 0.064912 0.156805
H29   H     H_    0.832876 0.067653 0.921803 0.176571
H30   H     H_    0.167713 0.068164 0.077768 0.176572
H31   H     H_    0.332876 0.567653 0.921803 0.176571
H32   H     H_    0.667713 0.568164 0.077768 0.176572
H33   H     H_    0.817783 0.120005 0.046045 0.159803
H34   H     H_    0.182834 0.120344 0.953286 0.159787
H35   H     H_    0.317783 0.620004 0.046045 0.159803
H36   H     H_    0.682834 0.620344 0.953286 0.159787
H37   H     H_    0.539967 0.970343 0.447149 0.132794
H38   H     H_    0.528969 0.977605 0.573607 0.131697
H39   H     H_    0.039967 0.470343 0.447149 0.132794
H40   H     H_    0.028970 0.477605 0.573607 0.131697
H41   H     H_    0.473086 0.358657 0.561094 0.134990
H42   H     H_    0.491826 0.354239 0.431654 0.125808
H43   H     H_    0.973086 0.858657 0.561094 0.134990
H44   H     H_    0.991826 0.854239 0.431654 0.125808
O1    O     O_R   0.787540 0.042690 0.170470 -0.532797
O2    O     O_R   0.212460 0.042690 0.829530 -0.540274
O3    O     O_R   0.287540 0.542690 0.170470 -0.532797
O4    O     O_R   0.712460 0.542690 0.829530 -0.540274
O5    O     O_R   0.556540 0.252920 0.323970 -0.510877
O6    O     O_R   0.443460 0.252920 0.676030 -0.507388
O7    O     O_R   0.056540 0.752920 0.323970 -0.510877
O8    O     O_R   0.943460 0.752920 0.676030 -0.507388
O9    O     O_R   0.545870 0.051100 0.330840 -0.531102
O10   O     O_R   0.454130 0.051100 0.669160 -0.523255
O11   O     O_R   0.045870 0.551100 0.330840 -0.531102
O12   O     O_R   0.954130 0.551100 0.669160 -0.523255
O13   O     O_R   0.681340 0.959300 0.325510 -0.497030
O14   O     O_R   0.318660 0.959300 0.674490 -0.500592
O15   O     O_R   0.181340 0.459300 0.325510 -0.497030
O16   O     O_R   0.818660 0.459300 0.674490 -0.500592
O17   O     O_3   0.667880 0.167870 0.250070 -0.292227
O18   O     O_3   0.332120 0.167870 0.749930 -0.265790
O19   O     O_3   0.167880 0.667870 0.250070 -0.292227
O20   O     O_3   0.832120 0.667870 0.749930 -0.265790
O21   O     O_R   0.765660 0.292160 0.175050 -0.520332
O22   O     O_R   0.234340 0.292160 0.824950 -0.522996
O23   O     O_R   0.265660 0.792160 0.175050 -0.520332
O24   O     O_R   0.734340 0.792160 0.824950 -0.522996
O25   O     O_R   0.670190 0.408980 0.168550 -0.491063
O26   O     O_R   0.329810 0.408980 0.831450 -0.495093
O27   O     O_R   0.170190 0.908980 0.168550 -0.491063
O28   O     O_R   0.829810 0.908980 0.831450 -0.495093
O29   O     O_R   0.556580 0.251450 0.175160 -0.494755
O30   O     O_R   0.443420 0.251450 0.824840 -0.497861
O31   O     O_R   0.056580 0.751450 0.175160 -0.494755
O32   O     O_R   0.943420 0.751450 0.824840 -0.497861
O33   O     O_R   0.545920 0.049510 0.170320 -0.528906
O34   O     O_R   0.454080 0.049510 0.829680 -0.532089
O35   O     O_R   0.045920 0.549510 0.170320 -0.528906
O36   O     O_R   0.954080 0.549510 0.829680 -0.532089
O37   O     O_R   0.681390 0.957840 0.176710 -0.492378
O38   O     O_R   0.318610 0.957840 0.823290 -0.501343
O39   O     O_R   0.181390 0.457840 0.176710 -0.492379
O40   O     O_R   0.818610 0.457840 0.823290 -0.501343
O41   O     O_R   0.787500 0.044280 0.330990 -0.508413
O42   O     O_R   0.212500 0.044280 0.669010 -0.519225
O43   O     O_R   0.287500 0.544280 0.330990 -0.508413
O44   O     O_R   0.712500 0.544280 0.669010 -0.519225
O45   O     O_R   0.765610 0.293630 0.323860 -0.522142
O46   O     O_R   0.234390 0.293630 0.676140 -0.502466
O47   O     O_R   0.265610 0.793630 0.323860 -0.522142
O48   O     O_R   0.734390 0.793630 0.676140 -0.502466
O49   O     O_R   0.670140 0.410570 0.329080 -0.515411
O50   O     O_R   0.329860 0.410570 0.670920 -0.516929
O51   O     O_R   0.170140 0.910570 0.329080 -0.515411
O52   O     O_R   0.829860 0.910570 0.670920 -0.516930
C105  C     C_3   0.575580 0.378597 0.862962 -0.247056
C106  C     C_3   0.640230 0.296745 0.874785 -0.427289
H45   H     H_    0.679437 0.311723 0.831405 0.175147
H46   H     H_    0.665489 0.316763 0.926984 0.173190
H47   H     H_    0.625465 0.199310 0.873329 0.143382
H48   H     H_    0.549141 0.352413 0.812812 0.173986
H49   H     H_    0.595851 0.470846 0.852187 0.194536
C107  C     C_3   0.424683 0.378579 0.134684 -0.245511
C108  C     C_3   0.360109 0.296180 0.122703 -0.425069
H50   H     H_    0.320465 0.311122 0.165567 0.183456
H51   H     H_    0.335365 0.315774 0.070136 0.171399
H52   H     H_    0.374810 0.198864 0.124887 0.145138
H53   H     H_    0.450790 0.352717 0.185145 0.179008
H54   H     H_    0.404175 0.470654 0.144747 0.195045
C109  C     C_3   0.075580 0.878597 0.862962 -0.247056
C110  C     C_3   0.140230 0.796745 0.874785 -0.427289
H55   H     H_    0.179437 0.811723 0.831405 0.175147
H56   H     H_    0.165489 0.816762 0.926984 0.173190
H57   H     H_    0.125465 0.699310 0.873329 0.143382
H58   H     H_    0.049141 0.852413 0.812812 0.173986
H59   H     H_    0.095851 0.970846 0.852187 0.194536
C111  C     C_3   0.924683 0.878579 0.134684 -0.245511
C112  C     C_3   0.860109 0.796180 0.122703 -0.425069
H60   H     H_    0.820465 0.811122 0.165567 0.183456
H61   H     H_    0.835365 0.815774 0.070136 0.171399
H62   H     H_    0.874810 0.698864 0.124887 0.145138
H63   H     H_    0.950790 0.852717 0.185145 0.179008
H64   H     H_    0.904175 0.970654 0.144747 0.195045
C113  C     C_2   0.011199 0.104830 0.919185 0.572176
O53   O     O_2   0.981818 0.106023 0.860928 -0.537368
O54   O     O_R   0.045083 0.209021 0.943780 -0.709684
H65   H     H_    0.040899 0.278430 0.908373 0.322790
C114  C     C_2   0.988753 0.105400 0.077073 0.571303
O55   O     O_2   0.017880 0.107864 0.135442 -0.534119
O56   O     O_R   0.954612 0.208610 0.051428 -0.709659
H66   H     H_    0.958770 0.278585 0.086135 0.322601
C115  C     C_2   0.511199 0.604831 0.919185 0.572176
O57   O     O_2   0.481818 0.606023 0.860928 -0.537368
O58   O     O_R   0.545083 0.709021 0.943780 -0.709684
H67   H     H_    0.540899 0.778430 0.908373 0.322790
C116  C     C_2   0.488753 0.605400 0.077073 0.571303
O59   O     O_2   0.517880 0.607864 0.135442 -0.534119
O60   O     O_R   0.454612 0.708611 0.051428 -0.709659
H68   H     H_    0.458770 0.778585 0.086135 0.322601

loop_
_geom_bond_atom_site_label_1
_geom_bond_atom_site_label_2
_ccdc_geom_bond_type
C52   H44   S    
C89   O41   A    
C62   C83   S    
C58   C62   A    
C101  C102  A    
C56   C76   A    
C48   C95   S    
C55   C59   A    
C109  H58   S    
C77   O37   A    
C14   C18   A    
C81   O49   A    
C86   O6    A    
C89   O13   A    
C72   C76   A    
C9    C113  S    
C110  H56   S    
C97   C98   A    
C105  H49   S    
O58   H67   S    
C71   C75   A    
C16   H24   S    
C105  C106  S    
C50   H42   S    
Cr3   O43   S    
C41   C86   S    
Cr4   O4    S    
Cr4   O20   S    
C115  O57   D    
C11   C115  S    
C7    C99   A    
C88   O12   A    
C43   C88   S    
Cr8   O52   S    
C47   O35   A    
C5    C11   A    
C108  H52   S    
C57   H9    S    
C116  O59   D    
Cr12  O40   S    
C106  H46   S    
C30   H34   S    
Cr8   O32   S    
C94   C98   A    
C95   C99   A    
C59   H11   S    
O54   H65   S    
Cr8   O8    S    
C29   C33   A    
Cr4   O44   S    
Cr12  O12   S    
C17   H25   S    
C113  O53   D    
C2    O22   A    
C81   O45   A    
C41   C49   A    
C37   C42   A    
C26   H30   S    
C20   H28   S    
Cr2   O22   S    
Cr11  O15   S    
C103  C104  A    
Cr1   O21   S    
C54   C74   A    
Cr9   O37   S    
C40   C43   A    
C80   O4    A    
C20   C24   A    
C94   C101  A    
Cr5   O29   S    
C88   O8    A    
C70   C74   A    
C83   O47   A    
C112  H60   S    
C69   C73   A    
C23   C27   A    
C44   C87   S    
C66   H14   S    
C9    C10   A    
C34   C78   S    
Cr3   O47   S    
C92   O44   A    
C75   C91   S    
Cr8   O20   S    
C55   C75   A    
C44   C52   A    
Cr9   O17   S    
C54   H6    S    
C87   O11   A    
C18   C22   A    
C114  O55   D    
C48   O36   A    
Cr7   O19   S    
Cr4   O48   S    
C112  H61   S    
C49   H41   S    
Cr2   O46   S    
Cr6   O50   S    
Cr9   O33   S    
C46   O30   A    
Cr5   O49   S    
C45   C94   S    
C15   C35   A    
C107  C108  S    
C83   O51   A    
C46   O34   A    
C15   H23   S    
C25   C29   A    
C109  H59   S    
C55   H7    S    
C28   H32   S    
C79   O39   A    
C19   H27   S    
C30   C34   A    
C63   C82   S    
C27   C31   A    
C51   C52   A    
C6    C98   A    
C14   H22   S    
Cr7   O31   S    
C28   C32   A    
C38   C41   A    
Cr11  O11   S    
C36   C80   S    
C47   C96   S    
C79   O3    A    
C39   C40   A    
C116  O60   S    
C62   C66   A    
C106  H45   S    
C82   O50   A    
Cr9   O9    S    
Cr10  O18   S    
Cr11  O39   S    
C1    O21   A    
C61   C84   S    
C85   O9    A    
C56   C60   A    
C39   H39   S    
C68   C72   A    
C113  O54   S    
C45   O33   A    
C68   H16   S    
C15   C19   A    
C17   C21   A    
C2    O26   A    
C63   C67   A    
C13   C33   A    
C37   C38   A    
C37   H37   S    
Cr2   O42   S    
C108  H50   S    
C31   H35   S    
C84   O48   A    
C93   C97   A    
Cr1   O41   S    
C109  C110  S    
C32   H36   S    
C8    C111  S    
C60   H12   S    
C16   C20   A    
C5    C105  S    
C7    C9    A    
C84   O52   A    
C91   O15   A    
C10   C114  S    
C111  H64   S    
C4    O24   A    
C40   H40   S    
Cr1   O45   S    
C69   H17   S    
Cr5   O5    S    
C76   C92   S    
C6    C107  S    
Cr12  O16   S    
C45   O29   A    
C42   C50   A    
C58   H10   S    
C115  O58   S    
C114  O56   S    
Cr10  O38   S    
C112  H62   S    
C31   C35   A    
C35   C79   S    
C42   C85   S    
Cr7   O7    S    
C111  C112  S    
C38   H38   S    
Cr11  O19   S    
O60   H68   S    
C64   C68   A    
C82   O46   A    
C95   C104  A    
C19   C23   A    
C78   O2    A    
Cr9   O13   S    
Cr8   O28   S    
C54   C58   A    
Cr10  O10   S    
C21   C25   A    
Cr6   O26   S    
C18   H26   S    
C53   C57   A    
C12   C116  S    
Cr10  O34   S    
Cr3   O19   S    
C86   O10   A    
C53   C73   A    
C71   H19   S    
C92   O16   A    
C103  H3    S    
C24   C28   A    
Cr1   O17   S    
C3    C22   S    
C106  H47   S    
C3    O27   A    
C93   C102  A    
C14   C34   A    
C65   H13   S    
C11   C12   A    
C32   C36   A    
C47   O31   A    
C57   C61   A    
C39   C44   A    
Cr4   O24   S    
C1    O25   A    
C73   C89   S    
C87   O7    A    
C90   O14   A    
C59   C63   A    
C99   C100  A    
C13   C17   A    
Cr7   O27   S    
C60   C64   A    
C105  H48   S    
Cr5   O25   S    
C101  H1    S    
C4    O28   A    
Cr12  O20   S    
C8    C100  A    
C85   O5    A    
C108  H51   S    
C27   H31   S    
C53   H5    S    
C16   C36   A    
C6    C12   A    
C4    C21   S    
Cr6   O6    S    
C33   C77   S    
C66   C70   A    
C46   C93   S    
C7    C109  S    
C43   C51   A    
C65   C69   A    
C74   C90   S    
C96   C100  A    
C51   H43   S    
C77   O1    A    
Cr6   O30   S    
C107  H53   S    
C5    C97   A    
C67   C71   A    
C111  H63   S    
Cr2   O2    S    
C61   C65   A    
Cr11  O35   S    
C67   H15   S    
C102  H2    S    
Cr7   O51   S    
C64   C81   S    
C48   O32   A    
C29   H33   S    
C72   H20   S    
C110  H55   S    
Cr12  O36   S    
Cr5   O17   S    
Cr10  O14   S    
C107  H54   S    
C1    C24   S    
C8    C10   A    
C49   C50   A    
C22   C26   A    
C96   C103  A    
Cr3   O23   S    
C2    C23   S    
C70   H18   S    
Cr6   O18   S    
C56   H8    S    
Cr1   O1    S    
C25   H29   S    
Cr3   O3    S    
C78   O38   A    
C104  H4    S    
C3    O23   A    
Cr2   O18   S    
C110  H57   S    
C91   O43   A    
O56   H66   S    
C13   H21   S    
C90   O42   A    
C26   C30   A    
C80   O40   A    
