data_mof_unit_41207.cif
_audit_creation_date              2012-12-11T15:07:40-0500
_audit_creation_method            fapswitch 2.2
_symmetry_space_group_name_H-M    P1
_symmetry_Int_Tables_number       1
_space_group_crystal_system       triclinic
_cell_length_a                    21.639091
_cell_length_b                    7.216318
_cell_length_c                    18.57219
_cell_angle_alpha                 90.002043
_cell_angle_beta                  95.963588
_cell_angle_gamma                 90.001069
_cell_volume                      2884.43703245

loop_
_atom_site_label
_atom_site_type_symbol
_atom_type_description
_atom_site_fract_x
_atom_site_fract_y
_atom_site_fract_z
_atom_type_partial_charge
O1    O     O_R   0.449650 0.506500 0.414480 -0.527637
O2    O     O_R   0.550350 0.006500 0.585520 -0.527644
O3    O     O_R   0.432010 0.173150 0.560250 -0.542928
O4    O     O_R   0.567990 0.673150 0.439750 -0.542961
C1    C     C_R   0.415395 0.344826 0.580046 0.721936
C2    C     C_R   0.584606 0.844825 0.419955 0.722152
O5    O     O_R   0.442320 0.176650 0.413480 -0.521684
O6    O     O_R   0.557680 0.676650 0.586520 -0.521752
O7    O     O_R   0.560730 0.008380 0.437700 -0.522980
O8    O     O_R   0.439270 0.508380 0.562300 -0.523030
C3    C     C_R   0.428712 0.344559 0.387232 0.778620
C4    C     C_R   0.571290 0.844569 0.612765 0.778667
O9    O     O_3   0.538840 0.339860 0.508120 -0.378536
O10   O     O_3   0.461160 0.839860 0.491880 -0.378463
V1    V     V_3+5 0.492800 0.064220 0.498490 1.547053
V2    V     V_3+5 0.507200 0.564220 0.501510 1.546913
C5    C     C_R   0.868142 0.015461 0.691571 -0.163215
C6    C     C_R   0.131885 0.515828 0.308404 -0.163221
H1    H     H_    0.956684 0.039748 0.754264 0.106651
H2    H     H_    0.043344 0.540127 0.245713 0.106667
H3    H     H_    0.784182 0.033788 0.577320 0.121187
H4    H     H_    0.215860 0.534311 0.422639 0.121185
H5    H     H_    0.886726 0.060212 0.642442 0.114257
H6    H     H_    0.113315 0.560749 0.357520 0.114258
C7    C     C_R   0.886144 0.945193 0.819523 -0.040040
C8    C     C_R   0.113857 0.445241 0.180479 -0.040068
C9    C     C_R   0.586772 0.784803 0.746089 0.456061
C10   C     C_R   0.413202 0.284520 0.253925 0.456108
C11   C     C_R   0.624978 0.774020 0.811236 -0.149800
C12   C     C_R   0.374989 0.273662 0.188785 -0.149914
C13   C     C_R   0.687636 0.819256 0.815210 -0.242724
C14   C     C_R   0.312340 0.319011 0.184804 -0.242703
C15   C     C_R   0.715186 0.876920 0.753422 0.088219
C16   C     C_R   0.284809 0.376871 0.246579 0.088223
C17   C     C_R   0.676087 0.893317 0.686458 0.012349
C18   C     C_R   0.323918 0.393377 0.313533 0.012353
C19   C     C_R   0.780464 0.916327 0.755868 0.093880
C20   C     C_R   0.219537 0.416367 0.244130 0.093874
C21   C     C_R   0.804738 0.973692 0.691267 0.135019
C22   C     C_R   0.195281 0.473948 0.308714 0.135026
C23   C     C_R   0.765701 0.990104 0.626666 -0.198528
C24   C     C_R   0.234328 0.490466 0.373305 -0.198534
C25   C     C_R   0.702645 0.950334 0.624133 -0.165853
C26   C     C_R   0.297376 0.450596 0.375843 -0.165870
C27   C     C_R   0.822772 0.901456 0.819934 -0.210725
C28   C     C_R   0.177219 0.401383 0.180075 -0.210731
C29   C     C_R   0.908224 0.002896 0.755144 -0.165657
C30   C     C_R   0.091795 0.503168 0.244840 -0.165645
C31   C     C_R   0.611575 0.847244 0.682791 -0.227070
C32   C     C_R   0.388421 0.347190 0.317206 -0.226981
H7    H     H_    0.807994 0.860612 0.871241 0.098971
H8    H     H_    0.191984 0.360371 0.128781 0.098990
H9    H     H_    0.713418 0.804952 0.867687 0.141076
H10   H     H_    0.286552 0.304632 0.132335 0.141077
H11   H     H_    0.606367 0.726001 0.859840 0.187279
H12   H     H_    0.393582 0.225484 0.140193 0.187293
H13   H     H_    0.674887 0.964237 0.572467 0.095272
H14   H     H_    0.325142 0.464582 0.427500 0.095356
C33   C     C_R   0.646172 0.711458 0.324460 -0.162744
C34   C     C_R   0.353828 0.211464 0.675539 -0.162727
C35   C     C_R   0.635380 0.857248 0.371815 -0.047938
C36   C     C_R   0.364621 0.357250 0.628186 -0.047934
C37   C     C_R   0.672073 0.018695 0.371239 -0.233963
C38   C     C_R   0.327927 0.518692 0.628763 -0.233946
C39   C     C_R   0.718088 0.035856 0.323503 0.100825
C40   C     C_R   0.281914 0.535857 0.676501 0.100871
C41   C     C_R   0.727632 0.890059 0.275302 0.064685
C42   C     C_R   0.272369 0.390060 0.724699 0.064689
C43   C     C_R   0.691508 0.727275 0.275826 0.075598
C44   C     C_R   0.308490 0.227277 0.724171 0.075580
C45   C     C_R   0.754573 0.196650 0.322822 -0.202287
C46   C     C_R   0.245433 0.696653 0.677188 -0.202289
C47   C     C_R   0.799820 0.213497 0.274462 -0.189932
C48   C     C_R   0.200186 0.713501 0.725550 -0.189947
C49   C     C_R   0.809362 0.070117 0.225721 0.096214
C50   C     C_R   0.190642 0.570119 0.774285 0.096219
C51   C     C_R   0.773304 0.907120 0.226421 0.060414
C52   C     C_R   0.226696 0.407121 0.773579 0.060420
C53   C     C_R   0.782939 0.760858 0.178458 0.084476
C54   C     C_R   0.217058 0.260856 0.821537 0.084473
C55   C     C_R   0.746385 0.600201 0.179055 -0.181555
C56   C     C_R   0.253609 0.100199 0.820935 -0.181569
C57   C     C_R   0.700984 0.583785 0.227158 -0.147319
C58   C     C_R   0.299012 0.083786 0.772833 -0.147271
C59   C     C_R   0.854626 0.086097 0.176825 -0.217309
C60   C     C_R   0.145378 0.586099 0.823182 -0.217306
C61   C     C_R   0.865338 0.939349 0.129645 -0.078521
C62   C     C_R   0.134662 0.439346 0.870354 -0.078518
C63   C     C_R   0.829066 0.777306 0.130941 -0.212837
C64   C     C_R   0.170931 0.277302 0.869052 -0.212832
H15   H     H_    0.618332 0.587357 0.324265 0.160865
H16   H     H_    0.381668 0.087368 0.675734 0.160886
H17   H     H_    0.664802 0.131522 0.407978 0.121237
H18   H     H_    0.335197 0.631515 0.592025 0.121206
H19   H     H_    0.747898 0.310054 0.359474 0.126771
H20   H     H_    0.252110 0.810060 0.640541 0.126761
H21   H     H_    0.827273 0.339168 0.275073 0.132206
H22   H     H_    0.172736 0.839174 0.724944 0.132207
H23   H     H_    0.882493 0.210934 0.176728 0.123748
H24   H     H_    0.117514 0.710939 0.823283 0.123746
H25   H     H_    0.836505 0.663766 0.094590 0.130934
H26   H     H_    0.163488 0.163758 0.905398 0.130933
H27   H     H_    0.753082 0.486646 0.142479 0.140890
H28   H     H_    0.246908 0.986639 0.857505 0.140900
H29   H     H_    0.673406 0.458312 0.226473 0.161104
H30   H     H_    0.326588 0.958313 0.773515 0.161183
O11   O     O_R   0.060820 0.290050 0.937800 -0.539666
O12   O     O_R   0.939180 0.790050 0.062200 -0.539665
O13   O     O_R   0.057690 0.616620 0.086540 -0.533919
O14   O     O_R   0.942310 0.116620 0.913460 -0.533916
C65   C     C_R   0.071510 0.449058 0.112633 0.685484
C66   C     C_R   0.928489 0.949049 0.887369 0.685484
O15   O     O_R   0.068010 0.619890 0.939770 -0.539421
O16   O     O_R   0.931990 0.119890 0.060230 -0.539423
O17   O     O_R   0.949640 0.787940 0.914460 -0.534000
O18   O     O_R   0.050360 0.287940 0.085540 -0.534001
C67   C     C_R   0.084501 0.451107 0.919291 0.696908
C68   C     C_R   0.915499 0.951108 0.080709 0.696894
O19   O     O_3   0.961210 0.453080 0.991940 -0.374051
O20   O     O_3   0.038790 0.953080 0.008060 -0.374053
V3    V     V_3+5 0.007200 0.728820 0.001500 1.412910
V4    V     V_3+5 0.992800 0.228820 0.998500 1.412906
S1    S     S_3+6 0.508932 0.707434 0.745821 0.009519
O21   O     O_2   0.506259 0.505663 0.725708 -0.332035
O22   O     O_2   0.487761 0.730358 0.819892 -0.316925
O23   O     O_3   0.461122 0.826959 0.685777 -0.523734
H31   H     H_    0.419546 0.772714 0.689400 0.342776
S2    S     S_3+6 0.491020 0.206950 0.254221 0.009539
O24   O     O_2   0.493675 0.005366 0.274613 -0.332101
O25   O     O_2   0.512154 0.229121 0.180099 -0.316929
O26   O     O_3   0.538869 0.326951 0.314071 -0.523757
H32   H     H_    0.580442 0.272673 0.310462 0.342798

loop_
_geom_bond_atom_site_label_1
_geom_bond_atom_site_label_2
_ccdc_geom_bond_type
C40   C42   A    
C37   C39   A    
O23   H31   S    
O17   V3    S    
C50   C60   A    
C9    C11   A    
C23   C25   A    
O1    C3    A    
O12   V3    S    
O2    C4    A    
S2    O24   D    
C2    O7    A    
C4    C31   S    
C18   C32   A    
S1    O21   D    
C48   H22   S    
O5    C3    A    
C5    H5    S    
C48   C50   A    
C43   C57   A    
C2    C35   S    
C50   C52   A    
O13   C65   A    
C46   H20   S    
C52   C54   A    
S1    O22   D    
C45   H19   S    
C27   H7    S    
C28   H8    S    
C34   C36   A    
C5    C21   A    
C35   C37   A    
C6    C22   A    
C64   H26   S    
C36   C38   A    
C7    C66   S    
C10   C32   A    
C49   C59   A    
C40   C46   A    
C26   H14   S    
C39   C41   A    
C41   C51   A    
C17   C31   A    
C58   H30   S    
C13   C15   A    
C65   O18   A    
C6    H6    S    
C12   C14   A    
C44   C58   A    
C7    C29   A    
C16   C18   A    
C8    C30   A    
O5    V1    S    
O6    V2    S    
C47   C49   A    
C24   C26   A    
C14   H10   S    
C55   C57   A    
C51   C53   A    
C42   C52   A    
C33   C35   A    
C53   C63   A    
C59   C61   A    
O12   C68   A    
C61   C68   S    
C46   C48   A    
C53   C55   A    
C9    S1    S    
S1    O23   S    
C11   H11   S    
C39   C45   A    
C12   H12   S    
C15   C19   A    
C57   H29   S    
C6    C30   A    
C41   C43   A    
C38   C40   A    
O4    V2    S    
C47   H21   S    
C59   H23   S    
C34   C44   A    
O6    C4    A    
C25   H13   S    
H1    C29   S    
O1    V2    S    
C33   H15   S    
C13   H9    S    
O2    V1    S    
C49   C51   A    
O16   C68   A    
O18   V4    S    
C33   C43   A    
O15   C67   A    
C54   C56   A    
C62   C64   A    
C56   C58   A    
C61   C63   A    
H3    C23   S    
C18   C26   A    
O4    C2    A    
C19   C27   A    
O26   H32   S    
S2    O26   S    
C7    C27   A    
C17   C25   A    
O20   V3    S    
C45   C47   A    
C55   H27   S    
O19   V4    S    
H2    C30   S    
C63   H25   S    
C16   C20   A    
C5    C29   A    
O3    C1    A    
S2    O25   D    
C37   H17   S    
C10   C12   A    
O7    V1    S    
C38   H18   S    
C1    O8    A    
C19   C21   A    
C3    C32   S    
O8    V2    S    
O14   V4    S    
C20   C22   A    
C60   H24   S    
O13   V3    S    
H4    C24   S    
C22   C24   A    
C15   C17   A    
C1    C36   S    
C60   C62   A    
C54   C64   A    
O14   C66   A    
C20   C28   A    
C8    C28   A    
O16   V4    S    
C10   S2    S    
O15   V3    S    
C21   C23   A    
C11   C13   A    
O9    V2    S    
C42   C44   A    
C56   H28   S    
O10   V1    S    
O3    V1    S    
O11   V4    S    
C62   C67   S    
C34   H16   S    
C8    C65   S    
O11   C67   A    
C66   O17   A    
C9    C31   A    
C14   C16   A    
