data_mof_unit_65244.cif
_audit_creation_date              2012-12-10T17:14:30-0500
_audit_creation_method            fapswitch 2.2
_symmetry_space_group_name_H-M    P1
_symmetry_Int_Tables_number       1
_space_group_crystal_system       triclinic
_cell_length_a                    15.532579
_cell_length_b                    14.710965
_cell_length_c                    10.130381
_cell_angle_alpha                 89.999372
_cell_angle_beta                  83.685477
_cell_angle_gamma                 89.999845
_cell_volume                      2300.74067353

loop_
_atom_site_label
_atom_site_type_symbol
_atom_type_description
_atom_site_fract_x
_atom_site_fract_y
_atom_site_fract_z
_atom_type_partial_charge
C1    C     C_R   0.384101 0.117360 0.554830 0.950402
C2    C     C_2   0.510563 1.000000 0.070025 -0.127019
C3    C     C_2   0.989437 0.500000 0.929974 -0.072088
C4    C     C_2   0.010563 0.500000 0.070026 -0.072088
C5    C     C_2   0.308954 0.825798 0.588647 -0.481940
C6    C     C_2   0.691047 0.174201 0.411353 -0.481936
C7    C     C_2   0.691043 0.825793 0.411357 -0.481951
C8    C     C_2   0.308958 0.174207 0.588643 -0.481949
C9    C     C_2   0.836893 0.295757 0.574527 -0.452292
C10   C     C_2   0.163107 0.704242 0.425474 -0.452300
C11   C     C_2   0.163110 0.295760 0.425475 -0.452315
C12   C     C_R   0.615899 0.882640 0.445170 0.950398
C13   C     C_2   0.836888 0.704239 0.574526 -0.452313
C14   C     C_2   0.245726 0.824292 0.508673 0.575112
C15   C     C_2   0.754272 0.175710 0.491329 0.575105
C16   C     C_2   0.754274 0.824292 0.491325 0.575109
C17   C     C_2   0.245726 0.175707 0.508677 0.575111
C18   C     C_2   0.819976 0.244484 0.471098 0.552979
C19   C     C_2   0.180023 0.755517 0.528902 0.552985
C20   C     C_2   0.180023 0.244483 0.528905 0.552993
C21   C     C_2   0.819977 0.755517 0.471097 0.552996
C22   C     C_R   0.615900 0.117358 0.445168 0.950392
C23   C     C_R   0.384100 0.882642 0.554832 0.950398
C24   C     C_R   0.890318 0.624053 0.551687 0.947689
C25   C     C_R   0.109681 0.375947 0.448313 0.947685
C26   C     C_R   0.109680 0.624055 0.448313 0.947684
C27   C     C_R   0.890321 0.375945 0.551687 0.947680
C28   C     C_2   0.489437 1.000000 0.929975 -0.127020
F1    F     F_    0.753696 0.121157 0.600299 -0.613093
F2    F     F_    0.246298 0.878851 0.399712 -0.613086
F3    F     F_    0.246290 0.121141 0.399727 -0.613080
F4    F     F_    0.753707 0.878856 0.600277 -0.613086
F5    F     F_    0.144437 0.738602 0.655666 -0.638305
F6    F     F_    0.855561 0.261399 0.344334 -0.638308
F7    F     F_    0.855568 0.738607 0.344335 -0.638301
F8    F     F_    0.144435 0.261396 0.655668 -0.638301
H1    H     H_    0.387409 1.000000 0.145934 0.219833
H2    H     H_    0.809213 0.279754 0.675125 0.165381
H3    H     H_    0.809201 0.720238 0.675121 0.165363
H4    H     H_    0.190795 0.279759 0.324879 0.165365
H5    H     H_    0.577756 0.000000 0.090212 0.177300
H6    H     H_    0.422244 1.000000 0.909788 0.177300
H7    H     H_    0.077753 0.500000 0.090210 0.155170
H8    H     H_    0.922247 0.500000 0.909790 0.155170
H9    H     H_    0.612591 1.000000 0.854066 0.219835
H10   H     H_    0.887417 0.500000 0.145912 0.183124
H11   H     H_    0.112583 0.500000 0.854088 0.183125
H12   H     H_    0.693887 0.216910 0.323369 0.163132
H13   H     H_    0.306117 0.783084 0.676625 0.163125
H14   H     H_    0.306127 0.216928 0.676612 0.163116
H15   H     H_    0.693875 0.783075 0.323386 0.163116
H16   H     H_    0.190789 0.720246 0.324877 0.165374
N1    N     N_2   0.549450 1.000000 0.831550 -0.171246
N2    N     N_2   0.450550 0.000000 0.168450 -0.171248
N3    N     N_2   0.049450 0.500000 0.831550 -0.160728
N4    N     N_2   0.950550 0.500000 0.168450 -0.160728
O1    O     O_R   0.398960 0.091100 0.433300 -0.528081
O2    O     O_R   0.569290 0.908910 0.353790 -0.626354
O3    O     O_R   0.569290 0.091090 0.353790 -0.626358
O4    O     O_R   0.430710 0.908910 0.646210 -0.626357
O5    O     O_R   0.930710 0.591090 0.646210 -0.607227
O6    O     O_R   0.069290 0.408910 0.353790 -0.607228
O7    O     O_R   0.069290 0.591090 0.353790 -0.607229
O8    O     O_R   0.930710 0.408910 0.646210 -0.607231
O9    O     O_R   0.601040 0.908900 0.566700 -0.528080
O10   O     O_R   0.601040 0.091100 0.566700 -0.528067
O11   O     O_R   0.398960 0.908900 0.433300 -0.528073
O12   O     O_R   0.898960 0.591100 0.433300 -0.545400
O13   O     O_R   0.101040 0.408900 0.566700 -0.545398
O14   O     O_R   0.101040 0.591100 0.566700 -0.545396
O15   O     O_R   0.898960 0.408900 0.433300 -0.545396
O16   O     O_R   0.430710 0.091090 0.646210 -0.626354
Zn1   Zn    Zn3+2 0.478810 1.000000 0.357840 1.031283
Zn2   Zn    Zn3+2 0.521190 1.000000 0.642160 1.031286
Zn3   Zn    Zn3+2 0.978810 0.500000 0.357840 1.040415
Zn4   Zn    Zn3+2 0.021190 0.500000 0.642160 1.040416

loop_
_geom_bond_atom_site_label_1
_geom_bond_atom_site_label_2
_ccdc_geom_bond_type
C15   C18   S    
C24   O5    A    
C1    C8    S    
N1    Zn2   S    
C10   H16   S    
O12   Zn3   S    
C16   C21   S    
C6    H12   S    
C11   C25   S    
C2    H5    S    
C23   O11   A    
C6    C22   S    
C17   C20   S    
O13   Zn4   S    
O1    Zn1   S    
C22   O10   A    
C6    C15   D    
C3    N3    D    
O11   Zn1   S    
O3    Zn1   S    
C12   O2    A    
C10   C26   S    
H9    N1    S    
N4    Zn3   S    
C4    N4    D    
C5    H13   S    
C7    C12   S    
C14   F2    S    
C15   F1    S    
O5    Zn4   S    
C23   O4    A    
C3    H8    S    
C11   C20   D    
C1    O16   A    
O16   Zn2   S    
C2    N2    D    
C22   O3    A    
O9    Zn2   S    
C13   C24   S    
C26   O7    A    
C1    O1    A    
N2    Zn1   S    
C5    C23   S    
C10   C19   D    
O8    Zn4   S    
C13   C21   D    
C18   F6    S    
C5    C14   D    
N3    Zn4   S    
C7    C16   D    
O14   Zn4   S    
C17   F3    S    
O6    Zn3   S    
C25   O13   A    
H1    N2    S    
C3    C4    S    
C8    H14   S    
C27   O15   A    
C9    C27   S    
H11   N3    S    
C28   H6    S    
C14   C19   S    
C19   F5    S    
C28   N1    D    
C21   F7    S    
C4    H7    S    
C16   F4    S    
C12   O9    A    
C8    C17   D    
C7    H15   S    
O15   Zn3   S    
O7    Zn3   S    
C26   O14   A    
O4    Zn2   S    
C9    H2    S    
C25   O6    A    
C11   H4    S    
C13   H3    S    
C27   O8    A    
C24   O12   A    
C20   F8    S    
C9    C18   D    
H10   N4    S    
C2    C28   S    
O2    Zn1   S    
O10   Zn2   S    
