data_mof_unit_31655.cif
_audit_creation_date              2013-03-05T16:46:10-0500
_audit_creation_method            fapswitch 2.2
_symmetry_space_group_name_H-M    P1
_symmetry_Int_Tables_number       1
_space_group_crystal_system       triclinic
_cell_length_a                    10.710417
_cell_length_b                    10.690884
_cell_length_c                    9.840261
_cell_angle_alpha                 90.522798
_cell_angle_beta                  89.954195
_cell_angle_gamma                 90.164559
_cell_volume                      1126.69564219

loop_
_atom_site_label
_atom_site_type_symbol
_atom_site_description
_atom_site_fract_x
_atom_site_fract_y
_atom_site_fract_z
_atom_type_partial_charge
O1    O     O_R   0.500020 0.316790 0.614690 -0.611286
O2    O     O_R   0.500000 0.316760 0.385350 -0.628646
C1    C     C_R   0.503303 0.259756 0.499323 0.904420
O3    O     O_R   0.316770 0.500030 0.614670 -0.625856
O4    O     O_R   0.316750 0.499990 0.385330 -0.615046
C2    C     C_R   0.260254 0.505410 0.499965 0.868463
Zn1   Zn    Zn3+2 0.500010 0.500020 0.653130 0.971476
Zn2   Zn    Zn3+2 0.499990 0.499980 0.346870 0.955817
O5    O     O_R   0.500000 0.683240 0.614650 -0.621608
O6    O     O_R   0.499980 0.683210 0.385310 -0.622662
O7    O     O_R   0.683250 0.500010 0.614670 -0.606362
O8    O     O_R   0.683230 0.499970 0.385330 -0.633933
C3    C     C_R   0.506683 0.740191 0.500481 0.877507
C4    C     C_R   0.740019 0.497897 0.500283 0.914511
H1    H     H_    0.274569 0.832330 0.992842 0.162114
C5    C     C_R   0.252831 0.812693 0.209264 -0.108475
H2    H     H_    0.310105 0.893305 0.233530 0.150101
C6    C     C_R   0.198448 0.743182 0.313594 -0.121878
H3    H     H_    0.215358 0.770058 0.418343 0.114303
C7    C     C_R   0.122158 0.639636 0.282656 0.123878
C8    C     C_R   0.101542 0.606817 0.145984 -0.120005
H4    H     H_    0.044091 0.526523 0.120230 0.146862
C9    C     C_R   0.157829 0.675235 0.042033 -0.084267
H5    H     H_    0.143187 0.648374 0.936953 0.167590
C10   C     C_R   0.232706 0.778554 0.073612 -0.088420
C11   C     C_R   0.933340 0.557560 0.393564 -0.252699
H6    H     H_    0.880398 0.599993 0.312140 0.185261
C12   C     C_R   0.872631 0.499192 0.501562 -0.031700
C13   C     C_R   0.939158 0.449840 0.612019 0.149649
C14   C     C_R   0.066893 0.456742 0.609811 -0.234945
H7    H     H_    0.118772 0.415225 0.692373 0.136483
C15   C     C_R   0.127883 0.512204 0.500608 -0.090295
C16   C     C_R   0.061716 0.567198 0.392880 -0.000857
C17   C     C_R   0.858452 0.450486 0.855243 0.277610
C18   C     C_R   0.806330 0.382816 0.963645 -0.245968
H8    H     H_    0.789955 0.427323 0.061259 0.189626
C19   C     C_R   0.770666 0.258254 0.947017 -0.236150
H9    H     H_    0.727251 0.208966 0.030359 0.189105
C20   C     C_R   0.787548 0.197974 0.822532 -0.204896
H10   H     H_    0.754613 0.103096 0.809889 0.205094
C21   C     C_R   0.844919 0.259973 0.713916 0.458260
C22   C     C_R   0.879650 0.386811 0.729297 -0.089403
C23   C     C_R   0.537795 0.065779 0.619757 0.092630
C24   C     C_R   0.524687 0.128607 0.497813 -0.090200
C25   C     C_R   0.540508 0.063465 0.374762 -0.205773
H11   H     H_    0.540631 0.110865 0.277904 0.183198
C26   C     C_R   0.544026 0.934032 0.376069 -0.202385
H12   H     H_    0.545760 0.884082 0.279852 0.212517
C27   C     C_R   0.531802 0.871344 0.500388 -0.163720
C28   C     C_R   0.545891 0.938379 0.621855 0.117680
C29   C     C_3   0.477786 0.932375 0.755354 0.136714
C30   C     C_3   0.463510 0.073373 0.747732 -0.561925
H13   H     H_    0.388744 0.878623 0.751577 0.092413
H14   H     H_    0.365566 0.102384 0.729052 0.177623
H15   H     H_    0.512793 0.126620 0.829233 0.232631
C31   C     C_R   0.452455 0.400240 0.070550 0.203758
N1    N     N_R   0.499160 0.499140 0.142800 -0.129692
C32   C     C_R   0.560090 0.590862 0.072822 -0.061886
H16   H     H_    0.607085 0.665273 0.127837 0.194880
C33   C     C_R   0.561309 0.589657 0.928669 -0.052552
H17   H     H_    0.611388 0.660425 0.874089 0.235030
N2    N     N_R   0.499160 0.499180 0.857150 -0.138672
C34   C     C_R   0.450021 0.401653 0.927908 0.229609
C35   C     C_3   0.317639 0.357821 0.924917 -0.524857
C36   C     C_3   0.322751 0.350867 0.078823 -0.493050
H18   H     H_    0.252749 0.430938 0.888078 0.207771
H19   H     H_    0.306498 0.264930 0.875501 0.201391
H20   H     H_    0.258182 0.415881 0.131244 0.224802
H21   H     H_    0.320459 0.253449 0.117360 0.203809
O9    O     O_3   0.852161 0.203639 0.586564 -0.665333
C37   C     C_3   0.933076 0.099089 0.587770 0.105757
H22   H     H_    0.902818 0.035440 0.504090 0.191314
H23   H     H_    0.927847 0.043269 0.682660 0.151974
C38   C     C_3   0.068250 0.140023 0.561370 -0.370252
H24   H     H_    0.070973 0.205135 0.473909 0.243285
H25   H     H_    0.105152 0.189417 0.652696 0.201310
C39   C     C_3   0.151926 0.028298 0.529540 -0.970789
H26   H     H_    0.153130 0.962571 0.616363 0.270720
H27   H     H_    0.248670 0.061108 0.509990 0.259247
H28   H     H_    0.117640 0.978816 0.437170 0.274038
N3    N     N_R   0.558941 0.897931 0.868663 0.206568
O10   O     O_R   0.677878 0.878958 0.850384 -0.388379
O11   O     O_R   0.514747 0.900441 0.991756 -0.470185
N4    N     N_R   0.882728 0.582968 0.873928 0.193981
O12   O     O_R   0.854968 0.637795 0.988632 -0.429946
O13   O     O_R   0.922713 0.652540 0.775177 -0.397826

loop_
_geom_bond_atom_site_label_1
_geom_bond_atom_site_label_2
_geom_bond_distance
_ccdc_geom_bond_type
C2    C15   1.419820 S    
C13   C22   1.484137 S    
C21   C22   1.411913 A    
C18   H8    1.082445 S    
C17   C22   1.426875 A    
N3    O10   1.302562 A    
C26   C27   1.406078 A    
C39   H26   1.111252 S    
Zn1   O7    1.998437 S    
C11   H6    1.085416 S    
N2    C34   1.363241 A    
C38   H25   1.110576 S    
C12   C13   1.407602 A    
C18   C19   1.392563 A    
C19   H9    1.082739 S    
N4    O13   1.300605 A    
C6    H3    1.082776 S    
O1    C1    1.284221 A    
O4    C2    1.280583 A    
O7    C4    1.278941 A    
C23   C30   1.490767 S    
H1    C10   1.081460 S    
C32   C33   1.418495 A    
C31   C36   1.487096 S    
C31   N1    1.362879 A    
C33   N2    1.363318 A    
C17   C18   1.408429 A    
O5    C3    1.284553 A    
C5    H2    1.081427 S    
C38   C39   1.525401 S    
C9    H5    1.082042 S    
O9    C37   1.416454 S    
C29   N3    1.464656 S    
C30   H15   1.111968 S    
C25   C26   1.384546 A    
C8    H4    1.083036 S    
C17   N4    1.449372 S    
O3    Zn1   1.999031 S    
N3    O11   1.300191 A    
C30   H14   1.110693 S    
C39   H27   1.110184 S    
C1    C24   1.421274 S    
C38   H24   1.112153 S    
C29   C30   1.518109 S    
C35   H19   1.107934 S    
N4    O12   1.301677 A    
C20   C21   1.403135 A    
C20   H10   1.079109 S    
C37   H23   1.114014 S    
C32   H16   1.081457 S    
C25   H11   1.083519 S    
C33   H17   1.073853 S    
C29   H13   1.112487 S    
C35   H18   1.110925 S    
C23   C24   1.387910 A    
Zn1   N2    2.007725 S    
C13   C14   1.370039 A    
Zn2   N1    2.008067 S    
O4    Zn2   1.998437 S    
C11   C16   1.378535 A    
C26   H12   1.082930 S    
Zn2   O8    1.999032 S    
C36   H20   1.105936 S    
C28   C29   1.503879 S    
C31   C34   1.404118 A    
C5    C6    1.398555 A    
C3    C27   1.426967 S    
C7    C16   1.485449 S    
O3    C2    1.283045 A    
O8    C4    1.285150 A    
C8    C9    1.398187 A    
C24   C25   1.401738 A    
C39   H28   1.109739 S    
C5    C10   1.397361 A    
Zn1   O5    1.998438 S    
O1    Zn1   1.991686 S    
O2    Zn2   1.998435 S    
O6    C3    1.283719 A    
C37   C38   1.533914 S    
C23   C28   1.365365 A    
C11   C12   1.396510 A    
C15   C16   1.409471 A    
O2    C1    1.281840 A    
C37   H22   1.111315 S    
C19   C20   1.390852 A    
C35   C36   1.518007 S    
C14   C15   1.393301 A    
N1    C32   1.367308 A    
C14   H7    1.083752 S    
C36   H21   1.111821 S    
C6    C7    1.405291 A    
C9    C10   1.396010 A    
C34   C35   1.492247 S    
C7    C8    1.404282 A    
Zn2   O6    1.991686 S    
C27   C28   1.396088 A    
C4    C12   1.420421 S    
C21   O9    1.387636 S    
