data_mof_unit_20308.cif
_audit_creation_date              2012-12-11T18:06:53-0500
_audit_creation_method            fapswitch 2.2
_symmetry_space_group_name_H-M    P1
_symmetry_Int_Tables_number       1
_space_group_crystal_system       triclinic
_cell_length_a                    8.239525
_cell_length_b                    12.632002
_cell_length_c                    27.034883
_cell_angle_alpha                 96.828831
_cell_angle_beta                  92.666106
_cell_angle_gamma                 81.184251
_cell_volume                      2759.72050318

loop_
_atom_site_label
_atom_site_type_symbol
_atom_type_description
_atom_site_fract_x
_atom_site_fract_y
_atom_site_fract_z
_atom_type_partial_charge
Ba1   Ba    Ba6+2 0.859560 0.448380 0.523550 1.644528
Ba2   Ba    Ba6+2 0.330270 0.551530 0.476440 1.661438
C1    C     C_3   0.691255 0.067430 0.656502 -0.362546
C2    C     C_3   0.683056 0.176055 0.636758 0.341361
C3    C     C_3   0.563724 0.702820 0.634245 0.294783
C4    C     C_3   0.654113 0.734525 0.682846 -0.328853
C5    C     C_3   0.930765 0.819230 0.348293 0.336088
C6    C     C_3   0.860984 0.887531 0.307335 -0.337094
C7    C     C_3   0.430932 0.816500 0.333925 0.342506
C8    C     C_3   0.368831 0.890883 0.294662 -0.346949
C9    C     C_R   0.016652 0.426289 0.178242 0.594071
C10   C     C_R   0.951977 0.618803 0.184286 0.591462
C11   C     C_2   0.770104 0.584501 0.273762 -0.094161
C12   C     C_3   0.181918 0.205698 0.659768 0.287439
C13   C     C_3   0.739583 0.612814 0.328862 -0.076441
C14   C     C_1   0.987643 0.483741 0.343713 0.023516
C15   C     C_2   0.029486 0.474991 0.296145 -0.086178
C16   C     C_2   0.915107 0.527308 0.258026 0.216222
C17   C     C_R   0.040404 0.518781 0.104696 -0.080057
C18   C     C_R   0.058509 0.422849 0.127590 -0.034564
C19   C     C_R   0.115927 0.325250 0.099131 -0.060053
C20   C     C_R   0.986031 0.617225 0.133357 -0.029546
C21   C     C_2   0.853716 0.544753 0.361551 -0.263004
C22   C     C_2   0.348332 0.475282 0.643005 -0.252856
C23   C     C_3   0.149168 0.179714 0.711482 -0.345934
C24   C     C_R   0.185721 0.416413 0.974672 0.019641
C25   C     C_R   0.077413 0.610001 0.977979 0.019948
C26   C     C_R   0.149587 0.512182 0.950833 0.050132
C27   C     C_R   0.267083 0.322922 0.946826 -0.100369
C28   C     C_R   0.307364 0.322880 0.897263 -0.060916
C29   C     C_R   0.266874 0.415581 0.872752 -0.030743
C30   C     C_R   0.186512 0.510242 0.899351 -0.078514
C31   C     C_R   0.144019 0.603156 0.874575 -0.032572
C32   C     C_R   0.180406 0.599874 0.823580 0.588541
C33   C     C_R   0.306330 0.415523 0.822262 0.580442
C34   C     C_3   0.218994 0.222517 0.417230 0.296271
C35   C     C_2   0.458343 0.478720 0.730466 -0.073541
C36   C     C_3   0.498715 0.483376 0.676559 -0.058455
C37   C     C_1   0.205834 0.527284 0.658830 0.019834
C38   C     C_2   0.168205 0.533732 0.706639 -0.116106
C39   C     C_2   0.300539 0.505212 0.745467 0.213410
C40   C     C_R   0.141076 0.417407 0.025355 0.019937
C41   C     C_R   0.077229 0.516458 0.053182 0.050423
C42   C     C_R   0.049963 0.613350 0.030062 0.019597
C43   C     C_R   0.157021 0.322465 0.049400 -0.100166
C44   C     C_R   0.967591 0.712680 0.110664 -0.061610
C45   C     C_3   0.262755 0.101825 0.402845 -0.391335
C46   C     C_R   0.033955 0.701279 0.951732 -0.101656
C47   C     C_R   0.066001 0.697647 0.901306 -0.062801
C48   C     C_R   0.997736 0.710916 0.060268 -0.101974
C49   C     C_R   0.795415 0.828237 0.499625 -0.087987
C50   C     C_R   0.430425 0.189315 0.519885 -0.289009
C51   C     C_R   0.413300 0.010430 0.539592 -0.090213
C52   C     C_R   0.346524 0.117976 0.540204 -0.003006
C53   C     C_R   0.575244 0.152357 0.494403 0.063942
C54   C     C_R   0.643390 0.041350 0.491965 -0.058420
C55   C     C_R   0.563029 0.970498 0.516305 -0.073789
C56   C     C_3   0.135441 0.788645 0.622573 0.209440
C57   C     C_R   0.635193 0.861837 0.517179 0.035344
C58   C     C_R   0.866248 0.893930 0.471278 0.016882
C59   C     C_R   0.788557 0.998586 0.466240 -0.113710
C60   C     C_3   0.175349 0.824439 0.677014 -0.359990
C61   C     C_3   0.706078 0.309607 0.376311 0.297145
C62   C     C_3   0.714973 0.281351 0.320126 -0.348181
H1    H     H_    0.791607 0.172573 0.613417 0.103098
H2    H     H_    0.363928 0.086196 0.376069 0.109604
H3    H     H_    0.303800 0.060749 0.436164 0.088229
H4    H     H_    0.153950 0.068212 0.385562 0.154395
H5    H     H_    0.096765 0.862074 0.603549 0.060042
H6    H     H_    0.242750 0.744088 0.603008 0.073078
H7    H     H_    0.063947 0.870738 0.695132 0.128859
H8    H     H_    0.272375 0.877018 0.679363 0.108478
H9    H     H_    0.219383 0.753546 0.697205 0.112644
H10   H     H_    0.827365 0.326835 0.391191 0.010504
H11   H     H_    0.613046 0.382084 0.384524 0.089016
H12   H     H_    0.692190 0.002643 0.624866 0.078271
H13   H     H_    0.811471 0.210826 0.311172 0.124704
H14   H     H_    0.745146 0.350591 0.302545 0.079086
H15   H     H_    0.594682 0.261599 0.304559 0.135910
H16   H     H_    0.568817 0.190227 0.613686 -0.040389
H17   H     H_    0.582803 0.067320 0.679394 0.127332
H18   H     H_    0.452876 0.671938 0.643811 -0.066198
H19   H     H_    0.639261 0.636243 0.612321 0.092273
H20   H     H_    0.569694 0.791089 0.708007 0.103884
H21   H     H_    0.699898 0.661763 0.701664 0.074487
H22   H     H_    0.759599 0.774791 0.675566 0.149461
H23   H     H_    0.805142 0.050640 0.679660 0.127124
H24   H     H_    0.194625 0.239469 0.739932 0.139103
H25   H     H_    0.989998 0.739343 0.331001 0.079174
H26   H     H_    0.825985 0.808517 0.370772 -0.087974
H27   H     H_    0.959412 0.897917 0.282577 0.142643
H28   H     H_    0.767891 0.847457 0.284353 0.115577
H29   H     H_    0.801887 0.968002 0.324068 0.101198
H30   H     H_    0.565936 0.813447 0.336811 -0.083407
H31   H     H_    0.379139 0.851253 0.370532 0.080998
H32   H     H_    0.407295 0.851860 0.257172 0.126605
H33   H     H_    0.421133 0.967254 0.302338 0.070200
H34   H     H_    0.124305 0.290122 0.656464 0.080917
H35   H     H_    0.233233 0.909615 0.294990 0.136437
H36   H     H_    0.149504 0.433196 0.284927 0.120525
H37   H     H_    0.129865 0.249816 0.115330 0.120320
H38   H     H_    0.557667 0.461587 0.757509 0.101726
H39   H     H_    0.370463 0.248944 0.878017 0.121130
H40   H     H_    0.305391 0.248464 0.962667 0.068816
H41   H     H_    0.197495 0.243617 0.030384 0.068026
H42   H     H_    0.683620 0.622846 0.247418 0.098158
H43   H     H_    0.928107 0.789974 0.131853 0.120004
H44   H     H_    0.970995 0.776828 0.968871 0.068483
H45   H     H_    0.316762 0.198053 0.655492 -0.013662
H46   H     H_    0.029661 0.770140 0.883284 0.120339
H47   H     H_    0.041591 0.557012 0.717635 0.116964
H48   H     H_    0.982687 0.788365 0.046353 0.068789
H49   H     H_    0.836436 0.561703 0.401422 0.094325
H50   H     H_    0.354313 0.420073 0.608877 0.058210
H51   H     H_    0.346337 0.959827 0.557820 0.095242
H52   H     H_    0.845535 0.045803 0.443218 0.105508
H53   H     H_    0.377691 0.273493 0.521527 0.068311
H54   H     H_    0.015083 0.183207 0.715962 0.144078
H55   H     H_    0.212644 0.097784 0.717248 0.114501
H56   H     H_    0.331865 0.255851 0.430153 0.011274
H57   H     H_    0.129563 0.236500 0.447605 0.068048
N1    N     N_R   0.962395 0.523702 0.206109 -0.422072
N2    N     N_R   0.260930 0.506629 0.797814 -0.423807
O1    O     O_2   0.907040 0.557650 0.617910 -0.466297
O2    O     O_3   0.663153 0.222076 0.397238 -0.644750
O3    O     O_3   0.113691 0.133155 0.624450 -0.612028
O4    O     O_2   0.282660 0.442310 0.382060 -0.444960
O5    O     O_3   0.050670 0.442340 0.442260 -0.493930
O6    O     O_3   0.504750 0.639360 0.411530 -0.461864
O7    O     O_3   0.151400 0.269856 0.375340 -0.628590
O8    O     O_3   0.618400 0.630290 0.524520 -0.471781
O9    O     O_3   0.090070 0.694820 0.435810 -0.455308
O10   O     O_2   0.207672 0.881146 0.461813 -0.486294
O11   O     O_3   0.049816 0.870290 0.376591 -0.614281
O12   O     O_3   0.139040 0.557570 0.557730 -0.472896
O13   O     O_3   0.571310 0.369620 0.475470 -0.487813
O14   O     O_2   0.348200 0.764910 0.523260 -0.472069
O15   O     O_3   0.517541 0.794414 0.609193 -0.665600
O16   O     O_2   0.464657 0.508986 0.327318 -0.488649
O17   O     O_3   0.382442 0.714707 0.319902 -0.570911
O18   O     O_2   0.026664 0.342345 0.197213 -0.597600
O19   O     O_2   0.380938 0.333984 0.800063 -0.604502
O20   O     O_2   0.914218 0.705434 0.209359 -0.620327
O21   O     O_2   0.142769 0.680780 0.802404 -0.607001
O22   O     O_3   0.684960 0.360550 0.588460 -0.490454
O23   O     O_2   0.842120 0.417656 0.672799 -0.494448
O24   O     O_3   0.004631 0.729464 0.618955 -0.645693
O25   O     O_3   0.682297 0.257713 0.676890 -0.590420
O26   O     O_2   0.841490 0.235060 0.476710 -0.468512
O27   O     O_3   0.099640 0.305100 0.564190 -0.486811
O28   O     O_2   0.012177 0.114802 0.531783 -0.487441
P1    P     P_3+3 0.072810 0.589830 0.610360 0.972985
P2    P     P_3+3 0.661990 0.251250 0.462170 0.971683
P3    P     P_3+3 0.143188 0.166347 0.564929 0.936067
P4    P     P_3+3 0.116900 0.410080 0.389630 0.992736
P5    P     P_3+3 0.055170 0.836181 0.437529 0.980636
P6    P     P_3+3 0.676703 0.382175 0.653584 0.958415
P7    P     P_3+3 0.530562 0.763475 0.544230 0.930601
P8    P     P_3+3 0.522615 0.617465 0.346532 0.970872
N3    N     N_3   0.890083 0.728486 0.511273 -0.434413
H58   H     H_    0.850730 0.708076 0.544150 0.198952
H59   H     H_    0.007887 0.744267 0.522422 0.193053

loop_
_geom_bond_atom_site_label_1
_geom_bond_atom_site_label_2
_ccdc_geom_bond_type
C25   C46   A    
C56   C60   S    
C12   H45   S    
C53   C54   A    
C22   H50   S    
Ba2   P4    S    
O13   P2    S    
O8    P7    S    
O10   P5    D    
C62   H13   S    
Ba1   O22   S    
C17   C18   A    
Ba1   O5    S    
C23   H54   S    
Ba2   O6    S    
C3    O15   S    
O23   P6    D    
C51   C52   A    
C32   O21   D    
C32   N2    Am   
C4    H21   S    
O14   P7    D    
C34   C45   S    
C3    C4    S    
C2    H16   S    
O17   P8    S    
C28   C29   A    
C3    H19   S    
C57   P7    S    
C55   C57   A    
C31   C47   A    
O12   P1    S    
C5    H25   S    
C10   C20   A    
C49   N3    S    
C22   C37   D    
C54   C55   A    
Ba1   P1    S    
Ba1   Ba2   S    
O28   P3    D    
O26   P2    D    
C2    H1    S    
O5    P4    S    
O9    P5    S    
C25   C42   A    
O11   P5    S    
C17   C41   A    
C14   C15   D    
C28   H39   S    
C1    H17   S    
C22   C36   S    
C60   H9    S    
Ba1   O26   S    
O7    P4    S    
C6    H28   S    
Ba1   O13   S    
C7    C8    S    
C7    H31   S    
C45   H2    S    
C50   C53   A    
C19   H37   S    
Ba2   O4    S    
C50   C52   A    
C13   C21   S    
O1    P1    D    
O16   P8    D    
C14   P4    S    
C23   H55   S    
C26   C30   A    
C45   H3    S    
C43   H41   S    
C12   H34   S    
C38   H47   S    
C19   C43   A    
C9    C18   A    
C4    H20   S    
C1    H23   S    
Ba2   O8    S    
C5    C6    S    
C17   C20   A    
C5    O11   S    
O4    P4    D    
C37   C38   D    
C51   C55   A    
C56   O24   S    
C56   H6    S    
C5    H26   S    
C37   P1    S    
C23   H24   S    
Ba2   O13   S    
C35   H38   S    
C27   H40   S    
C58   C59   A    
C40   C43   A    
N3    H59   S    
C8    H33   S    
C41   C42   A    
C58   P5    S    
C13   P8    S    
C35   C36   S    
C34   O7    S    
C21   H49   S    
O22   P6    S    
O15   P7    S    
Ba2   O9    S    
C29   C30   A    
C8    H32   S    
C44   H43   S    
C59   H52   S    
C48   H48   S    
C15   C16   S    
C60   H8    S    
Ba1   O27   S    
C6    H27   S    
Ba1   P2    S    
C1    H12   S    
C9    O18   D    
C61   O2    S    
C16   N1    S    
C11   C16   D    
C46   C47   A    
C20   C44   A    
C14   C21   D    
C11   C13   S    
C62   H15   S    
C29   C33   A    
C9    N1    Am   
C49   C57   A    
C40   C41   A    
C1    C2    S    
O3    P3    S    
C45   H4    S    
O6    P8    S    
C24   C40   A    
C42   C48   A    
C53   P2    S    
C38   C39   S    
Ba2   O14   S    
C62   H14   S    
C6    H29   S    
C36   P6    S    
C11   H42   S    
Ba1   O8    S    
C12   O3    S    
C52   P3    S    
C56   H5    S    
C61   H10   S    
C44   C48   A    
C24   C26   A    
Ba2   O12   S    
C4    H22   S    
C10   O20   D    
C30   C31   A    
C39   N2    S    
C33   N2    Am   
O24   P1    S    
Ba1   O1    S    
N3    H58   S    
O2    P2    S    
C3    H18   S    
C46   H44   S    
C61   H11   S    
C7    O17   S    
C31   C32   A    
C60   H7    S    
C34   H57   S    
O25   P6    S    
C12   C23   S    
C35   C39   D    
C8    H35   S    
C34   H56   S    
C15   H36   S    
C33   O19   D    
C27   C28   A    
C61   C62   S    
C10   N1    Am   
C18   C19   A    
C24   C27   A    
O27   P3    S    
C50   H53   S    
C25   C26   A    
C54   C59   A    
C49   C58   A    
Ba1   O12   S    
C7    H30   S    
C51   H51   S    
Ba2   O5    S    
C47   H46   S    
C2    O25   S    
