data_mof_unit_26128.cif
_audit_creation_date              2012-12-10T18:09:32-0500
_audit_creation_method            fapswitch 2.2
_symmetry_space_group_name_H-M    P1
_symmetry_Int_Tables_number       1
_space_group_crystal_system       triclinic
_cell_length_a                    15.169093
_cell_length_b                    15.248081
_cell_length_c                    9.407644
_cell_angle_alpha                 90.164477
_cell_angle_beta                  89.913324
_cell_angle_gamma                 90.037759
_cell_volume                      2175.97198416

loop_
_atom_site_label
_atom_site_type_symbol
_atom_type_description
_atom_site_fract_x
_atom_site_fract_y
_atom_site_fract_z
_atom_type_partial_charge
C1    C     C_R   0.121832 0.381441 0.499797 0.776563
C2    C     C_R   0.118033 0.622240 0.500009 0.783701
C3    C     C_R   0.618083 0.877823 0.499810 0.778815
C4    C     C_R   0.621089 0.119166 0.500047 0.788224
C5    C     C_3   0.092146 0.495774 0.083693 -0.187887
C6    C     C_3   0.092123 0.495356 0.915922 -0.191978
C7    C     C_3   0.569309 0.059885 0.083815 -0.189163
C8    C     C_3   0.569210 0.059987 0.916368 -0.188961
C9    C     C_R   0.880719 0.379244 0.500074 0.776492
C10   C     C_R   0.877683 0.617610 0.499975 0.778149
C11   C     C_R   0.378163 0.881953 0.499942 0.775819
C12   C     C_R   0.381118 0.121039 0.500340 0.774514
C13   C     C_3   0.838240 0.235554 0.396099 -0.400503
C14   C     C_3   0.722811 0.349740 0.453819 -0.390021
C15   C     C_3   0.848251 0.773804 0.544016 -0.390562
C16   C     C_3   0.767438 0.694628 0.348314 -0.384619
C17   C     C_3   0.239291 0.834275 0.617427 -0.389947
C18   C     C_3   0.350563 0.723908 0.529832 -0.390022
C19   C     C_3   0.221317 0.147957 0.479259 -0.387377
C20   C     C_3   0.312437 0.239655 0.645643 -0.385692
C21   C     C_3   0.170251 0.759565 0.624912 0.002387
C22   C     C_3   0.279745 0.650691 0.522099 -0.006412
C23   C     C_3   0.148388 0.219302 0.483349 -0.001949
C24   C     C_3   0.244257 0.314727 0.643869 0.002555
C25   C     C_3   0.763179 0.167228 0.385159 -0.000243
C26   C     C_3   0.649145 0.278990 0.459903 -0.005945
C27   C     C_3   0.779297 0.847861 0.531203 -0.013511
C28   C     C_3   0.690443 0.760832 0.349903 0.006159
C29   C     C_3   0.801853 0.270051 0.650969 -0.385549
C30   C     C_3   0.732692 0.661328 0.605152 -0.393957
C31   C     C_3   0.260248 0.811469 0.354382 -0.385418
C32   C     C_3   0.330532 0.256806 0.379803 -0.388562
C33   C     C_3   0.812213 0.310081 0.500147 0.104777
C34   C     C_3   0.807650 0.685225 0.499346 0.101676
C35   C     C_3   0.308357 0.814266 0.500184 0.103906
C36   C     C_3   0.312832 0.190221 0.501246 0.103513
C37   C     C_3   0.186197 0.692515 0.499855 0.149591
C38   C     C_3   0.191558 0.312739 0.499594 0.150844
C39   C     C_3   0.690488 0.187941 0.499880 0.154312
C40   C     C_3   0.685889 0.807357 0.499601 0.146134
C41   C     C_3   0.185579 0.743481 0.356552 -0.363658
C42   C     C_3   0.257914 0.326961 0.375590 -0.372089
C43   C     C_3   0.734808 0.194925 0.648872 -0.370604
C44   C     C_3   0.664586 0.736463 0.613514 -0.359628
C45   C     C_3   0.959862 0.580399 0.084117 -0.186835
C46   C     C_3   0.960256 0.580604 0.916717 -0.187700
C47   C     C_3   0.952259 0.423914 0.083474 -0.189507
C48   C     C_3   0.951906 0.424151 0.916120 -0.186041
C49   C     C_3   0.415003 0.028345 0.084011 -0.185784
C50   C     C_3   0.414982 0.028260 0.916581 -0.188288
C51   C     C_3   0.519210 0.911349 0.083345 -0.191213
C52   C     C_3   0.519366 0.911364 0.915759 -0.188156
Cu1   Cu    Cu3+1 0.000100 0.500000 0.642410 0.880211
Cu2   Cu    Cu3+1 0.000100 0.500000 0.357590 0.883395
Cu3   Cu    Cu3+1 0.500100 1.000000 0.642410 0.884102
Cu4   Cu    Cu3+1 0.500100 1.000000 0.357590 0.880416
H1    H     H_    0.899809 0.204484 0.435355 0.179418
H2    H     H_    0.706758 0.407043 0.522869 0.162437
H3    H     H_    0.872761 0.768352 0.655177 0.186151
H4    H     H_    0.745711 0.629143 0.308791 0.174155
H5    H     H_    0.207831 0.898722 0.594629 0.167925
H6    H     H_    0.405123 0.711981 0.452794 0.169147
H7    H     H_    0.221149 0.111446 0.376482 0.173800
H8    H     H_    0.379802 0.264455 0.669529 0.178511
H9    H     H_    0.180599 0.724150 0.727035 0.141339
H10   H     H_    0.279535 0.615581 0.625761 0.130726
H11   H     H_    0.106718 0.207522 0.579073 0.124604
H12   H     H_    0.197004 0.302612 0.732500 0.137694
H13   H     H_    0.732659 0.174159 0.278054 0.140956
H14   H     H_    0.619793 0.273281 0.351726 0.129106
H15   H     H_    0.798462 0.888172 0.437919 0.139019
H16   H     H_    0.704980 0.811271 0.267646 0.136018
H17   H     H_    0.866374 0.244913 0.689740 0.154461
H18   H     H_    0.779186 0.321288 0.727256 0.163741
H19   H     H_    0.759816 0.649461 0.713229 0.160237
H20   H     H_    0.699654 0.599774 0.570133 0.150323
H21   H     H_    0.232552 0.877177 0.328970 0.150551
H22   H     H_    0.307652 0.794004 0.268349 0.167765
H23   H     H_    0.332504 0.222794 0.275034 0.164340
H24   H     H_    0.395746 0.288779 0.395653 0.159668
H25   H     H_    0.121180 0.776528 0.340286 0.153164
H26   H     H_    0.193751 0.698382 0.264449 0.166928
H27   H     H_    0.224089 0.324614 0.271044 0.165731
H28   H     H_    0.288833 0.392475 0.381971 0.159396
H29   H     H_    0.768170 0.132439 0.676405 0.157030
H30   H     H_    0.685154 0.206461 0.733871 0.164643
H31   H     H_    0.665563 0.765391 0.721943 0.161449
H32   H     H_    0.596929 0.709950 0.598764 0.148891
H33   H     H_    0.994614 0.639658 0.124708 0.134028
H34   H     H_    0.995738 0.639645 0.877322 0.137954
H35   H     H_    0.981685 0.361649 0.122507 0.136940
H36   H     H_    0.980629 0.361752 0.875613 0.132317
H37   H     H_    0.399109 0.095740 0.121108 0.135642
H38   H     H_    0.399017 0.095578 0.879900 0.136963
H39   H     H_    0.584329 0.887395 0.120426 0.146486
H40   H     H_    0.584644 0.887549 0.878437 0.139276
H41   H     H_    0.890353 0.585379 0.120856 0.136170
H42   H     H_    0.891006 0.586328 0.879417 0.135122
H43   H     H_    0.882806 0.425066 0.121482 0.135423
H44   H     H_    0.882314 0.426028 0.879265 0.134297
H45   H     H_    0.361479 0.984978 0.123990 0.132687
H46   H     H_    0.361526 0.984765 0.876609 0.132324
H47   H     H_    0.469310 0.863755 0.122724 0.136035
H48   H     H_    0.469695 0.863630 0.875869 0.134478
H49   H     H_    0.131696 0.552397 0.122340 0.137178
H50   H     H_    0.132178 0.551399 0.876715 0.134692
H51   H     H_    0.126185 0.435842 0.121995 0.137683
H52   H     H_    0.125588 0.434870 0.877977 0.145615
H53   H     H_    0.557637 0.127908 0.122585 0.133151
H54   H     H_    0.557234 0.128011 0.878557 0.135740
H55   H     H_    0.635709 0.040302 0.122556 0.138397
H56   H     H_    0.635617 0.040648 0.876826 0.137714
N1    N     N_3   0.001260 0.500000 0.143650 -0.108851
N2    N     N_3   0.001260 0.500000 0.856350 -0.108395
N3    N     N_3   0.501260 0.000000 0.143650 -0.108534
N4    N     N_3   0.501260 0.000000 0.856350 -0.108008
O1    O     O_R   0.091250 0.408820 0.620260 -0.600817
O2    O     O_R   0.091250 0.408820 0.379740 -0.589433
O3    O     O_R   0.091250 0.591180 0.620260 -0.603489
O4    O     O_R   0.091250 0.591180 0.379740 -0.591767
O5    O     O_R   0.591250 0.908820 0.620260 -0.585823
O6    O     O_R   0.591250 0.908820 0.379740 -0.603141
O7    O     O_R   0.591250 0.091180 0.620260 -0.595525
O8    O     O_R   0.591250 0.091180 0.379740 -0.603940
O9    O     O_R   0.908940 0.408800 0.620260 -0.596546
O10   O     O_R   0.908940 0.408800 0.379740 -0.599787
O11   O     O_R   0.908940 0.591200 0.620260 -0.599349
O12   O     O_R   0.908940 0.591200 0.379740 -0.597208
O13   O     O_R   0.408940 0.908800 0.620260 -0.595859
O14   O     O_R   0.408940 0.908800 0.379740 -0.597012
O15   O     O_R   0.408940 0.091200 0.620260 -0.597846
O16   O     O_R   0.408940 0.091200 0.379740 -0.596167
H57   H     H_    0.852343 0.261959 0.288226 0.145699
H58   H     H_    0.728258 0.375167 0.343314 0.132819
H59   H     H_    0.905841 0.789419 0.475085 0.133015
H60   H     H_    0.818902 0.718217 0.272926 0.135687
H61   H     H_    0.271649 0.840522 0.723128 0.144605
H62   H     H_    0.381044 0.724051 0.637456 0.131498
H63   H     H_    0.208406 0.098757 0.564062 0.122370
H64   H     H_    0.295077 0.193546 0.732932 0.136229
C53   C     C_3   0.076424 0.797846 0.632499 -0.942204
H65   H     H_    0.060495 0.836888 0.536688 0.238020
H66   H     H_    0.027095 0.744975 0.645277 0.241110
H67   H     H_    0.070614 0.841570 0.726703 0.232128
C54   C     C_3   0.304985 0.582548 0.407786 -0.924651
H68   H     H_    0.317199 0.613929 0.303291 0.242544
H69   H     H_    0.366198 0.547982 0.439909 0.229655
H70   H     H_    0.252166 0.533204 0.395140 0.234813
C55   C     C_3   0.087103 0.208669 0.353582 -0.924575
H71   H     H_    0.123836 0.215105 0.252112 0.239873
H72   H     H_    0.056165 0.142613 0.355560 0.228308
H73   H     H_    0.033185 0.257422 0.355479 0.240266
C56   C     C_3   0.290098 0.403121 0.676647 -0.922091
H74   H     H_    0.346497 0.414880 0.603893 0.246349
H75   H     H_    0.243983 0.459137 0.668843 0.244509
H76   H     H_    0.316068 0.402168 0.786975 0.224105
C57   C     C_3   0.800884 0.073671 0.390011 -0.949577
H77   H     H_    0.849186 0.064653 0.302300 0.233637
H78   H     H_    0.835351 0.061094 0.491689 0.248337
H79   H     H_    0.747897 0.024622 0.374357 0.239916
C58   C     C_3   0.573691 0.308387 0.559107 -0.923048
H80   H     H_    0.598019 0.322865 0.667835 0.242605
H81   H     H_    0.542708 0.368858 0.516592 0.227770
H82   H     H_    0.521949 0.257281 0.565237 0.224965
C59   C     C_3   0.784411 0.908956 0.662182 -0.912471
H83   H     H_    0.763662 0.874896 0.760695 0.238108
H84   H     H_    0.853329 0.931960 0.676859 0.229132
H85   H     H_    0.743215 0.968197 0.647438 0.244585
C60   C     C_3   0.603848 0.714895 0.304564 -0.924608
H86   H     H_    0.591125 0.655364 0.369069 0.240791
H87   H     H_    0.545993 0.758787 0.314146 0.240453
H88   H     H_    0.608923 0.694303 0.191484 0.222707

loop_
_geom_bond_atom_site_label_1
_geom_bond_atom_site_label_2
_ccdc_geom_bond_type
C12   O16   A    
C16   C28   S    
Cu3   Cu4   S    
Cu3   O5    S    
C59   H83   S    
C12   O15   A    
Cu2   O4    S    
C60   H86   S    
C25   H13   S    
C30   C44   S    
C58   H82   S    
C14   C33   S    
C58   H80   S    
C7    C8    S    
C24   H12   S    
C5    H49   S    
Cu1   Cu2   S    
C24   C56   S    
Cu2   O10   S    
C57   H77   S    
C37   C41   S    
C32   C36   S    
C38   C42   S    
C19   C36   S    
C55   H72   S    
C49   H45   S    
C5    C6    S    
Cu1   O1    S    
C26   C39   S    
C29   H17   S    
Cu3   N4    S    
C28   C40   S    
C51   H47   S    
Cu2   N1    S    
C29   C33   S    
C47   H43   S    
C4    O8    A    
C16   H4    S    
C7    N3    S    
C18   H62   S    
C6    N2    S    
Cu1   O11   S    
C17   H5    S    
C21   H9    S    
C22   H10   S    
C20   C24   S    
C14   H2    S    
C19   H7    S    
Cu3   O13   S    
C24   C38   S    
C22   C54   S    
C58   H81   S    
C12   C36   S    
C44   H31   S    
C45   H33   S    
C18   C35   S    
C15   C34   S    
C3    O6    A    
C16   C34   S    
C46   H42   S    
C57   H78   S    
C29   C43   S    
C9    C33   S    
C60   H87   S    
C13   C25   S    
C28   H16   S    
C47   H35   S    
C10   O12   A    
C11   O13   A    
C54   H69   S    
C31   H21   S    
C52   N4    S    
C48   H44   S    
Cu3   O7    S    
C30   C34   S    
C8    H56   S    
C51   C52   S    
C43   H29   S    
C13   H1    S    
C42   H28   S    
C55   H73   S    
C46   N2    S    
C50   H38   S    
C39   C43   S    
C29   H18   S    
C14   H58   S    
C44   H32   S    
C45   C46   S    
C22   C37   S    
Cu2   O12   S    
C51   N3    S    
C7    H53   S    
C4    O7    A    
Cu4   O6    S    
C20   H8    S    
C19   C23   S    
C13   C33   S    
C8    H54   S    
C32   H24   S    
C30   H20   S    
C15   C27   S    
C47   C48   S    
C4    C39   S    
C27   C40   S    
C41   H25   S    
C6    H50   S    
C21   C37   S    
C10   C34   S    
C1    O1    A    
C14   C26   S    
C56   H76   S    
Cu4   O16   S    
Cu1   O9    S    
C1    C38   S    
C27   C59   S    
C19   H63   S    
C49   N3    S    
C3    C40   S    
C50   H46   S    
C59   H85   S    
Cu3   O15   S    
Cu2   O2    S    
C25   C57   S    
C26   H14   S    
C60   H88   S    
C31   C35   S    
C53   H67   S    
C56   H75   S    
C10   O11   A    
C16   H60   S    
C11   O14   A    
Cu4   O8    S    
C54   H68   S    
C54   H70   S    
C27   H15   S    
Cu1   N2    S    
C31   H22   S    
C48   N2    S    
C5    H51   S    
C47   N1    S    
C52   H48   S    
C32   C42   S    
C31   C41   S    
C5    N1    S    
C18   C22   S    
C43   H30   S    
C15   H3    S    
C18   H6    S    
C42   H27   S    
C2    O3    A    
Cu1   O3    S    
C46   H34   S    
C57   H79   S    
C23   C38   S    
C26   C58   S    
C9    O10   A    
C20   H64   S    
C53   H66   S    
C21   C53   S    
C45   H41   S    
C53   H65   S    
C25   C39   S    
C32   H23   S    
C30   H19   S    
C2    C37   S    
C23   H11   S    
C41   H26   S    
C11   C35   S    
Cu4   N3    S    
C7    H55   S    
C52   H40   S    
C50   N4    S    
C1    O2    A    
C23   C55   S    
C13   H57   S    
C8    N4    S    
C20   C36   S    
C9    O9    A    
C45   N1    S    
C28   C60   S    
C40   C44   S    
C15   H59   S    
C59   H84   S    
C49   C50   S    
C48   H36   S    
C6    H52   S    
C17   H61   S    
C17   C35   S    
C49   H37   S    
C56   H74   S    
C55   H71   S    
C2    O4    A    
Cu4   O14   S    
C3    O5    A    
C51   H39   S    
C17   C21   S    
