data_mof_unit_35802.cif
_audit_creation_date              2012-12-11T15:56:40-0500
_audit_creation_method            fapswitch 2.2
_symmetry_space_group_name_H-M    P1
_symmetry_Int_Tables_number       1
_space_group_crystal_system       triclinic
_cell_length_a                    17.566822
_cell_length_b                    24.403852
_cell_length_c                    15.043175
_cell_angle_alpha                 89.89297
_cell_angle_beta                  126.082035
_cell_angle_gamma                 90.033857
_cell_volume                      5211.89234281

loop_
_atom_site_label
_atom_site_type_symbol
_atom_type_description
_atom_site_fract_x
_atom_site_fract_y
_atom_site_fract_z
_atom_type_partial_charge
C1    C     C_R   0.314727 0.131229 0.907113 0.597972
C2    C     C_R   0.555541 0.152873 0.909045 -0.185692
C3    C     C_R   0.816603 0.356647 0.999011 -0.124969
C4    C     C_R   0.564123 0.999497 0.366612 0.189158
C5    C     C_R   0.068995 0.500762 0.369065 0.108827
C6    C     C_R   0.194737 0.000447 0.636220 0.114211
C7    C     C_R   0.707113 0.499551 0.627126 0.116216
C8    C     C_R   0.517992 0.045935 0.750334 -0.081258
C9    C     C_R   0.518894 0.953943 0.751903 -0.054918
C10   C     C_R   0.011125 0.546667 0.743327 -0.094464
C11   C     C_R   0.014142 0.454407 0.745767 -0.055427
C12   C     C_R   0.769922 0.953571 0.257805 0.551399
C13   C     C_R   0.056205 0.347652 0.908357 -0.184027
C14   C     C_R   0.770791 0.045483 0.258694 0.541215
C15   C     C_R   0.271509 0.454372 0.272912 0.539933
C16   C     C_R   0.270745 0.546096 0.272958 0.529318
C17   C     C_3   0.311591 0.180176 0.775095 -0.330679
C18   C     C_3   0.309857 0.820293 0.774619 -0.383974
C19   C     C_3   0.808323 0.679892 0.774031 -0.361937
C20   C     C_3   0.809073 0.319910 0.774945 -0.347005
C21   C     C_3   0.042961 0.862785 0.549313 -0.203396
C22   C     C_3   0.027702 0.106064 0.624148 -0.154089
C23   C     C_3   0.518372 0.359750 0.406276 -0.162837
C24   C     C_R   0.056044 0.652745 0.909209 -0.177466
C25   C     C_3   0.492350 0.558571 0.650336 -0.180162
C26   C     C_3   0.075820 0.988500 0.270942 -0.284023
C27   C     C_3   0.542146 0.594697 0.298203 -0.253907
C28   C     C_3   0.941150 0.801043 0.792574 -0.339085
C29   C     C_3   0.942766 0.196881 0.798627 -0.340077
C30   C     C_3   0.442088 0.307606 0.808638 -0.311264
C31   C     C_3   0.440102 0.697765 0.793630 -0.328947
C32   C     C_3   0.745641 0.106118 0.591760 -0.323342
C33   C     C_3   0.731418 0.885191 0.584549 -0.317364
C34   C     C_3   0.201845 0.631022 0.566037 -0.348804
C35   C     C_R   0.545526 0.999853 0.721636 0.090793
C36   C     C_3   0.277185 0.448480 0.578923 -0.151509
C37   C     C_3   0.322554 0.067696 0.447478 -0.187944
C38   C     C_3   0.328278 0.936562 0.424957 -0.312136
C39   C     C_3   0.811203 0.559171 0.422036 -0.177903
C40   C     C_3   0.823663 0.432345 0.417711 -0.356186
C41   C     C_3   0.767570 0.887501 0.363593 -0.285185
C42   C     C_3   0.767366 0.113266 0.360982 -0.237943
C43   C     C_3   0.257958 0.378128 0.350531 -0.258848
C44   C     C_3   0.264857 0.613789 0.371424 -0.328697
C45   C     C_3   0.932251 0.984643 0.619326 -0.161902
C46   C     C_R   0.037473 0.500951 0.713064 0.100461
C47   C     C_3   0.507810 0.407915 0.628277 -0.292103
C48   C     C_R   0.825703 0.999113 0.284246 -0.160041
C49   C     C_R   0.327954 0.500537 0.310253 -0.160377
C50   C     C_R   0.613948 0.184632 0.000565 0.047642
C51   C     C_R   0.613632 0.815190 0.000719 0.048439
C52   C     C_R   0.114708 0.684408 0.000912 0.043955
C53   C     C_R   0.314140 0.869403 0.906940 0.623598
C54   C     C_R   0.114568 0.315768 0.999521 0.042266
C55   C     C_3   0.029430 0.956504 0.516300 0.453522
C56   C     C_3   0.029428 0.046360 0.504849 0.463683
C57   C     C_3   0.550913 0.449426 0.465755 0.450853
C58   C     C_3   0.540676 0.517156 0.553351 0.409327
C59   C     C_3   0.959545 0.002669 0.488182 0.446420
C60   C     C_3   0.482865 0.466565 0.492513 0.486891
C61   C     C_3   0.924870 0.998086 0.367934 -0.029152
C62   C     C_3   0.429108 0.501241 0.386631 -0.045251
C63   C     C_3   0.994254 0.950852 0.395350 -0.426269
C64   C     C_R   0.813685 0.630214 0.906617 0.631418
C65   C     C_3   0.994919 0.041986 0.384240 -0.325446
C66   C     C_3   0.497912 0.483864 0.358812 -0.421989
C67   C     C_3   0.488770 0.552847 0.449478 -0.398742
C68   C     C_3   0.065964 0.995237 0.416102 0.606520
C69   C     C_3   0.559129 0.534200 0.425997 0.637190
C70   C     C_R   0.403755 0.873138 0.091818 -0.250576
C71   C     C_R   0.404504 0.127290 0.092124 -0.246171
C72   C     C_R   0.903658 0.373383 0.091882 -0.242542
C73   C     C_R   0.903430 0.626660 0.091542 -0.252602
C74   C     C_3   0.101341 0.000487 0.535995 -0.298968
C75   C     C_R   0.813907 0.369630 0.906913 0.606192
C76   C     C_3   0.611924 0.499444 0.530515 -0.253474
C77   C     C_3   0.271067 0.812559 0.112301 -0.410933
C78   C     C_3   0.273350 0.188459 0.113347 -0.406743
C79   C     C_3   0.773292 0.311608 0.113708 -0.409388
C80   C     C_3   0.770227 0.686852 0.111736 -0.402626
C81   C     C_3   0.712325 0.265957 0.111948 -0.406587
C82   C     C_3   0.707802 0.731889 0.109035 -0.413216
C83   C     C_3   0.208553 0.767482 0.109351 -0.414096
C84   C     C_3   0.211420 0.233768 0.110482 -0.411701
C85   C     C_3   0.790186 0.258874 0.981644 -0.404981
C86   C     C_R   0.645215 0.152745 0.091041 -0.096224
C87   C     C_3   0.791462 0.741075 0.984241 -0.410516
C88   C     C_3   0.292978 0.758583 0.985427 -0.407905
C89   C     C_3   0.293500 0.242241 0.984608 -0.402040
C90   C     C_3   0.152269 0.822302 0.908856 -0.527972
C91   C     C_3   0.153877 0.178040 0.910612 -0.547726
C92   C     C_3   0.651742 0.323491 0.911138 -0.543267
C93   C     C_3   0.651210 0.677312 0.908295 -0.527533
C94   C     C_3   0.258962 0.813871 0.001154 0.372882
C95   C     C_3   0.260417 0.186949 0.001856 0.380405
C96   C     C_3   0.758628 0.314037 0.001188 0.380063
C97   C     C_R   0.645196 0.847123 0.091235 -0.099781
C98   C     C_3   0.757933 0.685693 0.000453 0.368374
C99   C     C_3   0.662764 0.233544 0.001973 0.263238
C100  C     C_3   0.662229 0.766223 0.001626 0.264448
C101  C     C_3   0.163437 0.733262 0.002081 0.266461
C102  C     C_3   0.163988 0.267183 0.001511 0.263160
C103  C     C_3   0.739162 0.211598 0.990360 -0.522177
C104  C     C_3   0.741650 0.788270 0.995345 -0.519946
C105  C     C_3   0.243154 0.711283 0.996384 -0.522733
C106  C     C_3   0.242151 0.289416 0.993123 -0.523351
C107  C     C_3   0.594955 0.273228 0.904911 0.557554
C108  C     C_R   0.145837 0.652535 0.091532 -0.096945
C109  C     C_3   0.595338 0.728211 0.901040 0.550104
C110  C     C_3   0.096666 0.771246 0.901235 0.553364
C111  C     C_3   0.097194 0.228491 0.902679 0.563980
C112  C     C_3   0.619431 0.046519 0.642586 -0.594634
C113  C     C_3   0.598553 0.944936 0.627556 -0.650054
C114  C     C_3   0.105575 0.552754 0.632105 -0.545814
C115  C     C_3   0.102995 0.449150 0.630343 -0.614923
C116  C     C_R   0.548276 0.045293 0.304142 -0.153532
C117  C     C_R   0.548267 0.954150 0.303652 -0.159916
C118  C     C_R   0.050426 0.545850 0.304494 -0.125959
C119  C     C_R   0.144986 0.347070 0.089961 -0.084335
C120  C     C_R   0.051207 0.454916 0.305881 -0.191816
C121  C     C_3   0.618579 0.049989 0.539716 0.607886
C122  C     C_3   0.608603 0.945073 0.532636 0.622776
C123  C     C_3   0.100680 0.558193 0.526793 0.603490
C124  C     C_3   0.132568 0.455412 0.552732 0.566911
C125  C     C_3   0.451160 0.006304 0.518387 1.186057
C126  C     C_3   0.947190 0.501514 0.509978 1.164538
C127  C     C_3   0.553487 0.999504 0.629120 0.076243
C128  C     C_3   0.048123 0.501184 0.623290 0.065629
C129  C     C_3   0.565539 0.999174 0.465227 0.004461
C130  C     C_R   0.555296 0.847102 0.909242 -0.182462
C131  C     C_3   0.069405 0.501624 0.466974 0.013329
C132  C     C_3   0.460831 0.001840 0.421756 -0.902736
C133  C     C_3   0.964350 0.491567 0.420774 -0.854440
C134  C     C_R   0.242484 0.954736 0.695166 -0.004344
C135  C     C_R   0.241901 0.045847 0.696084 -0.099619
C136  C     C_R   0.748356 0.454514 0.691766 -0.086653
C137  C     C_R   0.748999 0.545038 0.690370 0.019102
C138  C     C_R   0.317837 0.144321 0.999386 -0.127570
C139  C     C_R   0.316698 0.856533 0.998940 -0.128215
C140  C     C_R   0.816093 0.643117 0.998494 -0.123094
H1    H     H_    0.345276 0.803161 0.181421 0.159304
H2    H     H_    0.753335 0.757415 0.183645 0.155537
H3    H     H_    0.129754 0.140339 0.929025 0.183764
H4    H     H_    0.628993 0.361275 0.930864 0.185932
H5    H     H_    0.626461 0.639875 0.926629 0.187143
H6    H     H_    0.915562 0.765018 0.736809 0.132126
H7    H     H_    0.959266 0.835177 0.759035 0.152369
H8    H     H_    0.882612 0.815101 0.795455 0.178828
H9    H     H_    0.960781 0.162439 0.765802 0.137993
H10   H     H_    0.915389 0.232306 0.740997 0.133298
H11   H     H_    0.885535 0.182790 0.803951 0.179159
H12   H     H_    0.414675 0.274863 0.745434 0.124116
H13   H     H_    0.253944 0.741907 0.184123 0.156674
H14   H     H_    0.458809 0.345101 0.781372 0.147027
H15   H     H_    0.385068 0.318263 0.816768 0.182364
H16   H     H_    0.457959 0.663297 0.760689 0.146807
H17   H     H_    0.414283 0.733533 0.736948 0.127170
H18   H     H_    0.381699 0.683995 0.797082 0.181946
H19   H     H_    0.773345 0.257634 0.898228 0.198865
H20   H     H_    0.775123 0.743346 0.901035 0.195486
H21   H     H_    0.277182 0.756399 0.902475 0.196287
H22   H     H_    0.278488 0.244011 0.902017 0.198817
H23   H     H_    0.707644 0.185238 0.916063 0.166618
H24   H     H_    0.258029 0.259843 0.183937 0.154253
H25   H     H_    0.713143 0.816482 0.923936 0.167392
H26   H     H_    0.214935 0.683153 0.925115 0.168279
H27   H     H_    0.212176 0.316493 0.919858 0.169228
H28   H     H_    0.692222 0.038937 0.717381 0.216240
H29   H     H_    0.668294 0.938801 0.707918 0.214431
H30   H     H_    0.179956 0.548721 0.705806 0.229629
H31   H     H_    0.165991 0.442193 0.716412 0.212525
H32   H     H_    0.742949 0.125051 0.657053 0.138150
H33   H     H_    0.705568 0.131421 0.515643 0.121070
H34   H     H_    0.820251 0.105525 0.621347 0.166617
H35   H     H_    0.867661 0.253074 0.042152 0.175791
H36   H     H_    0.693526 0.864868 0.502948 0.122769
H37   H     H_    0.719438 0.862608 0.639587 0.137206
H38   H     H_    0.807658 0.883384 0.621749 0.161969
H39   H     H_    0.197841 0.645734 0.633091 0.148022
H40   H     H_    0.149637 0.652911 0.487919 0.125806
H41   H     H_    0.272884 0.641245 0.589128 0.168324
H42   H     H_    0.252151 0.467945 0.499306 0.141851
H43   H     H_    0.271132 0.403056 0.572966 0.085588
H44   H     H_    0.353040 0.458261 0.638085 0.177568
H45   H     H_    0.287436 0.045355 0.478436 0.229574
H46   H     H_    0.869044 0.745963 0.045387 0.174841
H47   H     H_    0.293251 0.055911 0.361713 0.122188
H48   H     H_    0.306776 0.111819 0.446018 0.141594
H49   H     H_    0.365245 0.902415 0.416301 0.132507
H50   H     H_    0.289398 0.962752 0.350427 0.147240
H51   H     H_    0.275089 0.917709 0.432906 0.211045
H52   H     H_    0.774489 0.534241 0.447937 0.220361
H53   H     H_    0.787534 0.548951 0.337537 0.109243
H54   H     H_    0.790554 0.602375 0.419746 0.163506
H55   H     H_    0.854902 0.393946 0.412871 0.157739
H56   H     H_    0.793662 0.456943 0.341917 0.144456
H57   H     H_    0.370536 0.753753 0.046997 0.174399
H58   H     H_    0.764276 0.420499 0.420801 0.207576
H59   H     H_    0.689870 0.882138 0.309615 0.133440
H60   H     H_    0.787117 0.918400 0.427877 0.210125
H61   H     H_    0.799166 0.847822 0.405495 0.142985
H62   H     H_    0.799074 0.153146 0.401444 0.147748
H63   H     H_    0.784421 0.083438 0.425973 0.210927
H64   H     H_    0.689725 0.118747 0.305122 0.115828
H65   H     H_    0.179846 0.381095 0.295145 0.115382
H66   H     H_    0.283548 0.397688 0.428984 0.185378
H67   H     H_    0.277311 0.334156 0.368308 0.145982
H68   H     H_    0.370865 0.247582 0.046662 0.174034
H69   H     H_    0.295923 0.653870 0.411272 0.159810
H70   H     H_    0.286195 0.583555 0.437926 0.173167
H71   H     H_    0.187097 0.618749 0.317382 0.153402
H72   H     H_    0.683444 0.166904 0.174216 0.130643
H73   H     H_    0.683552 0.832981 0.174663 0.135361
H74   H     H_    0.184139 0.666335 0.175166 0.141596
H75   H     H_    0.180738 0.331432 0.171358 0.124573
H76   H     H_    0.007799 0.994985 0.680996 0.114715
H77   H     H_    0.922757 0.939537 0.614159 0.174790
H78   H     H_    0.892670 0.001785 0.649203 0.200968
H79   H     H_    0.790916 0.185865 0.062962 0.206404
H80   H     H_    0.533800 0.437482 0.696438 0.188550
H81   H     H_    0.567882 0.390298 0.631855 0.202278
H82   H     H_    0.474016 0.373552 0.641152 0.144663
H83   H     H_    0.793584 0.812060 0.070923 0.203454
H84   H     H_    0.294986 0.687445 0.072145 0.202233
H85   H     H_    0.347742 0.197704 0.182011 0.157305
H86   H     H_    0.293399 0.314449 0.067006 0.201897
H87   H     H_    0.136723 0.829126 0.826959 0.194249
H88   H     H_    0.139076 0.171974 0.829332 0.177081
H89   H     H_    0.635320 0.329916 0.828638 0.179650
H90   H     H_    0.635709 0.670885 0.826333 0.193325
H91   H     H_    0.432859 0.866388 0.177104 0.129258
H92   H     H_    0.434014 0.133992 0.177496 0.129200
H93   H     H_    0.932729 0.367120 0.177309 0.131699
H94   H     H_    0.932419 0.633288 0.176786 0.128918
H95   H     H_    0.567536 0.251268 0.826369 -0.009811
H96   H     H_    0.847979 0.302205 0.181286 0.160581
H97   H     H_    0.572577 0.751278 0.824847 -0.007276
H98   H     H_    0.074615 0.748331 0.825281 -0.011008
H99   H     H_    0.072805 0.251057 0.825413 -0.009531
H100  H     H_    0.597626 0.086952 0.654307 0.158760
H101  H     H_    0.553810 0.909329 0.615019 0.157234
H102  H     H_    0.078571 0.591607 0.641726 0.146724
H103  H     H_    0.057693 0.412165 0.605775 0.156253
H104  H     H_    0.577424 0.087314 0.492542 0.006703
H105  H     H_    0.565735 0.909967 0.478077 -0.023226
H106  H     H_    0.044817 0.588825 0.471431 0.025139
H107  H     H_    0.844460 0.696187 0.180717 0.159106
H108  H     H_    0.119867 0.414967 0.511792 -0.018106
H109  H     H_    0.560513 0.087550 0.330306 0.078049
H110  H     H_    0.560865 0.911725 0.328724 0.078018
H111  H     H_    0.061435 0.588343 0.328788 0.088143
H112  H     H_    0.062607 0.412621 0.332065 0.079825
H113  H     H_    0.426636 0.038026 0.366582 0.215453
H114  H     H_    0.425401 0.965864 0.367874 0.193859
H115  H     H_    0.916699 0.518473 0.348561 0.209697
H116  H     H_    0.947946 0.448740 0.390290 0.195287
H117  H     H_    0.228877 0.913738 0.663283 0.161201
H118  H     H_    0.152787 0.785945 0.113397 0.191075
H119  H     H_    0.228131 0.087083 0.665056 0.196844
H120  H     H_    0.734816 0.412898 0.663622 0.192444
H121  H     H_    0.733655 0.586560 0.660397 0.148501
H122  H     H_    0.522350 0.088374 0.733522 0.115836
H123  H     H_    0.524511 0.911376 0.737563 0.095123
H124  H     H_    0.012006 0.589245 0.724778 0.108295
H125  H     H_    0.018944 0.412056 0.728972 0.102388
H126  H     H_    0.513760 0.834361 0.824231 0.088733
H127  H     H_    0.514559 0.165625 0.823956 0.089096
H128  H     H_    0.015263 0.335252 0.823162 0.089960
H129  H     H_    0.157003 0.215689 0.117475 0.191774
H130  H     H_    0.014923 0.665549 0.824162 0.088514
H131  H     H_    0.347664 0.149329 0.757740 0.148798
H132  H     H_    0.364732 0.208584 0.840402 0.169909
H133  H     H_    0.264489 0.204595 0.699130 0.180822
H134  H     H_    0.262122 0.796339 0.698335 0.168238
H135  H     H_    0.362137 0.791359 0.839628 0.183279
H136  H     H_    0.346905 0.850722 0.757759 0.157271
H137  H     H_    0.847688 0.650307 0.759194 0.151612
H138  H     H_    0.858790 0.709560 0.838391 0.174908
H139  H     H_    0.760005 0.703186 0.696792 0.178025
H140  H     H_    0.659278 0.283620 0.121691 0.191969
H141  H     H_    0.760946 0.296647 0.697792 0.182495
H142  H     H_    0.859762 0.290290 0.839511 0.172020
H143  H     H_    0.848396 0.349583 0.760094 0.155519
H144  H     H_    0.091149 0.858031 0.524666 0.129933
H145  H     H_    0.968924 0.854751 0.478576 0.164330
H146  H     H_    0.062775 0.831468 0.613093 0.171759
H147  H     H_    0.951466 0.099526 0.583120 0.151731
H148  H     H_    0.041146 0.149305 0.651269 0.157356
H149  H     H_    0.072128 0.079738 0.697998 0.123979
H150  H     H_    0.477554 0.373175 0.318956 0.146467
H151  H     H_    0.652305 0.713369 0.113582 0.190560
H152  H     H_    0.470842 0.352712 0.431056 0.196918
H153  H     H_    0.551350 0.319838 0.412430 0.131778
H154  H     H_    0.426950 0.533601 0.601657 0.148029
H155  H     H_    0.479716 0.600270 0.614370 0.133256
H156  H     H_    0.510689 0.563165 0.734217 0.154803
H157  H     H_    0.976479 0.913127 0.345600 0.177785
H158  H     H_    0.977558 0.076542 0.327059 0.177984
H159  H     H_    0.476689 0.470954 0.276407 0.158023
H160  H     H_    0.467761 0.596024 0.445947 0.206366
H161  H     H_    0.030144 0.025091 0.230140 0.145296
H162  H     H_    0.759787 0.239218 0.184208 0.161935
H163  H     H_    0.033151 0.950333 0.239516 0.147519
H164  H     H_    0.125282 0.987279 0.248023 0.155003
H165  H     H_    0.492142 0.620640 0.302105 0.158344
H166  H     H_    0.503203 0.564436 0.230270 0.146223
H167  H     H_    0.581145 0.622015 0.278930 0.155728
H168  H     H_    0.252546 0.852960 0.129009 0.158824
H169  H     H_    0.254785 0.148182 0.130647 0.162060
H170  H     H_    0.755194 0.351639 0.132236 0.162446
H171  H     H_    0.751821 0.646401 0.128597 0.161881
H172  H     H_    0.127275 0.859514 0.927321 0.187209
N1    N     N_R   0.392450 0.103580 0.942190 -0.094840
N2    N     N_R   0.525490 0.971610 0.207550 -0.037304
N3    N     N_R   0.025490 0.528390 0.207550 -0.037657
N4    N     N_R   0.025490 0.471610 0.207550 -0.029791
N5    N     N_R   0.317450 0.971190 0.792000 -0.074152
N6    N     N_R   0.317450 0.028810 0.792000 -0.070523
N7    N     N_R   0.817450 0.471190 0.792000 -0.065831
N8    N     N_R   0.817450 0.528810 0.792000 -0.066924
N9    N     N_R   0.473900 0.028390 0.792280 -0.051133
N10   N     N_R   0.473900 0.971610 0.792280 -0.049129
N11   N     N_R   0.973900 0.528390 0.792280 -0.056107
N12   N     N_R   0.392450 0.896420 0.942190 -0.098726
N13   N     N_R   0.973900 0.471610 0.792280 -0.051402
N14   N     N_R   0.682310 0.971180 0.208170 -0.136478
N15   N     N_R   0.682310 0.028820 0.208170 -0.137640
N16   N     N_R   0.182310 0.471180 0.208170 -0.143311
N17   N     N_R   0.182310 0.528820 0.208170 -0.135915
N18   N     N_R   0.606470 0.103570 0.057210 -0.046011
N19   N     N_R   0.606470 0.896430 0.057210 -0.045313
N20   N     N_R   0.106470 0.603570 0.057210 -0.039264
N21   N     N_R   0.106470 0.396430 0.057210 -0.040674
N22   N     N_R   0.549740 0.896000 0.943240 -0.047704
N23   N     N_R   0.892450 0.603580 0.942190 -0.100442
N24   N     N_R   0.549740 0.104000 0.943240 -0.045733
N25   N     N_R   0.049740 0.396000 0.943240 -0.045936
N26   N     N_R   0.049740 0.604000 0.943240 -0.046005
N27   N     N_R   0.892450 0.396420 0.942190 -0.095610
N28   N     N_R   0.450490 0.896000 0.057360 -0.060737
N29   N     N_R   0.450490 0.104000 0.057360 -0.059910
N30   N     N_R   0.950490 0.396000 0.057360 -0.060888
N31   N     N_R   0.950490 0.604000 0.057360 -0.061972
N32   N     N_R   0.525490 0.028390 0.207550 -0.037781
Ni1   Ni    Ni4+2 0.433780 0.065390 0.868430 0.198027
Ni2   Ni    Ni4+2 0.433780 0.934610 0.868430 0.200255
Ni3   Ni    Ni4+2 0.933780 0.565390 0.868430 0.203240
Ni4   Ni    Ni4+2 0.933780 0.434610 0.868430 0.206544
Ni5   Ni    Ni4+2 0.565800 0.934190 0.131570 0.188057
Ni6   Ni    Ni4+2 0.565800 0.065810 0.131570 0.188331
Ni7   Ni    Ni4+2 0.065800 0.434190 0.131570 0.184092
Ni8   Ni    Ni4+2 0.065800 0.565810 0.131570 0.190004
O1    O     O_3   0.256484 0.154932 0.803957 -0.650175
O2    O     O_3   0.607582 0.568636 0.399534 -0.632282
O3    O     O_3   0.018242 0.786740 0.900131 -0.614124
O4    O     O_3   0.020642 0.212302 0.904791 -0.612937
O5    O     O_3   0.521053 0.289558 0.911937 -0.617986
O6    O     O_3   0.517419 0.712384 0.900778 -0.615624
O7    O     O_3   0.711854 0.051772 0.569946 -0.557469
O8    O     O_3   0.704663 0.940688 0.573440 -0.555310
O9    O     O_3   0.189534 0.573732 0.552480 -0.574761
O10   O     O_3   0.229312 0.470384 0.619350 -0.579938
O11   O     O_3   0.421121 0.060624 0.519126 -0.685870
O12   O     O_3   0.255371 0.846149 0.803622 -0.645144
O13   O     O_3   0.392219 0.966411 0.521803 -0.646140
O14   O     O_3   0.909892 0.555310 0.498519 -0.688562
O15   O     O_3   0.891307 0.460491 0.516068 -0.648809
O16   O     O_3   0.802314 0.901902 0.302569 -0.633208
O17   O     O_3   0.804729 0.096922 0.303682 -0.612352
O18   O     O_3   0.301430 0.400919 0.304343 -0.612715
O19   O     O_3   0.298540 0.599058 0.309727 -0.633414
O20   O     O_3   0.894376 0.006538 0.514234 -0.646472
O21   O     O_3   0.439448 0.432450 0.526056 -0.632291
O22   O     O_3   0.754297 0.652897 0.802668 -0.644407
O23   O     O_3   0.754755 0.346698 0.803331 -0.663487
O24   O     O_3   0.052056 0.914968 0.594215 -0.617213
O25   O     O_3   0.052053 0.099436 0.551254 -0.592920
O26   O     O_3   0.590247 0.397166 0.477289 -0.635533
O27   O     O_3   0.568484 0.533299 0.658851 -0.600437
O28   O     O_3   0.128309 0.991860 0.386318 -0.616105

loop_
_geom_bond_atom_site_label_1
_geom_bond_atom_site_label_2
_ccdc_geom_bond_type
C51   C97   A    
C121  H104  S    
C99   C103  S    
C118  N3    A    
C55   C59   S    
C67   H160  S    
C79   H170  S    
C23   H150  S    
N15   Ni6   S    
N22   Ni2   S    
N27   Ni4   S    
C57   C76   S    
N2    Ni5   S    
C79   H96   S    
C85   C96   S    
C136  N7    A    
C58   C60   S    
C12   O16   S    
C30   O5    S    
C60   C62   S    
C61   C63   S    
C12   N14   A    
C34   O9    S    
C37   H45   S    
C113  C122  S    
C38   H50   S    
C89   C106  S    
C136  H120  S    
C11   N13   A    
N14   N15   A    
C137  N8    A    
C104  H83   S    
C18   H136  S    
C85   C103  S    
C132  H114  S    
C123  C131  S    
C32   H32   S    
C100  C109  S    
C94   C139  S    
C75   N27   A    
C102  C111  S    
C41   H60   S    
C90   H172  S    
C87   H46   S    
C52   C101  S    
N12   N28   A    
C16   C49   A    
C7    C137  A    
C81   C99   S    
C101  C110  S    
C24   H130  S    
C8    C35   A    
C88   H57   S    
C27   O2    S    
C114  C128  S    
N21   N25   A    
C78   H169  S    
N31   Ni8   S    
C68   O28   S    
N11   Ni3   S    
C80   H107  S    
C10   N11   A    
C35   C127  S    
C73   H94   S    
C31   H17   S    
C126  O15   S    
C37   O11   S    
C20   H141  S    
C13   N25   A    
C89   H22   S    
C13   C54   A    
C64   C140  A    
C24   N26   A    
C9    N10   A    
C73   N31   A    
C28   H7    S    
C49   C62   S    
C57   O26   S    
C53   C139  A    
C120  H112  S    
C44   O19   S    
C17   H133  S    
C117  H110  S    
C135  N6    A    
C105  H84   S    
C32   H33   S    
C56   C59   S    
C3    C72   A    
C79   C96   S    
C37   H47   S    
C17   O1    S    
C55   O24   S    
C15   C49   A    
C77   H1    S    
C22   O25   S    
C82   H151  S    
N26   Ni3   S    
C29   H9    S    
C82   H2    S    
C31   O6    S    
C61   C65   S    
C58   C67   S    
C30   H14   S    
C19   H138  S    
C125  O13   S    
N9    N10   A    
C1    O1    S    
C125  C127  S    
C11   C46   A    
C123  O9    S    
N20   Ni8   S    
C119  N21   A    
C91   H88   S    
C84   C102  S    
C86   N18   A    
C42   O17   S    
C42   H64   S    
C100  C104  S    
C57   C66   S    
C17   H131  S    
C112  C121  S    
C66   C69   S    
C133  H115  S    
N23   N31   A    
C31   H16   S    
C32   O7    S    
C58   C76   S    
N9    Ni1   S    
C39   H53   S    
C84   H129  S    
C120  N4    A    
C77   H168  S    
C116  H109  S    
C2    H127  S    
C68   C74   S    
C77   C94   S    
C92   C96   S    
C105  H26   S    
C69   C76   S    
C44   H69   S    
C33   H36   S    
C70   H91   S    
C112  C127  S    
C2    C50   A    
C29   O4    S    
C104  H25   S    
C112  H100  S    
C55   C63   S    
C72   N30   A    
C121  O7    S    
C20   H143  S    
C14   O17   S    
C3    C75   A    
C21   H146  S    
C47   H81   S    
C54   C119  A    
C25   H155  S    
C43   H66   S    
C45   H78   S    
N16   Ni7   S    
C134  N5    A    
C91   H3    S    
C110  O3    S    
C88   C94   S    
C59   C61   S    
C2    N24   A    
C62   C66   S    
C33   H37   S    
C80   C82   S    
C14   C48   A    
N21   Ni7   S    
C20   O23   S    
C115  C128  S    
C87   C104  S    
N11   N13   A    
C130  H126  S    
C124  H108  S    
C6    C135  A    
C29   H11   S    
N29   Ni6   S    
C30   H12   S    
C75   O23   S    
C108  N20   A    
C36   H43   S    
C97   N19   A    
C114  C123  S    
C114  H102  S    
C21   O24   S    
C4    C117  A    
C42   H62   S    
C13   H128  S    
C51   C100  S    
C53   N12   A    
C63   C68   S    
C126  C128  S    
C83   C101  S    
C71   N29   A    
C39   O14   S    
N16   N17   A    
C110  H98   S    
C7    C76   S    
C83   H13   S    
C70   N28   A    
C47   H80   S    
C28   H6    S    
C27   H166  S    
C5    C118  A    
C116  N32   A    
C44   H71   S    
C69   O2    S    
C129  C132  S    
C7    C136  A    
C55   C74   S    
C88   C105  S    
C40   H58   S    
C92   H89   S    
N1    N29   A    
C40   O15   S    
N19   N22   A    
C22   H147  S    
C91   C95   S    
N3    N4    A    
N27   N30   A    
C38   H51   S    
N8    Ni3   S    
C108  H74   S    
C93   C109  S    
C18   H134  S    
C40   H55   S    
C137  H121  S    
C93   H90   S    
C24   C52   A    
C19   H139  S    
C122  O8    S    
C34   H40   S    
C12   C48   A    
C124  O10   S    
C34   H39   S    
C15   O18   S    
C60   O21   S    
C26   H163  S    
C86   H72   S    
C118  H111  S    
C16   O19   S    
C72   H93   S    
C34   H41   S    
C22   H149  S    
N25   Ni4   S    
N12   Ni2   S    
C6    C74   S    
N13   Ni4   S    
C122  C129  S    
N23   Ni3   S    
C87   C98   S    
C56   O25   S    
C78   H85   S    
C70   C139  A    
C97   H73   S    
C53   O12   S    
C20   H142  S    
C90   C94   S    
C71   C138  A    
N32   Ni6   S    
C107  O5    S    
C18   O12   S    
C63   H157  S    
C56   C74   S    
C5    C120  A    
C43   H67   S    
C90   H87   S    
C47   O21   S    
N14   Ni5   S    
C115  H31   S    
C57   C60   S    
C113  H29   S    
C32   H34   S    
C89   C95   S    
N7    Ni4   S    
C33   O8    S    
C14   N15   A    
C78   C95   S    
C38   H49   S    
C16   N17   A    
C132  H113  S    
C122  H105  S    
C130  N22   A    
C30   H15   S    
C19   H137  S    
C36   H42   S    
C41   H61   S    
C64   O22   S    
C89   H68   S    
N19   Ni5   S    
C115  C124  S    
C26   H161  S    
C80   C98   S    
C135  H119  S    
C4    C116  A    
C19   O22   S    
C121  C129  S    
C41   O16   S    
N2    N32   A    
C123  H106  S    
C4    C129  S    
C125  O11   S    
C99   C107  S    
C109  O6    S    
C8    N9    A    
C106  H27   S    
C39   H52   S    
C134  H117  S    
C111  O4    S    
C27   H167  S    
C23   O26   S    
C44   H70   S    
N28   Ni5   S    
C31   H18   S    
N30   Ni7   S    
N7    N8    A    
C126  O14   S    
N4    Ni7   S    
C5    C131  S    
C9    C35   A    
C85   H19   S    
C23   H153  S    
C21   H145  S    
C88   H21   S    
C103  H79   S    
C119  H75   S    
C1    N1    A    
C25   H154  S    
C43   H65   S    
C81   H140  S    
C45   H77   S    
N18   Ni6   S    
C81   H162  S    
N10   Ni2   S    
C43   O18   S    
C38   O13   S    
C25   O27   S    
C50   C99   S    
N1    Ni1   S    
C62   C67   S    
C83   H118  S    
C28   O3    S    
C46   C128  S    
C21   H144  S    
C64   N23   A    
C37   H48   S    
C77   C83   S    
C56   C65   S    
C112  H28   S    
N6    Ni1   S    
C66   H159  S    
C45   H76   S    
C87   H20   S    
C91   C111  S    
N24   Ni1   S    
C29   H10   S    
C126  C133  S    
C10   C46   A    
C71   H92   S    
C106  H86   S    
C93   H5    S    
C3    C96   S    
C36   H44   S    
C65   H158  S    
C84   H24   S    
C65   C68   S    
C54   C102  S    
C45   O20   S    
C42   H63   S    
C17   H132  S    
C133  H116  S    
C51   C130  A    
C117  N2    A    
C101  C105  S    
C39   H54   S    
C23   H152  S    
C80   H171  S    
N20   N26   A    
C79   C81   S    
C36   O10   S    
C111  H99   S    
C27   H165  S    
C124  C131  S    
C98   C140  S    
C67   C69   S    
C92   C107  S    
C11   H125  S    
C15   N16   A    
C58   O27   S    
C22   H148  S    
C115  H103  S    
C47   H82   S    
C113  H101  S    
C25   H156  S    
N3    Ni8   S    
C90   C110  S    
C8    H122  S    
N5    Ni2   S    
C18   H135  S    
C40   H56   S    
C114  H30   S    
C107  H95   S    
C95   C138  S    
C33   H38   S    
C28   H8    S    
C82   C100  S    
C59   O20   S    
C131  C133  S    
C113  C127  S    
C73   C140  A    
C109  H97   S    
C103  H23   S    
C41   H59   S    
C26   H164  S    
C6    C134  A    
C125  C132  S    
C48   C61   S    
C26   O28   S    
C9    H123  S    
C85   H35   S    
C10   H124  S    
C102  C106  S    
N5    N6    A    
C92   H4    S    
C50   C86   A    
C78   C84   S    
C52   C108  A    
N18   N24   A    
N17   Ni8   S    
C93   C98   S    
C1    C138  A    
