data_mof_unit_17589.cif
_audit_creation_date              2012-12-11T15:29:36-0500
_audit_creation_method            fapswitch 2.2
_symmetry_space_group_name_H-M    P1
_symmetry_Int_Tables_number       1
_space_group_crystal_system       triclinic
_cell_length_a                    13.496675
_cell_length_b                    13.505257
_cell_length_c                    27.602101
_cell_angle_alpha                 90.722442
_cell_angle_beta                  89.999798
_cell_angle_gamma                 60.149917
_cell_volume                      4363.25504967

loop_
_atom_site_label
_atom_site_type_symbol
_atom_type_description
_atom_site_fract_x
_atom_site_fract_y
_atom_site_fract_z
_atom_type_partial_charge
C1    C     C_R   0.620115 0.101044 0.569978 0.543780
C2    C     C_1   0.632221 0.731044 0.615848 -0.024608
C3    C     C_3   0.677624 0.565434 0.766258 -0.107043
C4    C     C_3   0.686307 0.646068 0.803603 0.045104
C5    C     C_3   0.579864 0.670230 0.741167 -0.088362
C6    C     C_3   0.669043 0.678644 0.709531 0.056018
C7    C     C_3   0.588895 0.750316 0.779280 -0.090101
C8    C     C_3   0.678037 0.759173 0.747051 -0.097705
C9    C     C_1   0.693337 0.626470 0.855792 -0.065423
C10   C     C_1   0.652706 0.702246 0.657520 -0.065093
C11   C     C_3   0.086918 0.131156 0.736724 -0.124063
C12   C     C_R   0.599556 0.779669 0.568579 0.543027
C13   C     C_3   0.182465 0.063506 0.773906 0.186700
C14   C     C_1   0.096639 0.200873 0.899832 -0.012967
C15   C     C_1   0.220261 0.142592 0.614804 -0.024443
C16   C     C_3   0.048330 0.241372 0.768323 -0.131211
C17   C     C_3   0.144670 0.171121 0.805090 0.008821
C18   C     C_3   0.134061 0.264140 0.740584 0.149058
C19   C     C_3   0.171180 0.157049 0.708911 0.047486
C20   C     C_3   0.229333 0.197089 0.777739 -0.095869
C21   C     C_3   0.265410 0.088903 0.746198 0.157949
C22   C     C_1   0.123597 0.182837 0.857593 -0.049290
C23   C     C_R   0.275125 0.122974 0.568491 0.540278
C24   C     C_1   0.189723 0.152501 0.656435 -0.048516
C25   C     C_3   0.591832 0.274856 0.742283 0.181858
C26   C     C_3   0.552146 0.218591 0.779924 -0.069683
C27   C     C_1   0.691865 0.205499 0.901712 -0.013892
C28   C     C_1   0.635160 0.132728 0.618033 -0.015676
C29   C     C_3   0.702267 0.241458 0.770316 -0.095891
C30   C     C_3   0.664046 0.182451 0.807523 0.028699
C31   C     C_3   0.763527 0.128050 0.740559 -0.124657
C32   C     C_3   0.652180 0.164246 0.712616 0.059029
C33   C     C_3   0.726130 0.069352 0.778633 -0.112934
C34   C     C_R   0.620638 0.098673 0.430926 0.540061
C35   C     C_3   0.614595 0.105360 0.750091 -0.126742
C36   C     C_1   0.675291 0.193605 0.859741 -0.058824
C37   C     C_1   0.644043 0.150710 0.660238 -0.047823
C38   C     C_R   0.640039 0.720076 0.383365 0.022286
C39   C     C_R   0.729167 0.724840 0.359287 -0.126413
C40   C     C_R   0.743540 0.705172 0.309779 -0.120837
C41   C     C_R   0.670793 0.677856 0.284005 0.036524
C42   C     C_R   0.589500 0.661468 0.308798 -0.126202
C43   C     C_R   0.573913 0.682800 0.358326 -0.132139
C44   C     C_R   0.578468 0.714411 0.203326 -0.095840
C45   C     C_R   0.601909 0.776585 0.430514 0.540295
C46   C     C_R   0.584917 0.695087 0.152969 0.140733
C47   C     C_R   0.793044 0.594154 0.159321 -0.156809
C48   C     C_R   0.785131 0.612875 0.208713 -0.141364
C49   C     C_R   0.678175 0.668772 0.231205 0.000749
C50   C     C_R   0.694120 0.628304 0.131618 0.027902
C51   C     C_R   0.235634 0.132881 0.381825 0.024059
C52   C     C_R   0.277534 0.035606 0.351740 -0.126078
C53   C     C_R   0.260165 0.047056 0.302242 -0.126236
C54   C     C_R   0.197623 0.155811 0.282176 0.031784
C55   C     C_R   0.150939 0.253116 0.312498 -0.126721
C56   C     C_R   0.280341 0.119383 0.430747 0.536526
C57   C     C_R   0.171046 0.241739 0.362100 -0.135876
C58   C     C_R   0.179203 0.254658 0.204380 -0.136090
C59   C     C_R   0.145430 0.272825 0.156290 -0.145123
C60   C     C_R   0.116230 0.108266 0.157621 -0.010821
C61   C     C_R   0.149648 0.092177 0.205955 -0.105003
C62   C     C_R   0.177110 0.166969 0.229902 0.021816
C63   C     C_R   0.108430 0.203967 0.132886 0.034709
C64   C     C_R   0.631956 0.130734 0.381915 0.011595
C65   C     C_R   0.531930 0.190179 0.354492 -0.105212
C66   C     C_R   0.537502 0.205427 0.305093 0.006501
C67   C     C_3   0.766760 0.574001 0.733892 -0.102247
C68   C     C_R   0.645645 0.164137 0.283311 0.045549
C69   C     C_R   0.745630 0.106422 0.310738 -0.133800
C70   C     C_R   0.738928 0.088605 0.359856 -0.139059
C71   C     C_R   0.711538 0.088739 0.200384 -0.139133
C72   C     C_R   0.724767 0.106831 0.152001 -0.167720
C73   C     C_R   0.618556 0.312798 0.166667 0.123741
C74   C     C_R   0.609482 0.293180 0.215357 -0.109519
C75   C     C_R   0.655565 0.181966 0.232113 0.009685
C76   C     C_R   0.681098 0.218369 0.134893 0.042955
C77   C     C_R   0.049607 0.234993 0.947813 0.544267
C78   C     C_3   0.775754 0.654212 0.772211 -0.101549
C79   C     C_R   0.712522 0.560929 0.946247 0.541912
C80   C     C_R   0.722703 0.223858 0.949225 0.542848
C81   C     C_R   0.047882 0.243419 0.086479 0.542399
C82   C     C_R   0.709325 0.572457 0.084297 0.543979
C83   C     C_R   0.719952 0.233905 0.087612 0.553456
C84   C     C_1   0.699993 0.603054 0.898027 -0.017782
Cr1   Cr    Cr6+3 0.417550 0.169090 0.500530 1.025090
Cr2   Cr    Cr6+3 0.669180 0.913420 0.499920 1.020121
Cr3   Cr    Cr6+3 0.413260 0.917540 0.499520 1.017016
Cr4   Cr    Cr6+3 0.909770 0.175810 0.018240 1.009456
Cr5   Cr    Cr6+3 0.913300 0.427650 0.016090 1.014165
Cr6   Cr    Cr6+3 0.657770 0.431010 0.016900 1.028641
H1    H     H_    0.854923 0.650065 0.785929 0.096799
H2    H     H_    0.287851 0.223585 0.794049 0.094000
H3    H     H_    0.958928 0.306673 0.777543 0.108287
H4    H     H_    0.465763 0.255196 0.796420 0.093790
H5    H     H_    0.580052 0.048277 0.741714 0.099652
H6    H     H_    0.781393 0.983844 0.794313 0.113759
H7    H     H_    0.849900 0.090601 0.723997 0.104235
H8    H     H_    0.739668 0.296032 0.779362 0.092991
H9    H     H_    0.781822 0.752965 0.377770 0.132594
H10   H     H_    0.839105 0.501217 0.714774 0.101435
H11   H     H_    0.496754 0.763246 0.221448 0.102745
H12   H     H_    0.807151 0.717805 0.291348 0.101082
H13   H     H_    0.863051 0.577547 0.229603 0.110018
H14   H     H_    0.877718 0.543473 0.143708 0.142206
H15   H     H_    0.535282 0.636394 0.289579 0.096607
H16   H     H_    0.505507 0.677284 0.376293 0.126503
H17   H     H_    0.330415 0.950694 0.365925 0.136818
H18   H     H_    0.203340 0.311488 0.222065 0.100164
H19   H     H_    0.142611 0.344951 0.138264 0.125676
H20   H     H_    0.681648 0.837650 0.739288 0.094376
H21   H     H_    0.298369 0.970829 0.279539 0.096605
H22   H     H_    0.147984 0.024364 0.225863 0.100968
H23   H     H_    0.100222 0.337766 0.297797 0.105260
H24   H     H_    0.139350 0.317650 0.384788 0.122527
H25   H     H_    0.448888 0.219371 0.371008 0.143426
H26   H     H_    0.747036 0.002314 0.213359 0.117641
H27   H     H_    0.772995 0.033514 0.128307 0.126333
H28   H     H_    0.567371 0.365052 0.240358 0.104170
H29   H     H_    0.516375 0.820187 0.799542 0.111020
H30   H     H_    0.828774 0.074353 0.293886 0.112972
H31   H     H_    0.816685 0.040704 0.380349 0.125112
H32   H     H_    0.499596 0.676268 0.727743 0.099637
H33   H     H_    0.677499 0.485939 0.775129 0.098124
H34   H     H_    0.029441 0.103655 0.720200 0.099373
O1    O     O_R   0.301780 0.195490 0.553940 -0.499685
O2    O     O_R   0.658840 0.818280 0.449970 -0.504656
O3    O     O_R   0.503160 0.801780 0.445740 -0.523637
O4    O     O_R   0.319320 0.022190 0.450230 -0.504484
O5    O     O_3   0.499990 0.000010 0.499990 -0.247531
O6    O     O_R   0.819250 0.149410 0.965240 -0.505440
O7    O     O_R   0.006940 0.180310 0.968270 -0.491637
O8    O     O_R   0.028420 0.332670 0.963010 -0.509329
O9    O     O_R   0.810130 0.520390 0.966030 -0.495615
O10   O     O_R   0.636050 0.541380 0.962520 -0.512856
O11   O     O_R   0.666480 0.323610 0.968170 -0.500418
O12   O     O_R   0.522450 0.158840 0.550250 -0.489604
O13   O     O_R   0.817280 0.156800 0.072180 -0.541137
O14   O     O_R   0.005110 0.187160 0.067410 -0.506617
O15   O     O_R   0.026450 0.340060 0.069950 -0.526343
O16   O     O_R   0.808300 0.527240 0.065170 -0.514223
O17   O     O_R   0.634070 0.548770 0.069460 -0.480583
O18   O     O_R   0.664650 0.330470 0.067300 -0.466759
O19   O     O_3   0.826940 0.344820 0.017080 -0.244962
O20   O     O_R   0.694460 0.003360 0.553820 -0.508729
O21   O     O_R   0.657750 0.819520 0.549120 -0.493991
O22   O     O_R   0.501990 0.803120 0.552700 -0.508648
O23   O     O_R   0.318230 0.023430 0.549370 -0.499040
O24   O     O_R   0.302950 0.194150 0.446980 -0.523736
O25   O     O_R   0.523540 0.157600 0.451100 -0.508004
O26   O     O_R   0.695630 0.002030 0.446860 -0.516554
N1    N     N_2   0.107040 0.373711 0.721228 -0.502753
H35   H     H_    0.042956 0.402897 0.695849 0.246930
C85   C     C_3   0.092066 0.458816 0.757185 -0.305939
H36   H     H_    0.064554 0.541662 0.739324 0.138540
H37   H     H_    0.174090 0.432833 0.775882 0.151800
H38   H     H_    0.026354 0.469830 0.784265 0.138127
N2    N     N_2   0.520746 0.385463 0.720938 -0.507704
H39   H     H_    0.565367 0.408564 0.697715 0.248071
C86   C     C_3   0.447534 0.475449 0.754537 -0.309585
H40   H     H_    0.398926 0.556871 0.734820 0.133528
H41   H     H_    0.498972 0.486572 0.783236 0.135874
H42   H     H_    0.385127 0.455282 0.771426 0.152095
N3    N     N_2   0.484915 0.737571 0.123541 -0.506451
H43   H     H_    0.492609 0.764390 0.089628 0.255140
C87   C     C_3   0.372490 0.802791 0.145186 -0.329544
H44   H     H_    0.307269 0.820883 0.117023 0.137025
H45   H     H_    0.359986 0.884980 0.160189 0.154695
H46   H     H_    0.360413 0.752822 0.173910 0.136692
C88   C     C_3   0.083767 0.025563 0.135503 -0.381513
H47   H     H_    0.127524 0.992956 0.100030 0.137547
H48   H     H_    0.109116 0.950161 0.158722 0.091164
H49   H     H_    0.989815 0.068011 0.131297 0.182616
C89   C     C_3   0.428542 0.259072 0.276083 -0.405048
H50   H     H_    0.353833 0.274061 0.298436 0.129044
H51   H     H_    0.410548 0.342813 0.261956 0.118539
H52   H     H_    0.436066 0.201691 0.245399 0.148844
N4    N     N_2   0.570628 0.427350 0.150834 -0.470240
H53   H     H_    0.578782 0.480693 0.175598 0.249368
C90   C     C_3   0.454670 0.475458 0.133652 -0.273500
H54   H     H_    0.426249 0.561041 0.118424 0.173837
H55   H     H_    0.396502 0.484358 0.164000 0.104869
H56   H     H_    0.449467 0.420489 0.104623 0.152139
N5    N     N_2   0.211597 0.953404 0.793424 -0.501968
H57   H     H_    0.274276 0.926564 0.819412 0.248794
C91   C     C_3   0.232109 0.865999 0.757675 -0.302197
H58   H     H_    0.252542 0.785568 0.776191 0.129548
H59   H     H_    0.305116 0.849679 0.733828 0.164692
H60   H     H_    0.154699 0.892350 0.735364 0.148997
N6    N     N_2   0.384017 0.003112 0.737915 -0.535442
H61   H     H_    0.435795 0.999543 0.766037 0.234119
C92   C     C_3   0.431751 0.999143 0.690597 -0.296002
H62   H     H_    0.524931 0.939927 0.690535 0.130971
H63   H     H_    0.416623 0.084963 0.680507 0.159475
H64   H     H_    0.395329 0.965136 0.663481 0.171878

loop_
_geom_bond_atom_site_label_1
_geom_bond_atom_site_label_2
_ccdc_geom_bond_type
C44   C49   A    
C58   C62   A    
C66   C68   A    
Cr2   O21   S    
C26   H4    S    
N2    H39   S    
C59   H19   S    
Cr3   O22   S    
Cr2   O2    S    
C88   H48   S    
C41   C42   A    
Cr1   O1    S    
C11   H34   S    
Cr1   O24   S    
Cr4   O6    S    
C72   C76   A    
C2    C12   S    
Cr3   O3    S    
C34   O26   A    
Cr2   O20   S    
C7    C8    S    
C53   C54   A    
C68   C75   S    
Cr1   O12   S    
C20   H2    S    
C11   C19   S    
C16   H3    S    
C87   H44   S    
C80   O11   A    
Cr3   O23   S    
C29   H8    S    
C63   C81   S    
C60   C63   A    
C60   C88   S    
N3    C87   S    
C18   C19   S    
Cr2   O26   S    
C86   H40   S    
C77   O7    A    
C5    C6    S    
Cr6   O10   S    
C91   H59   S    
C61   C62   A    
C17   C20   S    
C51   C56   S    
C73   C74   A    
C14   C77   S    
C12   O22   A    
N6    C92   S    
C56   O4    A    
C82   O16   A    
Cr1   O5    S    
C39   H9    S    
N3    H43   S    
C52   H17   S    
C44   C46   A    
C16   C17   S    
C13   N5    S    
C72   H27   S    
C1    C28   S    
N1    H35   S    
C86   H41   S    
C66   C89   S    
C51   C57   A    
C64   C70   A    
C85   H37   S    
C1    O12   A    
C4    C9    S    
Cr4   O19   S    
C18   C20   S    
Cr6   O19   S    
C23   O1    A    
C90   H56   S    
C73   N4    S    
C53   H21   S    
C25   C32   S    
C15   C23   S    
C87   H45   S    
C8    C78   S    
C65   H25   S    
N6    H61   S    
C67   C78   S    
C82   O17   A    
C79   O9    A    
C76   C83   S    
C41   C49   S    
Cr3   O4    S    
C34   O25   A    
C3    H33   S    
C47   C50   A    
C89   H51   S    
C25   C29   S    
C81   O14   A    
C74   H28   S    
Cr5   O9    S    
C74   C75   A    
C51   C52   A    
C32   C35   S    
C7    H29   S    
C80   O6    A    
C27   C80   S    
C39   C40   A    
C5    C7    S    
C68   C69   A    
C91   H60   S    
C6    C8    S    
C55   H23   S    
C4    C7    S    
C58   C59   A    
C89   H50   S    
C48   H13   S    
C23   O23   A    
C5    H32   S    
C92   H62   S    
C60   C61   A    
C77   O8    A    
C38   C39   A    
C12   O21   A    
C56   O24   A    
N5    H57   S    
C92   H63   S    
C4    C78   S    
C29   C30   S    
C8    H20   S    
C11   C16   S    
C21   N6    S    
C47   C48   A    
C45   O2    A    
Cr5   O16   S    
C34   C64   S    
C65   C66   A    
C86   H42   S    
C13   C21   S    
C88   H47   S    
C32   C37   S    
C85   H38   S    
Cr5   O8    S    
Cr4   O14   S    
Cr6   O18   S    
C90   H54   S    
C67   H10   S    
C16   C18   S    
C48   C49   A    
C26   C30   S    
C87   H46   S    
C46   N3    S    
C55   C57   A    
C25   N2    S    
C38   C45   S    
C27   C36   T    
C73   C76   A    
C42   C43   A    
C18   N1    S    
C2    C10   T    
C33   H6    S    
C6    C67   S    
C83   O13   A    
C52   C53   A    
C50   C82   S    
Cr5   O15   S    
C89   H52   S    
C81   O15   A    
C79   O10   A    
C54   C55   A    
C15   C24   T    
C31   C33   S    
C47   H14   S    
C30   C33   S    
C19   C21   S    
C31   C32   S    
C3    C67   S    
C3    C5    S    
C6    C10   S    
C83   O18   A    
C44   H11   S    
Cr2   O5    S    
C57   H24   S    
C31   H7    S    
C35   H5    S    
C78   H1    S    
C54   C62   S    
C46   C50   A    
C69   H30   S    
C59   C63   A    
C17   C22   S    
C30   C36   S    
C64   C65   A    
C14   C22   T    
N5    C91   S    
C19   C24   S    
C25   C26   S    
C92   H64   S    
C38   C43   A    
C29   C31   S    
C1    O20   A    
Cr5   O19   S    
C71   C75   A    
Cr6   O11   S    
C11   C13   S    
C70   H31   S    
Cr3   O5    S    
C91   H58   S    
C79   C84   S    
C28   C37   T    
C45   O3    A    
C33   C35   S    
N4    C90   S    
C71   H26   S    
C58   H18   S    
N1    C85   S    
C69   C70   A    
C42   H15   S    
Cr1   O25   S    
Cr4   O13   S    
Cr6   O17   S    
C9    C84   T    
C40   H12   S    
C13   C17   S    
C26   C35   S    
C71   C72   A    
C20   C21   S    
N2    C86   S    
N4    H53   S    
C40   C41   A    
C88   H49   S    
Cr4   O7    S    
C85   H36   S    
C61   H22   S    
C43   H16   S    
C3    C4    S    
C90   H55   S    
