data_mof_unit_51127.cif
_audit_creation_date              2012-12-11T14:08:45-0500
_audit_creation_method            fapswitch 2.2
_symmetry_space_group_name_H-M    P1
_symmetry_Int_Tables_number       1
_space_group_crystal_system       triclinic
_cell_length_a                    28.192013
_cell_length_b                    7.189164
_cell_length_c                    17.19222
_cell_angle_alpha                 90.081093
_cell_angle_beta                  101.613826
_cell_angle_gamma                 89.964756
_cell_volume                      3413.12549074

loop_
_atom_site_label
_atom_site_type_symbol
_atom_type_description
_atom_site_fract_x
_atom_site_fract_y
_atom_site_fract_z
_atom_type_partial_charge
O1    O     O_R   0.000700 0.436510 0.857920 -0.534520
O2    O     O_R   0.999300 0.563490 0.142080 -0.534527
O3    O     O_R   0.999300 0.936510 0.642080 -0.534390
O4    O     O_R   0.000700 0.063490 0.357920 -0.534399
O5    O     O_R   0.930080 0.766380 0.721890 -0.506550
O6    O     O_R   0.069920 0.233620 0.278110 -0.506527
O7    O     O_R   0.069920 0.266380 0.778110 -0.506638
O8    O     O_R   0.930080 0.733620 0.221890 -0.506678
C1    C     C_R   0.910548 0.597962 0.708416 0.718680
C2    C     C_R   0.089451 0.402034 0.291605 0.718705
C3    C     C_R   0.089445 0.097950 0.791672 0.718157
C4    C     C_R   0.910557 0.902047 0.208306 0.718073
O9    O     O_R   0.996180 0.766230 0.862310 -0.547094
O10   O     O_R   0.003820 0.233770 0.137690 -0.547076
O11   O     O_R   0.003820 0.266230 0.637690 -0.546963
O12   O     O_R   0.996180 0.733770 0.362310 -0.546968
O13   O     O_R   0.065870 0.936460 0.783500 -0.545606
O14   O     O_R   0.934130 0.063540 0.216500 -0.545594
O15   O     O_R   0.934130 0.436460 0.716500 -0.545524
O16   O     O_R   0.065870 0.563540 0.283500 -0.545538
C5    C     C_R   0.998498 0.596523 0.894523 0.750999
C6    C     C_R   0.001501 0.403477 0.105477 0.751003
C7    C     C_R   0.001503 0.096408 0.605510 0.752177
C8    C     C_R   0.998497 0.903592 0.394489 0.752120
O17   O     O_3   0.022790 0.603020 0.723980 -0.374377
O18   O     O_3   0.977210 0.396980 0.276020 -0.374387
O19   O     O_3   0.977210 0.103020 0.776020 -0.374655
O20   O     O_3   0.022790 0.896980 0.223980 -0.374620
V1    V     V_3+5 0.995770 0.877900 0.754830 1.449447
V2    V     V_3+5 0.004230 0.122100 0.245170 1.449446
V3    V     V_3+5 0.004230 0.377900 0.745170 1.449042
V4    V     V_3+5 0.995770 0.622100 0.254830 1.448931
C9    C     C_2   0.001734 0.082651 0.519596 -0.345324
C10   C     C_2   0.998266 0.917348 0.480404 -0.345323
C11   C     C_2   0.998276 0.582724 0.980479 -0.345385
C12   C     C_2   0.001722 0.417276 0.019521 -0.345369
H1    H     H_    0.004628 0.211540 0.487992 0.152231
H2    H     H_    0.995371 0.788460 0.512008 0.152235
H3    H     H_    0.995403 0.711636 0.012232 0.152076
H4    H     H_    0.004595 0.288364 0.987768 0.152096
C13   C     C_R   0.682501 0.911215 0.026021 0.581427
C14   C     C_R   0.317514 0.088721 0.973770 0.581415
C15   C     C_R   0.315913 0.559662 0.460372 0.582864
C16   C     C_R   0.684037 0.438776 0.540366 0.582839
O21   O     O_2   0.710893 0.859920 0.975172 -0.518101
O22   O     O_2   0.289122 0.139958 0.024634 -0.518026
O23   O     O_2   0.285910 0.648908 0.499981 -0.522710
O24   O     O_2   0.714020 0.348172 0.501134 -0.522996
N1    N     N_R   0.703072 0.954233 0.103129 -0.546812
N2    N     N_R   0.296942 0.045758 0.896651 -0.546859
N3    N     N_R   0.297058 0.454539 0.394890 -0.545042
N4    N     N_R   0.702914 0.545368 0.605399 -0.544875
C17   C     C_R   0.674906 0.009267 0.155349 0.583689
C18   C     C_R   0.325106 0.990777 0.844414 0.583738
C19   C     C_R   0.326943 0.361523 0.354306 0.587543
C20   C     C_R   0.673038 0.639792 0.645566 0.587449
C21   C     C_R   0.782746 0.098045 0.155409 -0.081675
C22   C     C_R   0.217262 0.901953 0.844413 -0.081713
C23   C     C_R   0.217307 0.597716 0.342620 -0.078403
C24   C     C_R   0.782681 0.402330 0.657783 -0.078205
C25   C     C_R   0.832909 0.083928 0.181263 -0.267684
C26   C     C_R   0.167094 0.916068 0.818620 -0.267725
C27   C     C_R   0.167105 0.583596 0.317391 -0.268678
C28   C     C_R   0.832890 0.416455 0.682909 -0.268610
C29   C     C_R   0.828654 0.751914 0.153879 0.426919
C30   C     C_R   0.171359 0.248088 0.845998 0.426990
C31   C     C_R   0.171406 0.252354 0.346150 0.427345
C32   C     C_R   0.828590 0.747541 0.653824 0.427120
C33   C     C_R   0.778101 0.767305 0.129872 -0.167053
C34   C     C_R   0.221916 0.232697 0.869945 -0.166995
C35   C     C_R   0.221985 0.267853 0.369880 -0.166827
C36   C     C_R   0.778009 0.732021 0.630141 -0.166853
C37   C     C_R   0.754946 0.939906 0.129692 0.310916
C38   C     C_R   0.245068 0.060094 0.870103 0.310977
C39   C     C_R   0.245145 0.440050 0.368904 0.309564
C40   C     C_R   0.754838 0.559896 0.631337 0.309018
C41   C     C_R   0.602319 0.977754 0.051819 -0.044589
C42   C     C_R   0.397696 0.022249 0.947949 -0.044665
C43   C     C_R   0.397768 0.477974 0.446844 -0.043819
C44   C     C_R   0.602196 0.521838 0.553501 -0.043925
C45   C     C_R   0.631928 0.921582 0.999152 -0.035813
C46   C     C_R   0.368086 0.078359 0.000632 -0.035764
C47   C     C_R   0.366430 0.573599 0.487300 -0.034413
C48   C     C_R   0.633519 0.424756 0.513484 -0.034263
C49   C     C_R   0.610574 0.877159 0.920828 -0.125603
C50   C     C_R   0.389439 0.122713 0.078971 -0.125549
C51   C     C_R   0.386041 0.680105 0.553997 -0.127702
C52   C     C_R   0.613892 0.316526 0.447315 -0.127708
C53   C     C_R   0.624211 0.022505 0.130648 -0.035180
C54   C     C_R   0.375804 0.977553 0.869108 -0.035126
C55   C     C_R   0.377649 0.371074 0.379615 -0.034041
C56   C     C_R   0.622331 0.630227 0.620272 -0.033914
C57   C     C_R   0.856775 0.911488 0.181355 -0.157754
C58   C     C_R   0.143231 0.088508 0.818562 -0.157707
C59   C     C_R   0.143252 0.411504 0.318229 -0.157152
C60   C     C_R   0.856745 0.588476 0.681860 -0.157134
H5    H     H_    0.756771 0.644007 0.111041 0.138101
H6    H     H_    0.243254 0.355994 0.888750 0.138007
H7    H     H_    0.243298 0.145156 0.389784 0.147147
H8    H     H_    0.756702 0.854658 0.610115 0.147831
H9    H     H_    0.632463 0.833658 0.878972 0.178849
H10   H     H_    0.367549 0.166146 0.120843 0.178740
H11   H     H_    0.362810 0.755008 0.586358 0.174595
H12   H     H_    0.637107 0.239978 0.415451 0.174433
C61   C     C_R   0.478296 0.953973 0.919820 0.038464
C62   C     C_R   0.521720 0.046069 0.079938 0.038409
C63   C     C_R   0.519896 0.609657 0.568165 0.038127
C64   C     C_R   0.480073 0.390773 0.432001 0.038069
C65   C     C_R   0.470413 0.056986 0.053925 0.037538
C66   C     C_R   0.529601 0.942997 0.945845 0.037484
C67   C     C_R   0.531315 0.400871 0.459017 0.035867
C68   C     C_R   0.468641 0.598239 0.541550 0.035865
C69   C     C_R   0.449029 0.010994 0.974015 0.063355
C70   C     C_R   0.550986 0.989016 0.025750 0.063408
C71   C     C_R   0.550908 0.510701 0.526789 0.061856
C72   C     C_R   0.449055 0.489081 0.473573 0.061931
C73   C     C_R   0.454895 0.909722 0.841028 -0.171627
C74   C     C_R   0.545123 0.090419 0.158709 -0.171648
C75   C     C_R   0.541555 0.717088 0.635140 -0.173299
C76   C     C_R   0.458436 0.285569 0.364351 -0.173043
C77   C     C_R   0.404869 0.921481 0.816449 -0.131566
C78   C     C_R   0.595148 0.078657 0.183289 -0.131602
C79   C     C_R   0.591559 0.726745 0.660450 -0.135890
C80   C     C_R   0.408435 0.276219 0.338940 -0.135643
O25   O     O_2   0.304242 0.950924 0.768505 -0.518158
O26   O     O_2   0.695768 0.049162 0.231250 -0.518239
O27   O     O_2   0.692262 0.741621 0.710234 -0.517816
O28   O     O_2   0.307726 0.261085 0.289228 -0.517613
C81   C     C_R   0.560647 0.887425 0.894632 -0.174685
C82   C     C_R   0.439366 0.112456 0.105161 -0.174570
C83   C     C_R   0.435904 0.692429 0.580620 -0.174053
C84   C     C_R   0.564031 0.304457 0.420621 -0.174195
H13   H     H_    0.146992 0.791066 0.798275 0.201987
H14   H     H_    0.853005 0.208930 0.201629 0.201976
H15   H     H_    0.853010 0.291892 0.703854 0.201200
H16   H     H_    0.146987 0.708224 0.296549 0.201359
H17   H     H_    0.234564 0.767402 0.844407 0.151176
H18   H     H_    0.765443 0.232595 0.155398 0.151196
H19   H     H_    0.765329 0.268435 0.659464 0.157783
H20   H     H_    0.234661 0.731669 0.341133 0.157257
H21   H     H_    0.389035 0.886082 0.755449 0.160506
H22   H     H_    0.610982 0.114124 0.244274 0.160789
H23   H     H_    0.606024 0.811216 0.712021 0.158951
H24   H     H_    0.393985 0.193398 0.286868 0.158759
H25   H     H_    0.474011 0.865115 0.796091 0.109896
H26   H     H_    0.526011 0.135137 0.203624 0.110061
H27   H     H_    0.521050 0.796748 0.669888 0.109912
H28   H     H_    0.478961 0.208105 0.328946 0.109602
H29   H     H_    0.547781 0.850392 0.833391 0.114246
H30   H     H_    0.452228 0.149379 0.166423 0.113966
H31   H     H_    0.447352 0.777418 0.632509 0.113728
H32   H     H_    0.552562 0.217250 0.369407 0.114083
O29   O     O_3   0.849870 0.578524 0.154016 -0.552951
C85   C     C_3   0.855673 0.537339 0.076261 -0.220354
H33   H     H_    0.878099 0.644483 0.053860 0.124291
H34   H     H_    0.820030 0.522217 0.034990 0.151356
H35   H     H_    0.874977 0.402564 0.077242 0.152107
O30   O     O_3   0.150139 0.421472 0.845865 -0.552945
C86   C     C_3   0.144493 0.462945 0.923676 -0.220411
H36   H     H_    0.180199 0.478617 0.964732 0.151453
H37   H     H_    0.122219 0.355679 0.946361 0.124343
H38   H     H_    0.125097 0.597531 0.922672 0.152150
O31   O     O_3   0.150182 0.079181 0.346544 -0.550926
C87   C     C_3   0.144913 0.038775 0.424585 -0.216499
H39   H     H_    0.122859 0.146689 0.447515 0.119447
H40   H     H_    0.180751 0.022975 0.465236 0.153641
H41   H     H_    0.125462 0.904478 0.423932 0.156430
O32   O     O_3   0.849815 0.920684 0.653303 -0.550847
C88   C     C_3   0.855061 0.960813 0.575226 -0.216103
H42   H     H_    0.819215 0.976403 0.534575 0.153668
H43   H     H_    0.877132 0.852846 0.552365 0.119262
H44   H     H_    0.874483 0.095149 0.575779 0.156492

loop_
_geom_bond_atom_site_label_1
_geom_bond_atom_site_label_2
_ccdc_geom_bond_type
O17   V3    S    
C47   C51   A    
C61   C66   A    
N1    C17   A    
O1    C5    A    
O19   V1    S    
O13   V1    S    
C88   H42   S    
C64   C76   A    
O3    C7    A    
C11   C12   D    
C14   C46   A    
C30   O30   S    
C44   C48   A    
O15   V3    S    
C36   H8    S    
C42   C54   A    
O7    C3    A    
C41   C53   A    
C32   C60   A    
C62   C70   A    
C23   H20   S    
C26   H13   S    
C73   H25   S    
C87   H39   S    
N3    C39   S    
C18   C54   A    
N2    C38   S    
C14   O22   S    
O4    C8    A    
C25   C57   A    
C31   C35   A    
C53   C78   A    
C75   H27   S    
C27   C59   A    
O1    V3    S    
C15   C47   A    
C66   C81   A    
O2    V4    S    
C63   C68   A    
C20   O27   S    
C21   C37   A    
O3    V1    S    
C73   C77   A    
C34   C38   A    
C29   O29   S    
C49   C81   A    
C83   H31   S    
C1    O15   A    
C82   H30   S    
O31   C87   S    
C2    O16   A    
C7    C9    S    
O2    C6    A    
C19   C55   A    
C86   H37   S    
C33   C37   A    
O14   V2    S    
C41   C45   A    
C66   C70   A    
C85   H34   S    
C32   C36   A    
C30   C58   A    
C16   N4    A    
O11   C7    A    
C28   H15   S    
O12   C8    A    
C43   C72   A    
C62   C74   A    
C31   C59   A    
C88   H43   S    
C61   C73   A    
O10   V2    S    
C63   C75   A    
C52   H12   S    
C25   H14   S    
O5    V1    S    
C18   O25   S    
O7    V3    S    
O8    V4    S    
C77   H21   S    
C12   H4    S    
C28   C60   A    
C85   H35   S    
C56   C79   A    
O18   V4    S    
C50   C82   A    
N4    C40   S    
C46   C50   A    
C35   H7    S    
C24   C40   A    
C8    C10   S    
C76   C80   A    
C52   C84   A    
C44   C56   A    
C11   H3    S    
O5    C1    A    
C31   O31   S    
C42   C46   A    
C86   H36   S    
C44   C71   A    
C74   H26   S    
O8    C4    A    
C13   C45   A    
C9    C10   D    
C86   H38   S    
O9    C5    A    
C36   C40   A    
N2    C18   A    
O11   V3    S    
C1    C60   S    
C63   C71   A    
C85   H33   S    
C51   C83   A    
C22   C26   A    
C14   N2    A    
C51   H11   S    
C32   O32   S    
C22   H17   S    
O32   C88   S    
O6    V2    S    
C76   H28   S    
C75   C79   A    
C55   C80   A    
C26   C58   A    
C17   C53   A    
O30   C86   S    
C84   H32   S    
C54   C77   A    
N1    C37   S    
C4    C57   S    
C42   C69   A    
C78   H22   S    
C79   H23   S    
C41   C70   A    
C50   H10   S    
C23   C39   A    
C68   C72   A    
C49   H9    S    
C22   C38   A    
O16   V4    S    
O9    V1    S    
C29   C33   A    
C3    O13   A    
C10   H2    S    
C43   C55   A    
C87   H41   S    
C48   C52   A    
C3    C58   S    
C16   C48   A    
C61   C69   A    
O6    C2    A    
C21   C25   A    
C5    C11   S    
C65   C69   A    
O12   V4    S    
C13   N1    A    
C6    C12   S    
C23   C27   A    
C64   C67   A    
C24   C28   A    
C27   H16   S    
C64   C72   A    
C87   H40   S    
O29   C85   S    
C35   C39   A    
O10   C6    A    
C30   C34   A    
N4    C20   A    
C2    C59   S    
C15   N3    A    
C74   C78   A    
O20   V2    S    
C29   C57   A    
C88   H44   S    
C21   H18   S    
N3    C19   A    
C68   C83   A    
C9    H1    S    
C17   O26   S    
C24   H19   S    
C43   C47   A    
C16   O24   S    
C67   C84   A    
C20   C56   A    
C19   O28   S    
C45   C49   A    
C4    O14   A    
C65   C82   A    
C13   O21   S    
C80   H24   S    
C67   C71   A    
C81   H29   S    
C15   O23   S    
O4    V2    S    
C34   H6    S    
C62   C65   A    
C33   H5    S    
