data_mof_unit_34118.cif
_audit_creation_date              2012-12-11T16:24:15-0500
_audit_creation_method            fapswitch 2.2
_symmetry_space_group_name_H-M    P1
_symmetry_Int_Tables_number       1
_space_group_crystal_system       triclinic
_cell_length_a                    8.207431
_cell_length_b                    17.181092
_cell_length_c                    17.331735
_cell_angle_alpha                 97.358986
_cell_angle_beta                  95.754527
_cell_angle_gamma                 97.602654
_cell_volume                      2385.41589729

loop_
_atom_site_label
_atom_site_type_symbol
_atom_type_description
_atom_site_fract_x
_atom_site_fract_y
_atom_site_fract_z
_atom_type_partial_charge
Ba1   Ba    Ba6+2 0.160000 0.538340 0.465920 1.736746
Ba2   Ba    Ba6+2 0.650170 0.461650 0.534010 1.713035
C1    C     C_3   0.577563 0.777089 0.231633 0.279087
C2    C     C_3   0.595594 0.775921 0.522817 0.037886
C3    C     C_2   0.659691 0.865017 0.534332 0.386727
C4    C     C_3   0.057050 0.746393 0.300318 0.321836
C5    C     C_2   0.825867 0.890550 0.536772 -0.086233
C6    C     C_2   0.941625 0.829864 0.534946 -0.222799
C7    C     C_1   0.883790 0.754154 0.533992 -0.014641
C8    C     C_R   0.096056 0.139774 0.546158 -0.011762
C9    C     C_R   0.169037 0.218651 0.548329 0.037412
C10   C     C_R   0.919213 0.248163 0.477340 0.068258
C11   C     C_R   0.846682 0.168512 0.473681 -0.051481
C12   C     C_3   0.539686 0.737046 0.302616 0.301297
C13   C     C_R   0.933033 0.113539 0.508947 0.000637
C14   C     C_2   0.902567 0.975822 0.547265 0.018851
C15   C     C_2   0.852272 0.028906 0.502140 0.020946
C16   C     C_3   0.096846 0.827730 0.275182 -0.316253
C17   C     C_R   0.078863 0.272513 0.515735 -0.292197
C18   C     C_R   0.604694 0.528471 0.280655 -0.313029
C19   C     C_R   0.443816 0.491484 0.254534 0.062273
C20   C     C_R   0.383720 0.483902 0.174754 -0.098862
C21   C     C_R   0.486234 0.512221 0.121103 -0.006244
C22   C     C_R   0.651367 0.545720 0.147672 -0.056606
C23   C     C_3   0.416948 0.712833 0.739613 0.316806
C24   C     C_R   0.710322 0.553035 0.227613 0.054160
C25   C     C_R   0.411513 0.530426 0.837816 -0.142485
C26   C     C_R   0.355606 0.525163 0.758038 -0.008944
C27   C     C_R   0.094474 0.450449 0.777273 -0.000605
C28   C     C_3   0.731018 0.359157 0.290523 0.325851
C29   C     C_R   0.149747 0.455201 0.857530 -0.151613
C30   C     C_R   0.309266 0.495040 0.887989 0.004607
C31   C     C_1   0.369412 0.500155 0.970361 0.014903
C32   C     C_1   0.422565 0.505382 0.038976 0.028331
C33   C     C_R   0.198484 0.484817 0.728275 -0.245763
C34   C     C_3   0.498622 0.761413 0.817352 0.316262
C35   C     C_3   0.668388 0.328599 0.204503 0.309416
C36   C     C_3   0.941697 0.734794 0.715122 0.649638
C37   C     C_3   0.048756 0.815334 0.743569 -0.270769
C38   C     C_3   0.275133 0.286960 0.345757 0.232858
C39   C     C_3   0.337250 0.210002 0.312746 0.247261
C40   C     C_3   0.984093 0.662082 0.820453 0.275969
C41   C     C_3   0.662956 0.758760 0.108900 0.207542
C42   C     C_3   0.868050 0.249228 0.693306 0.266448
C43   C     C_3   0.830272 0.165115 0.712531 0.298659
C44   C     C_3   0.400170 0.295975 0.739100 0.320478
C45   C     C_3   0.451619 0.281740 0.822374 -0.261696
C46   C     C_2   0.729715 0.726114 0.507149 -0.290336
H1    H     H_    0.443383 0.684559 0.282052 0.032447
H2    H     H_    0.464367 0.800218 0.208811 0.038484
H3    H     H_    0.317543 0.202005 0.247640 0.080534
H4    H     H_    0.472270 0.214362 0.329946 0.035775
H5    H     H_    0.654482 0.717868 0.328925 -0.042243
H6    H     H_    0.364590 0.752268 0.700773 0.112271
H7    H     H_    0.309763 0.671751 0.751967 -0.163056
H8    H     H_    0.595692 0.730618 0.844325 0.043691
H9    H     H_    0.404805 0.766899 0.858892 -0.051481
H10   H     H_    0.679442 0.827538 0.250906 0.045676
H11   H     H_    0.185809 0.866905 0.320999 0.177665
H12   H     H_    0.579673 0.273063 0.200103 0.045856
H13   H     H_    0.780108 0.253613 0.641560 0.045332
H14   H     H_    0.996406 0.259739 0.678121 -0.073022
H15   H     H_    0.707542 0.156407 0.734501 0.103175
H16   H     H_    0.826823 0.123250 0.658185 0.013499
H17   H     H_    0.264957 0.297730 0.731826 -0.041556
H18   H     H_    0.466924 0.354527 0.731589 0.071310
H19   H     H_    0.414731 0.328415 0.864783 0.058076
H20   H     H_    0.587757 0.283793 0.832680 0.170579
H21   H     H_    0.174077 0.721372 0.308799 0.077057
H22   H     H_    0.391325 0.222907 0.832636 0.199287
H23   H     H_    0.602582 0.372896 0.178493 -0.099148
H24   H     H_    0.746083 0.009503 0.458078 0.139691
H25   H     H_    0.073279 0.848577 0.536928 0.187601
H26   H     H_    0.169770 0.099327 0.570811 0.112049
H27   H     H_    0.010434 0.992758 0.590517 0.113249
H28   H     H_    0.723680 0.149245 0.442788 0.125933
H29   H     H_    0.698578 0.667243 0.473311 0.073627
H30   H     H_    0.135895 0.333244 0.517342 0.066729
H31   H     H_    0.533645 0.561848 0.860528 0.063122
H32   H     H_    0.999747 0.753727 0.355818 0.041084
H33   H     H_    0.732709 0.566838 0.106879 0.072565
H34   H     H_    0.832925 0.745840 0.677036 0.050010
H35   H     H_    0.069589 0.428042 0.895701 0.109939
H36   H     H_    0.259851 0.453898 0.154201 0.161307
H37   H     H_    0.651059 0.534198 0.342115 0.068607
H38   H     H_    0.155370 0.481237 0.666654 0.074025
H39   H     H_    0.152932 0.822257 0.219389 0.116643
H40   H     H_    0.982404 0.855091 0.266820 0.120701
H41   H     H_    0.625854 0.377778 0.319532 -0.117205
H42   H     H_    0.830539 0.410639 0.295104 0.038046
H43   H     H_    0.879101 0.425195 0.110871 0.315399
H44   H     H_    0.002322 0.606465 0.784328 0.049973
H45   H     H_    0.160977 0.808797 0.781751 0.107715
H46   H     H_    0.927684 0.644884 0.872471 0.028782
H47   H     H_    0.104384 0.699804 0.842094 -0.005467
H48   H     H_    0.197120 0.049647 0.226935 0.349565
H49   H     H_    0.771562 0.806217 0.125456 0.067638
H50   H     H_    0.555022 0.783122 0.082284 0.042404
H51   H     H_    0.696750 0.713917 0.063657 0.063089
H52   H     H_    0.725406 0.911865 0.720292 0.394022
H53   H     H_    0.094308 0.257926 0.844180 0.320559
H54   H     H_    0.515537 0.045621 0.622619 0.373126
H55   H     H_    0.977931 0.855500 0.777417 0.180574
H56   H     H_    0.088177 0.843230 0.692871 0.085284
H57   H     H_    0.143559 0.274662 0.355755 0.068426
H58   H     H_    0.349289 0.313341 0.402185 0.024247
O1    O     O_2   0.169780 0.691990 0.551040 -0.453386
O2    O     O_2   0.752026 0.442101 0.769743 -0.488559
O3    O     O_3   0.845511 0.303891 0.757361 -0.598138
O4    O     O_3   0.896620 0.594010 0.545570 -0.453934
O5    O     O_3   0.420600 0.460050 0.406370 -0.498307
O6    O     O_2   0.650040 0.537900 0.687840 -0.422651
O7    O     O_3   0.535430 0.675251 0.701236 -0.609920
O8    O     O_2   0.508552 0.216622 0.540110 -0.455347
O9    O     O_3   0.440661 0.234835 0.685523 -0.589275
O10   O     O_3   0.384860 0.644020 0.410190 -0.512450
O11   O     O_2   0.268271 0.777387 0.454928 -0.450538
O12   O     O_3   0.284995 0.336444 0.287600 -0.626474
O13   O     O_3   0.034568 0.682307 0.674816 -0.660920
O14   O     O_3   0.481873 0.791694 0.356839 -0.640013
O15   O     O_2   0.160250 0.462050 0.312130 -0.423100
O16   O     O_3   0.957280 0.604490 0.369120 -0.507118
O17   O     O_2   0.055004 0.560062 0.228169 -0.478767
O18   O     O_2   0.938472 0.256646 0.186031 -0.203901
O19   O     O_2   0.763064 0.270460 0.067228 -0.233817
O20   O     O_3   0.951353 0.396201 0.142371 -0.518069
O21   O     O_3   0.874187 0.702906 0.778782 -0.632166
O22   O     O_2   0.309297 0.110751 0.420681 -0.255893
O23   O     O_3   0.947162 0.696987 0.241908 -0.597860
O24   O     O_2   0.052637 0.124492 0.340960 -0.316370
O25   O     O_3   0.261300 0.043440 0.276738 -0.472071
O26   O     O_3   0.623254 0.721349 0.173760 -0.661238
O27   O     O_2   0.455302 0.912267 0.806109 -0.224576
O28   O     O_2   0.721889 0.890754 0.870957 -0.244928
O29   O     O_3   0.665798 0.857613 0.719069 -0.538179
O30   O     O_2   0.922183 0.064829 0.809068 -0.175239
O31   O     O_2   0.139769 0.133617 0.745550 -0.327224
O32   O     O_3   0.024239 0.213384 0.861279 -0.429541
O33   O     O_2   0.440506 0.954556 0.482335 -0.263870
O34   O     O_2   0.640500 0.307960 0.448930 -0.488715
O35   O     O_2   0.379262 0.887534 0.594859 -0.285853
O36   O     O_3   0.602992 0.011185 0.618717 -0.533143
O37   O     O_3   0.913680 0.405980 0.454370 -0.494646
O38   O     O_3   0.425430 0.355970 0.589750 -0.499621
O39   O     O_3   0.790887 0.297725 0.324852 -0.605267
O40   O     O_3   0.389690 0.539950 0.593560 -0.456625
O41   O     O_3   0.853010 0.395500 0.630820 -0.487516
P1    P     P_3+3 0.996700 0.679700 0.572930 1.014345
P2    P     P_3+3 0.328720 0.438370 0.322170 1.034940
P3    P     P_3+3 0.920314 0.600852 0.266812 0.962155
P4    P     P_3+3 0.813590 0.320290 0.427010 1.014993
P5    P     P_3+3 0.887249 0.399862 0.733473 0.961489
P6    P     P_3+3 0.431839 0.746770 0.438296 1.008801
P7    P     P_3+3 0.481329 0.571883 0.689802 1.007223
P8    P     P_3+3 0.385500 0.254072 0.590213 0.993749
S1    S     S_3+6 0.833600 0.309999 0.148287 -0.010883
S2    S     S_3+6 0.234717 0.121519 0.340874 -0.064791
S3    S     S_3+6 0.586956 0.859240 0.804902 -0.016625
S4    S     S_3+6 0.984324 0.142217 0.782808 -0.009779
S5    S     S_3+6 0.514444 0.930145 0.556809 -0.055520

loop_
_geom_bond_atom_site_label_1
_geom_bond_atom_site_label_2
_ccdc_geom_bond_type
C4    H21   S    
C38   O12   S    
H43   O20   S    
O12   P2    S    
C14   H27   S    
Ba2   O38   S    
C45   H20   S    
C43   S4    S    
C41   H50   S    
O7    P7    S    
C28   H42   S    
C36   O21   S    
C37   H56   S    
Ba2   O6    S    
C44   O9    S    
O24   S2    D    
C34   H8    S    
O16   P3    S    
C41   O26   S    
C41   H51   S    
C44   H18   S    
C25   H31   S    
C8    C13   A    
C4    O23   S    
C36   C37   S    
C33   H38   S    
C12   H1    S    
C29   H35   S    
Ba1   Ba2   S    
O25   S2    S    
Ba1   O16   S    
C37   H45   S    
O2    P5    D    
O30   S4    D    
O32   S4    S    
Ba2   O4    S    
C26   C33   A    
C6    C7    D    
C21   C22   A    
Ba1   P2    S    
Ba1   O10   S    
C19   P2    S    
C39   H4    S    
H52   O29   S    
C34   S3    S    
C42   O3    S    
C3    S5    S    
O37   P4    S    
C2    P6    S    
O17   P3    D    
O29   S3    S    
O6    P7    D    
C19   C20   A    
C36   H34   S    
C26   P7    S    
Ba2   O37   S    
C10   P4    S    
Ba1   O40   S    
C28   H41   S    
O4    P1    S    
O5    P2    S    
C45   H19   S    
C1    H2    S    
O22   S2    D    
C4    C16   S    
Ba2   O5    S    
O31   S4    D    
C40   H47   S    
C41   H49   S    
C5    C6    S    
O3    P5    S    
C23   H6    S    
C44   H17   S    
C34   H9    S    
C3    C5    D    
C14   C15   D    
C42   H14   S    
O13   P1    S    
C43   H15   S    
C16   H40   S    
C1    O26   S    
C28   C35   S    
C20   H36   S    
C46   H29   S    
C17   H30   S    
C22   H33   S    
C45   H22   S    
Ba1   O37   S    
C23   O7    S    
Ba1   O4    S    
C6    H25   S    
O35   S5    D    
C4    H32   S    
C29   C30   A    
O40   P7    S    
C11   H28   S    
C24   P3    S    
C21   C32   S    
C9    C17   A    
C18   H37   S    
C31   C32   T    
C18   C19   A    
O34   P4    D    
O10   P6    S    
O39   P4    S    
C1    C12   S    
C40   O21   S    
Ba1   O1    S    
H48   O25   S    
C39   S2    S    
C36   O13   S    
C38   C39   S    
O28   S3    D    
C35   S1    S    
O33   S5    D    
C12   O14   S    
C35   H23   S    
C11   C13   A    
O11   P6    D    
C7    C46   D    
O8    P8    D    
C42   C43   S    
C28   O39   S    
C38   H58   S    
C2    C46   S    
Ba2   P4    S    
C13   C15   S    
C44   C45   S    
C5    C14   S    
C7    P1    S    
O9    P8    S    
C25   C30   A    
C40   H46   S    
C23   H7    S    
O36   S5    S    
C2    C3    S    
H53   O32   S    
O19   S1    D    
C37   H55   S    
C9    P8    S    
C42   H13   S    
Ba2   O40   S    
C27   C33   A    
C43   H16   S    
C16   H39   S    
Ba2   O34   S    
C30   C31   S    
O38   P8    S    
O18   S1    D    
O41   P5    S    
Ba2   O41   S    
O23   P3    S    
C27   C29   A    
Ba1   O5    S    
C27   P5    S    
O1    P1    D    
C8    H26   S    
C22   C24   A    
C18   C24   A    
C10   C17   A    
O14   P6    S    
O15   P2    D    
C40   H44   S    
O27   S3    D    
Ba1   O15   S    
C35   H12   S    
C8    C9    A    
C23   C34   S    
C1    H10   S    
C16   H11   S    
C12   H5    S    
C10   C11   A    
C15   H24   S    
C25   C26   A    
C20   C21   A    
Ba1   P1    S    
H54   O36   S    
C39   H3    S    
C38   H57   S    
O20   S1    S    
