data_mof_unit_35829.cif
_audit_creation_date              2012-10-26T21:14:58-0400
_audit_creation_method            fapswitch 2.2
_symmetry_space_group_name_H-M    P1
_symmetry_Int_Tables_number       1
_space_group_crystal_system       triclinic
_cell_length_a                    15.080408
_cell_length_b                    10.832989
_cell_length_c                    13.678177
_cell_angle_alpha                 90.057817
_cell_angle_beta                  89.867087
_cell_angle_gamma                 89.728027
_cell_volume                      2234.51526384

loop_
_atom_site_label
_atom_site_type_symbol
_atom_type_description
_atom_site_fract_x
_atom_site_fract_y
_atom_site_fract_z
_atom_type_partial_charge
C1    C     C_R   0.497567 0.262139 0.499760 0.547715
C2    C     C_R   0.579043 0.879419 0.667647 0.050417
C3    C     C_R   0.459370 0.108009 0.239163 -0.100605
C4    C     C_R   0.540630 0.891991 0.760837 -0.100605
C5    C     C_R   0.421327 0.167062 0.158530 -0.115223
C6    C     C_R   0.578673 0.832938 0.841470 -0.115223
C7    C     C_R   0.344613 0.238478 0.170248 -0.100064
C8    C     C_R   0.655387 0.761522 0.829751 -0.100064
C9    C     C_R   0.468757 0.933346 0.419854 -0.152947
C10   C     C_R   0.531243 0.066654 0.580146 -0.152947
C11   C     C_R   0.504331 0.871729 0.500759 -0.002820
C12   C     C_R   0.502433 0.737861 0.500240 0.547715
C13   C     C_R   0.495669 0.128271 0.499241 -0.002820
C14   C     C_R   0.536882 0.938832 0.581706 -0.032713
C15   C     C_R   0.463118 0.061168 0.418293 -0.032713
C16   C     C_R   0.328444 0.500131 0.500090 0.545772
C17   C     C_R   0.671555 0.499869 0.499910 0.545773
C18   C     C_R   0.557159 0.424120 0.793051 0.033936
C19   C     C_R   0.442841 0.575880 0.206949 0.033936
C20   C     C_R   0.442918 0.575913 0.793441 0.045172
C21   C     C_R   0.557082 0.424087 0.206559 0.045172
C22   C     C_R   0.441612 0.577841 0.896547 -0.017510
C23   C     C_R   0.045803 0.482337 0.677642 -0.135301
C24   C     C_R   0.558388 0.422159 0.103453 -0.017509
C25   C     C_R   0.500015 0.500012 0.948161 0.049789
C26   C     C_R   0.499984 0.499988 0.051839 0.049789
C27   C     C_R   0.558448 0.422200 0.896149 -0.020004
C28   C     C_R   0.441552 0.577800 0.103851 -0.020004
C29   C     C_R   0.383674 0.655544 0.949019 -0.155638
C30   C     C_R   0.616326 0.344456 0.050981 -0.155638
C31   C     C_R   0.383609 0.655477 0.051765 -0.154861
C32   C     C_R   0.616391 0.344523 0.948234 -0.154861
C33   C     C_R   0.814902 0.508565 0.411201 -0.140799
C34   C     C_R   0.954196 0.517663 0.322358 -0.135301
C35   C     C_R   0.185097 0.491435 0.588799 -0.140798
C36   C     C_R   0.768374 0.499636 0.499825 -0.016706
C37   C     C_R   0.231626 0.500363 0.500175 -0.016706
C38   C     C_R   0.814539 0.490381 0.588459 -0.147457
C39   C     C_R   0.185461 0.509619 0.411541 -0.147457
C40   C     C_R   0.906891 0.490756 0.589179 0.010317
C41   C     C_R   0.093109 0.509243 0.410821 0.010317
C42   C     C_R   0.953523 0.499890 0.499957 0.062170
C43   C     C_R   0.046477 0.500109 0.500043 0.062170
C44   C     C_R   0.907295 0.508727 0.410643 0.011387
C45   C     C_R   0.305243 0.249898 0.262443 -0.094948
C46   C     C_R   0.092705 0.491273 0.589357 0.011387
C47   C     C_R   0.953350 0.482075 0.677552 -0.137697
C48   C     C_R   0.046650 0.517925 0.322448 -0.137697
C49   C     C_R   0.694757 0.750102 0.737557 -0.094948
C50   C     C_R   0.343006 0.190986 0.343313 -0.051839
C51   C     C_R   0.656994 0.809014 0.656687 -0.051839
C52   C     C_R   0.420957 0.120581 0.332353 0.050417
Cu1   Cu    Cu3+1 0.500010 0.499980 0.597420 0.935263
Cu2   Cu    Cu3+1 0.499990 0.500020 0.402580 0.935263
H1    H     H_    0.779353 0.515659 0.342596 0.124807
H2    H     H_    0.661553 0.283623 0.089385 0.102593
H3    H     H_    0.338280 0.716203 0.090465 0.103484
H4    H     H_    0.661720 0.283797 0.909535 0.103484
H5    H     H_    0.778724 0.482459 0.656976 0.118252
H6    H     H_    0.221276 0.517540 0.343025 0.118252
H7    H     H_    0.918185 0.475127 0.746501 0.102711
H8    H     H_    0.081814 0.524873 0.253499 0.102711
H9    H     H_    0.080617 0.475541 0.746661 0.105527
H10   H     H_    0.919383 0.524459 0.253339 0.105527
H11   H     H_    0.315649 0.284849 0.107874 0.108424
H12   H     H_    0.220646 0.484341 0.657404 0.124807
H13   H     H_    0.684351 0.715151 0.892125 0.108424
H14   H     H_    0.245507 0.304507 0.271228 0.100130
H15   H     H_    0.754493 0.695493 0.728771 0.100130
H16   H     H_    0.312206 0.201198 0.414505 0.098485
H17   H     H_    0.687794 0.798802 0.585495 0.098485
H18   H     H_    0.519429 0.054145 0.229338 0.100800
H19   H     H_    0.480571 0.945855 0.770662 0.100800
H20   H     H_    0.451717 0.158260 0.087075 0.113009
H21   H     H_    0.548284 0.841739 0.912925 0.113009
H22   H     H_    0.442428 0.881570 0.358585 0.126997
H23   H     H_    0.557572 0.118430 0.641415 0.126997
H24   H     H_    0.601660 0.364930 0.751879 0.115853
H25   H     H_    0.398340 0.635070 0.248121 0.115853
H26   H     H_    0.398640 0.635401 0.752575 0.121877
H27   H     H_    0.601360 0.364599 0.247425 0.121878
H28   H     H_    0.338447 0.716377 0.910615 0.102593
N1    N     N_R   0.499960 0.499900 0.743810 -0.234714
N2    N     N_R   0.500040 0.500100 0.256190 -0.234715
O1    O     O_R   0.500000 0.319630 0.582270 -0.512652
O2    O     O_R   0.500000 0.680370 0.417730 -0.512652
O3    O     O_R   0.499990 0.319660 0.417730 -0.490814
O4    O     O_R   0.500010 0.680340 0.582270 -0.490814
O5    O     O_R   0.370260 0.499960 0.582280 -0.510371
O6    O     O_R   0.629740 0.500040 0.417720 -0.510371
O7    O     O_R   0.370250 0.499990 0.417740 -0.509210
O8    O     O_R   0.629750 0.500010 0.582260 -0.509210

loop_
_geom_bond_atom_site_label_1
_geom_bond_atom_site_label_2
_ccdc_geom_bond_type
C1    O3    A    
C40   C47   A    
C38   C40   A    
C33   H1    S    
C22   C29   A    
C32   H4    S    
Cu2   N2    S    
C6    H21   S    
C39   C41   A    
Cu1   Cu2   S    
C42   C44   A    
C7    C45   A    
C35   C37   A    
C24   C26   A    
Cu2   O6    S    
Cu2   O3    S    
C3    C52   A    
C33   C36   A    
C5    H20   S    
C49   C51   A    
C22   C25   A    
C50   C52   A    
C9    H22   S    
C16   C37   S    
C40   C42   A    
C16   O5    A    
C23   C46   A    
C49   H15   S    
C41   C43   A    
C17   O8    A    
C51   H17   S    
C45   H14   S    
C10   H23   S    
C17   O6    A    
C1    O1    A    
C23   C47   A    
C20   H26   S    
C34   C44   A    
C4    C6    A    
C10   C14   A    
Cu2   O2    S    
C12   O4    A    
C6    C8    A    
C35   H12   S    
C25   C26   A    
C30   H2    S    
C2    C4    A    
C7    H11   S    
C48   H8    S    
C21   N2    A    
C18   H24   S    
Cu1   O8    S    
C34   H10   S    
C18   N1    A    
C15   C52   S    
C19   H25   S    
C19   C28   A    
C9    C11   A    
C4    H19   S    
C8    H13   S    
C17   C36   S    
C21   H27   S    
C13   C15   A    
Cu1   O5    S    
C21   C24   A    
C1    C13   S    
C42   C43   A    
C19   N2    A    
C5    C7    A    
C27   C32   A    
C33   C44   A    
C28   C31   A    
C18   C27   A    
C20   C22   A    
C3    C5    A    
C10   C13   A    
C47   H7    S    
C11   C12   S    
C25   C27   A    
C26   C28   A    
C12   O2    A    
Cu1   N1    S    
C31   H3    S    
C36   C38   A    
C3    H18   S    
C50   H16   S    
Cu2   O7    S    
C29   C31   A    
C30   C32   A    
C45   C50   A    
C39   H6    S    
C23   H9    S    
C11   C14   A    
C41   C48   A    
Cu1   O4    S    
C9    C15   A    
C2    C14   S    
C43   C46   A    
C24   C30   A    
C2    C51   A    
C38   H5    S    
C29   H28   S    
C34   C48   A    
C16   O7    A    
C37   C39   A    
C20   N1    A    
Cu1   O1    S    
C35   C46   A    
C8    C49   A    
