data_mof_unit_67178.cif
_audit_creation_date              2012-12-11T17:48:51-0500
_audit_creation_method            fapswitch 2.2
_symmetry_space_group_name_H-M    P1
_symmetry_Int_Tables_number       1
_space_group_crystal_system       triclinic
_cell_length_a                    8.199712
_cell_length_b                    12.741333
_cell_length_c                    14.994871
_cell_angle_alpha                 97.204413
_cell_angle_beta                  97.276854
_cell_angle_gamma                 98.493744
_cell_volume                      1520.25772268

loop_
_atom_site_label
_atom_site_type_symbol
_atom_type_description
_atom_site_fract_x
_atom_site_fract_y
_atom_site_fract_z
_atom_type_partial_charge
Ba1   Ba    Ba6+2 0.843750 0.550210 0.455600 1.642127
Ba2   Ba    Ba6+2 0.346090 0.449880 0.544410 1.654485
C1    C     C_3   0.540918 0.870019 0.274049 -0.374996
C2    C     C_R   0.892222 0.436547 0.919078 -0.040410
C3    C     C_R   0.033700 0.440135 0.104458 -0.044097
C4    C     C_3   0.990517 0.791780 0.209555 0.339690
C5    C     C_R   0.874080 0.379422 0.067164 -0.026992
C6    C     C_R   0.802986 0.384916 0.978945 -0.117639
C7    C     C_R   0.104242 0.454323 0.199128 0.031316
C8    C     C_R   0.266499 0.508040 0.226623 -0.283171
C9    C     C_R   0.082028 0.530284 0.794760 0.047861
C10   C     C_R   0.151645 0.538492 0.888373 -0.041097
C11   C     C_R   0.057620 0.488360 0.949970 0.002377
C12   C     C_3   0.505081 0.801079 0.181531 0.234944
C13   C     C_R   0.313229 0.593020 0.922270 -0.001554
C14   C     C_R   0.385712 0.590515 0.010957 -0.088663
C15   C     C_R   0.294864 0.542600 0.073129 -0.048464
C16   C     C_3   0.012681 0.796625 0.110851 -0.367439
C17   C     C_R   0.128120 0.491112 0.042859 0.009172
C18   C     C_R   0.364134 0.547521 0.165357 -0.002038
C19   C     C_R   0.920178 0.474411 0.766195 -0.294020
C20   C     C_R   0.773046 0.181149 0.539868 -0.272191
C21   C     C_R   0.413629 0.813106 0.480154 -0.310262
C22   C     C_R   0.382175 0.989766 0.448129 -0.085615
C23   C     C_3   0.411376 0.276399 0.268529 0.330160
C24   C     C_R   0.315025 0.882733 0.446425 0.026998
C25   C     C_R   0.577679 0.850214 0.521136 0.067947
C26   C     C_R   0.645714 0.961370 0.529368 -0.046372
C27   C     C_R   0.546487 0.031254 0.489673 -0.071772
C28   C     C_3   0.267763 0.784495 0.661592 0.274007
C29   C     C_R   0.614232 0.140623 0.492390 0.030742
C30   C     C_R   0.873248 0.113797 0.577268 -0.007834
C31   C     C_R   0.809632 0.004703 0.573349 -0.100416
C32   C     C_3   0.264707 0.903757 0.683692 -0.326245
C33   C     C_3   0.926092 0.224893 0.353654 0.311265
C34   C     C_3   0.342286 0.235284 0.169219 -0.326303
C35   C     C_3   0.862818 0.104943 0.329483 -0.273141
C36   C     C_3   0.773425 0.694762 0.728688 0.305125
C37   C     C_3   0.812378 0.727203 0.831372 -0.390743
C38   C     C_2   0.957428 0.054337 0.261185 0.613326
C39   C     C_2   0.511241 0.872065 0.108880 0.527463
C40   C     C_2   0.295709 0.204979 0.935517 0.593107
C41   C     C_2   0.783049 0.295196 0.108802 0.567529
C42   C     C_3   0.106766 0.227177 0.796975 0.309452
C43   C     C_3   0.118440 0.193228 0.891553 -0.242999
C44   C     C_3   0.602334 0.167909 0.751205 0.343336
C45   C     C_3   0.666304 0.087349 0.807707 -0.376019
C46   C     C_R   0.822619 0.432080 0.827489 -0.009471
H1    H     H_    0.377562 0.753914 0.173091 0.037243
H2    H     H_    0.668953 0.626086 0.713499 0.069629
H3    H     H_    0.516743 0.817750 0.325647 0.110339
H4    H     H_    0.921754 0.792709 0.848713 0.146363
H5    H     H_    0.840691 0.658170 0.865138 0.058327
H6    H     H_    0.703303 0.755483 0.857683 0.127206
H7    H     H_    0.460725 0.932978 0.277285 0.128732
H8    H     H_    0.310069 0.306370 0.301681 0.023097
H9    H     H_    0.516143 0.343546 0.272050 0.027644
H10   H     H_    0.220142 0.182324 0.163561 0.173478
H11   H     H_    0.324715 0.303648 0.131958 0.009695
H12   H     H_    0.345815 0.936774 0.748884 0.142286
H13   H     H_    0.429531 0.188986 0.137189 0.163307
H14   H     H_    0.673433 0.907564 0.289296 0.092433
H15   H     H_    0.053788 0.880798 0.100792 0.173703
H16   H     H_    0.188114 0.305809 0.799786 0.066631
H17   H     H_    0.975864 0.236973 0.776515 -0.075479
H18   H     H_    0.053162 0.244357 0.935568 0.018800
H19   H     H_    0.055677 0.108656 0.886279 0.131292
H20   H     H_    0.705682 0.202825 0.717287 -0.054508
H21   H     H_    0.500136 0.125352 0.697434 0.079524
H22   H     H_    0.766598 0.129524 0.862480 0.128374
H23   H     H_    0.309857 0.946739 0.629567 0.068485
H24   H     H_    0.715700 0.026078 0.764114 0.075601
H25   H     H_    0.888731 0.835341 0.224900 0.076708
H26   H     H_    0.678672 0.341176 0.956094 0.099006
H27   H     H_    0.514323 0.627835 0.029663 0.108908
H28   H     H_    0.388454 0.636443 0.880502 0.109191
H29   H     H_    0.320172 0.517204 0.297512 0.061571
H30   H     H_    0.866234 0.468280 0.695691 0.069074
H31   H     H_    0.304608 0.038878 0.415278 0.161528
H32   H     H_    0.889639 0.955473 0.604472 0.090390
H33   H     H_    0.822966 0.265296 0.543300 0.057266
H34   H     H_    0.135758 0.917004 0.690219 0.130670
H35   H     H_    0.960737 0.705993 0.217925 0.087974
H36   H     H_    0.362276 0.728721 0.473532 0.067329
H37   H     H_    0.106206 0.746884 0.091219 0.130391
H38   H     H_    0.892454 0.764677 0.066089 0.091103
H39   H     H_    0.394667 0.772636 0.650513 0.011813
H40   H     H_    0.176343 0.752506 0.599432 0.052695
H41   H     H_    0.892709 0.016031 0.194960 -0.015977
H42   H     H_    0.625062 0.926409 0.106265 0.006491
H43   H     H_    0.370885 0.284194 0.953694 -0.023922
H44   H     H_    0.564904 0.047143 0.840041 0.179679
H45   H     H_    0.833021 0.264436 0.386038 -0.017605
H46   H     H_    0.678571 0.311250 0.142567 -0.009948
H47   H     H_    0.044016 0.238173 0.401389 0.080805
H48   H     H_    0.729288 0.092714 0.299744 0.054342
H49   H     H_    0.874692 0.065803 0.391227 0.060452
H50   H     H_    0.884870 0.670983 0.702848 0.016519
O1    O     O_2   0.827880 0.435260 0.277750 -0.477882
O2    O     O_2   0.212530 0.119878 0.568363 -0.494592
O3    O     O_3   0.154706 0.148512 0.735681 -0.587174
O4    O     O_3   0.100280 0.438960 0.391170 -0.500032
O5    O     O_3   0.587780 0.631850 0.546230 -0.489901
O6    O     O_2   0.332590 0.233690 0.456160 -0.460844
O7    O     O_3   0.468472 0.192672 0.309457 -0.619933
O8    O     O_2   0.481175 0.440501 0.823678 -0.503077
O9    O     O_3   0.539311 0.243839 0.807990 -0.584602
O10   O     O_3   0.625580 0.634130 0.333250 -0.464109
O11   O     O_2   0.703172 0.548445 0.174991 -0.501166
O12   O     O_3   0.730590 0.782993 0.689941 -0.639486
O13   O     O_3   0.951589 0.264673 0.273375 -0.622127
O14   O     O_3   0.629284 0.736660 0.173586 -0.654201
O15   O     O_2   0.857130 0.766340 0.543890 -0.487740
O16   O     O_3   0.056550 0.691050 0.379010 -0.486235
O17   O     O_2   0.966697 0.883877 0.404695 -0.512593
O18   O     O_2   0.107872 0.059086 0.278435 -0.578562
O19   O     O_2   0.389520 0.868881 0.051970 -0.576932
O20   O     O_2   0.355781 0.126227 0.952167 -0.551997
O21   O     O_2   0.815421 0.204363 0.098154 -0.586259
O22   O     O_3   0.135349 0.843267 0.266799 -0.608557
O23   O     O_2   0.361830 0.564780 0.722310 -0.475516
O24   O     O_3   0.089430 0.561130 0.608830 -0.501400
O25   O     O_3   0.564130 0.365960 0.666760 -0.469418
O26   O     O_3   0.228674 0.736211 0.736288 -0.626595
O27   O     O_3   0.601940 0.368240 0.453770 -0.483808
O28   O     O_3   0.133170 0.309040 0.621000 -0.478506
P1    P     P_3+3 0.998730 0.403530 0.291970 0.976954
P2    P     P_3+3 0.687380 0.751030 0.571310 0.969211
P3    P     P_3+3 0.112979 0.827381 0.379306 0.960593
P4    P     P_3+3 0.190990 0.596560 0.708040 0.975860
P5    P     P_3+3 0.091942 0.171193 0.624595 0.957811
P6    P     P_3+3 0.577769 0.614546 0.213463 0.924781
P7    P     P_3+3 0.509307 0.232095 0.427240 0.955971
P8    P     P_3+3 0.602991 0.372923 0.783375 0.950946

loop_
_geom_bond_atom_site_label_1
_geom_bond_atom_site_label_2
_ccdc_geom_bond_type
C14   H27   S    
C45   H44   S    
Ba1   P2    S    
O23   P4    D    
C29   P7    S    
C34   H11   S    
Ba1   O1    S    
C35   H49   S    
O2    P5    D    
C23   O7    S    
C5    C6    A    
O15   P2    D    
C38   O18   D    
Ba2   O25   S    
C42   H16   S    
C12   O14   S    
C3    C7    A    
C16   H38   S    
C20   C30   A    
O28   P5    S    
C46   P8    S    
C26   C27   A    
C33   C35   S    
C22   C24   A    
C40   H43   S    
C35   C38   S    
C34   H10   S    
O17   P3    D    
C36   C37   S    
C16   H15   S    
Ba2   O23   S    
C37   H6    S    
Ba2   O4    S    
C13   C14   A    
C41   H46   S    
Ba1   Ba2   S    
C21   C24   A    
C2    C11   A    
C22   C27   A    
C44   H21   S    
Ba2   P4    S    
Ba1   O24   S    
C1    H7    S    
C8    C18   A    
C14   C15   A    
C19   H30   S    
C43   H19   S    
C23   H8    S    
C5    C41   S    
C38   H41   S    
C36   O12   S    
C7    C8    A    
Ba1   O5    S    
C2    C6    A    
C19   C46   A    
C33   H45   S    
C37   H4    S    
C32   H12   S    
C42   H17   S    
Ba1   O15   S    
C18   P6    S    
C4    O22   S    
C8    H29   S    
C36   H50   S    
Ba2   O24   S    
C4    C16   S    
C16   H37   S    
C41   O21   D    
C20   C29   A    
C11   C17   A    
O25   P8    S    
O22   P3    S    
C23   H9    S    
C20   H33   S    
O4    P1    S    
C21   H36   S    
C3    C5    A    
C28   C32   S    
C40   O20   D    
O1    P1    D    
Ba1   O10   S    
C9    C19   A    
C35   H48   S    
C40   C43   S    
C45   H22   S    
C44   H20   S    
C25   P2    S    
C22   H31   S    
C10   C13   A    
Ba2   O6    S    
C9    C10   A    
C44   O9    S    
O11   P6    D    
C6    H26   S    
O26   P4    S    
C7    P1    S    
O14   P6    S    
O5    P2    S    
C24   P3    S    
C1    C12   S    
C12   C39   S    
C36   H2    S    
O3    P5    S    
C28   O26   S    
C26   C31   A    
C21   C25   A    
O13   P1    S    
O16   P3    S    
Ba1   O16   S    
C28   H40   S    
C34   H13   S    
C9    P4    S    
Ba2   O28   S    
C25   C26   A    
C33   O13   S    
C42   C43   S    
C4    H25   S    
O7    P7    S    
C2    C46   A    
C1    H14   S    
O27   P7    S    
C44   C45   S    
C1    H3    S    
C4    H35   S    
C15   C18   A    
Ba1   P1    S    
Ba1   O27   S    
C42   O3    S    
C31   H32   S    
C3    C17   A    
C33   H47   S    
O9    P8    S    
C30   C31   A    
C27   C29   A    
C37   H5    S    
Ba2   O5    S    
Ba1   O4    S    
C15   C17   A    
C13   H28   S    
C45   H24   S    
O10   P6    S    
C23   C34   S    
C12   H1    S    
Ba2   O27   S    
O8    P8    D    
C10   C11   A    
O12   P2    S    
C43   H18   S    
C32   H34   S    
C39   O19   D    
C28   H39   S    
C32   H23   S    
O24   P4    S    
C30   P5    S    
C39   H42   S    
O6    P7    D    
