data_mof_unit_49268.cif
_audit_creation_date              2012-12-10T18:13:47-0500
_audit_creation_method            fapswitch 2.2
_symmetry_space_group_name_H-M    P1
_symmetry_Int_Tables_number       1
_space_group_crystal_system       triclinic
_cell_length_a                    10.794469
_cell_length_b                    9.559098
_cell_length_c                    23.597221
_cell_angle_alpha                 89.981631
_cell_angle_beta                  91.707259
_cell_angle_gamma                 89.093374
_cell_volume                      2433.50206496

loop_
_atom_site_label
_atom_site_type_symbol
_atom_type_description
_atom_site_fract_x
_atom_site_fract_y
_atom_site_fract_z
_atom_type_partial_charge
C1    C     C_R   0.260779 0.500600 0.504999 0.885970
C2    C     C_R   0.287571 0.472336 0.967595 0.382269
C3    C     C_R   0.289095 0.461756 0.027502 0.103329
C4    C     C_R   0.402198 0.481314 0.059210 -0.135714
C5    C     C_R   0.512107 0.506699 0.029865 -0.047282
C6    C     C_R   0.624228 0.532515 0.060332 0.004811
C7    C     C_R   0.734416 0.549350 0.031168 -0.132263
C8    C     C_R   0.734472 0.540160 0.972405 -0.128836
C9    C     C_R   0.411181 0.476836 0.119236 0.610041
C10   C     C_R   0.623794 0.541473 0.119510 0.556679
C11   C     C_R   0.596683 0.426637 0.239726 -0.139379
C12   C     C_R   0.498820 0.499114 0.390917 0.915227
C13   C     C_R   0.588904 0.414742 0.298479 0.141823
C14   C     C_R   0.500882 0.496238 0.327815 -0.235116
C15   C     C_R   0.411820 0.572633 0.295118 0.133367
C16   C     C_R   0.430470 0.600078 0.237834 0.445462
C17   C     C_R   0.520003 0.520273 0.208938 0.131322
C18   C     C_R   0.466347 0.392576 0.760703 -0.116575
C19   C     C_R   0.464740 0.391014 0.701782 -0.232689
C20   C     C_R   0.515000 0.501447 0.671395 -0.225074
C21   C     C_R   0.569654 0.614459 0.701658 0.408026
C22   C     C_R   0.560306 0.622386 0.760678 0.477301
C23   C     C_R   0.739346 0.499381 0.503066 0.883217
C24   C     C_R   0.512151 0.507969 0.790781 0.122279
C25   C     C_3   0.070841 0.623729 0.546302 0.752721
C26   C     C_3   0.072349 0.356384 0.532279 0.734757
C27   C     C_3   0.925788 0.619526 0.544917 -0.607429
C28   C     C_3   0.928452 0.360978 0.532611 -0.410446
C29   C     C_3   0.069785 0.522058 0.447025 -0.626323
C30   C     C_3   0.121896 0.500735 0.508258 -0.129914
C31   C     C_3   0.877371 0.499256 0.505754 -0.105132
C32   C     C_3   0.926574 0.514143 0.444345 0.743681
C33   C     C_3   0.623286 0.080418 0.518282 -0.323538
C34   C     C_3   0.624803 0.914908 0.515520 -0.315518
C35   C     C_3   0.404443 0.083944 0.538968 0.316514
C36   C     C_3   0.410117 0.918320 0.541875 0.348596
C37   C     C_3   0.469654 0.083973 0.443401 0.047948
C38   C     C_3   0.464563 0.917082 0.444189 0.005108
C39   C     C_R   0.505165 0.500149 0.608796 0.816659
C40   C     C_R   0.622149 0.513960 0.882015 0.553350
C41   C     C_R   0.401940 0.495189 0.878751 0.607428
C42   C     C_R   0.399169 0.489486 0.938654 -0.100442
C43   C     C_R   0.511338 0.504742 0.969958 -0.084912
C44   C     C_R   0.623499 0.519309 0.941336 0.001917
Cu1   Cu    Cu3+1 0.499860 0.642410 0.500030 1.005157
Cu2   Cu    Cu3+1 0.499860 0.357590 0.500030 0.992029
H1    H     H_    0.422399 0.303720 0.680084 0.229988
H2    H     H_    0.891873 0.603021 0.588495 0.197679
H3    H     H_    0.895492 0.352172 0.576759 0.194254
H4    H     H_    0.885238 0.722301 0.531566 0.179768
H5    H     H_    0.889890 0.268619 0.509925 0.200590
H6    H     H_    0.099740 0.623053 0.429647 0.228231
H7    H     H_    0.111075 0.441826 0.418932 0.222395
H8    H     H_    0.653406 0.116013 0.561169 0.167223
H9    H     H_    0.663434 0.869855 0.555747 0.181040
H10   H     H_    0.695142 0.119043 0.489611 0.197727
H11   H     H_    0.691615 0.881626 0.482921 0.185100
H12   H     H_    0.545463 0.111031 0.415060 0.168998
H13   H     H_    0.531338 0.878031 0.412605 0.168973
H14   H     H_    0.311678 0.111841 0.520612 0.192946
H15   H     H_    0.316245 0.881934 0.529946 0.197260
H16   H     H_    0.821447 0.568104 0.053709 0.206281
H17   H     H_    0.821517 0.552231 0.951372 0.198376
H18   H     H_    0.659796 0.358601 0.217366 0.202956
H19   H     H_    0.429614 0.304369 0.783205 0.197074
N1    N     N_R   0.512181 0.506003 0.851901 -0.481435
N2    N     N_R   0.518187 0.514684 0.147763 -0.469837
N3    N     N_3   0.500250 0.143650 0.501250 -0.203808
N4    N     N_3   0.500250 0.856350 0.501250 -0.210972
O1    O     O_R   0.317570 0.620260 0.500030 -0.526218
O2    O     O_R   0.317570 0.379740 0.500030 -0.555329
O3    O     O_R   0.499840 0.620290 0.417900 -0.566339
O4    O     O_R   0.499840 0.379710 0.417900 -0.547911
O5    O     O_R   0.682190 0.620260 0.500010 -0.597443
O6    O     O_R   0.682190 0.379740 0.500010 -0.588122
O7    O     O_R   0.499920 0.620230 0.582140 -0.524951
O8    O     O_R   0.499920 0.379770 0.582140 -0.566752
O9    O     O_2   0.729926 0.517630 0.854512 -0.481592
O10   O     O_2   0.295594 0.491279 0.847307 -0.432252
O11   O     O_2   0.315251 0.433909 0.149523 -0.441510
O12   O     O_2   0.728151 0.576675 0.148683 -0.494875
O13   O     O_3   0.177893 0.461084 0.936479 -0.631576
H20   H     H_    0.112680 0.514379 0.956163 0.339849
O14   O     O_3   0.633987 0.718536 0.675391 -0.672955
H21   H     H_    0.674834 0.677625 0.642072 0.303568
O15   O     O_3   0.601425 0.742398 0.787340 -0.640280
H22   H     H_    0.567005 0.747653 0.825700 0.326756
O16   O     O_3   0.111813 0.755311 0.527750 -0.715019
H23   H     H_    0.061880 0.786315 0.494089 0.312696
O17   O     O_3   0.111442 0.240581 0.499834 -0.721865
H24   H     H_    0.065756 0.240960 0.462801 0.351610
O18   O     O_3   0.115915 0.604782 0.602410 -0.661543
H25   H     H_    0.090002 0.688197 0.624466 0.367014
O19   O     O_3   0.115491 0.335016 0.588609 -0.647987
H26   H     H_    0.205454 0.313042 0.588067 0.376101
O20   O     O_3   0.873261 0.632225 0.416325 -0.692137
H27   H     H_    0.901657 0.717957 0.435909 0.304758
O21   O     O_3   0.893285 0.395051 0.413111 -0.709116
H28   H     H_    0.920128 0.410118 0.373674 0.378720
I1    I     I_    0.115447 0.411855 0.065156 -0.170148
O22   O     O_3   0.405959 0.143626 0.593287 -0.695936
H29   H     H_    0.488808 0.128155 0.611360 0.330829
O23   O     O_3   0.430280 0.869329 0.597670 -0.633158
H30   H     H_    0.511405 0.902126 0.612316 0.348260
I2    I     I_    0.308818 0.183016 0.397856 -0.226564
I3    I     I_    0.289296 0.838217 0.411391 -0.254251
I4    I     I_    0.697757 0.250926 0.335132 -0.264086
I5    I     I_    0.222582 0.563913 0.315421 -0.152871
O24   O     O_3   0.351098 0.693995 0.210175 -0.641675
H31   H     H_    0.387766 0.721549 0.173923 0.333085

loop_
_geom_bond_atom_site_label_1
_geom_bond_atom_site_label_2
_ccdc_geom_bond_type
C27   H2    S    
C26   O19   S    
O22   H29   S    
C41   C42   A    
C19   C20   A    
C13   I4    S    
C7    C8    A    
Cu1   Cu2   S    
C18   H19   S    
Cu2   N3    S    
C1    O2    A    
C36   O23   S    
C18   C24   A    
C39   O8    A    
C37   C38   S    
C29   C32   S    
C5    C6    A    
C28   H5    S    
C19   H1    S    
C15   C16   A    
O21   H28   S    
C37   N3    S    
C25   C30   S    
C18   C19   A    
C1    C30   S    
C3    I1    S    
C35   C36   S    
C16   C17   A    
C34   H11   S    
C37   H12   S    
C27   H4    S    
C24   N1    S    
C33   H10   S    
C12   O3    A    
C38   N4    S    
C34   H9    S    
C40   N1    A    
C21   C22   A    
Cu1   O3    S    
C12   O4    A    
Cu2   O6    S    
C16   O24   S    
C17   N2    S    
C27   C31   S    
O14   H21   S    
C11   H18   S    
C20   C39   S    
O15   H22   S    
C10   N2    A    
Cu1   N4    S    
C25   O16   S    
C35   H14   S    
C9    O11   S    
C23   C31   S    
C15   I5    S    
C38   I3    S    
C43   C44   A    
C9    N2    A    
C7    H16   S    
C37   I2    S    
C29   C30   S    
C28   H3    S    
C31   C32   S    
C21   O14   S    
O20   H27   S    
C33   C34   S    
C39   O7    A    
O16   H23   S    
C34   N4    S    
Cu2   O2    S    
C41   N1    A    
C32   O20   S    
C12   C14   S    
C26   C30   S    
Cu1   O7    S    
C40   O9    S    
C2    O13   S    
C26   O17   S    
C42   C43   A    
C23   O5    A    
C36   H15   S    
C36   N4    S    
C33   H8    S    
C11   C17   A    
C25   O18   S    
Cu1   O1    S    
C28   C31   S    
C8    C44   A    
C23   O6    A    
C4    C5    A    
C35   O22   S    
C41   O10   S    
Cu2   O8    S    
C6    C7    A    
C25   C27   S    
C10   O12   S    
C26   C28   S    
C1    O1    A    
C2    C3    A    
O24   H31   S    
C11   C13   A    
O17   H24   S    
C29   H7    S    
C35   N3    S    
C2    C42   A    
O18   H25   S    
C32   O21   S    
C22   C24   A    
C22   O15   S    
C5    C43   A    
O19   H26   S    
C6    C10   A    
C8    H17   S    
C38   H13   S    
C40   C44   A    
C20   C21   A    
O13   H20   S    
O23   H30   S    
C14   C15   A    
Cu1   O5    S    
C4    C9    A    
C13   C14   A    
Cu2   O4    S    
C3    C4    A    
C33   N3    S    
C29   H6    S    
