data_mof_unit_30007.cif
_audit_creation_date              2012-12-10T18:11:43-0500
_audit_creation_method            fapswitch 2.2
_symmetry_space_group_name_H-M    P1
_symmetry_Int_Tables_number       1
_space_group_crystal_system       triclinic
_cell_length_a                    10.490578
_cell_length_b                    12.636826
_cell_length_c                    13.061603
_cell_angle_alpha                 82.486145
_cell_angle_beta                  89.937894
_cell_angle_gamma                 100.282452
_cell_volume                      1688.57730649

loop_
_atom_site_label
_atom_site_type_symbol
_atom_type_description
_atom_site_fract_x
_atom_site_fract_y
_atom_site_fract_z
_atom_type_partial_charge
C1    C     C_R   0.480989 0.439302 0.691048 0.840276
C2    C     C_3   0.060692 0.600318 0.518893 -0.187476
C3    C     C_3   0.961865 0.520463 0.592556 -0.174770
C4    C     C_3   0.877401 0.498132 0.499517 0.001811
C5    C     C_R   0.391762 0.699442 0.067728 -0.204901
C6    C     C_R   0.495853 0.596124 0.200398 -0.043657
C7    C     C_R   0.504245 0.302044 0.838664 -0.194907
C8    C     C_R   0.514180 0.273364 0.944147 -0.154615
C9    C     C_R   0.495348 0.345945 0.011673 -0.180454
C10   C     C_R   0.459991 0.447071 0.974204 0.081541
C11   C     C_R   0.428932 0.466902 0.869962 0.045303
C12   C     C_R   0.741807 0.499050 0.500033 0.863796
C13   C     C_R   0.455873 0.529423 0.036583 0.042940
C14   C     C_R   0.397076 0.620524 0.001290 0.131859
C15   C     C_R   0.344710 0.628846 0.901472 0.136294
C16   C     C_R   0.363121 0.552807 0.836808 -0.246335
C17   C     C_R   0.513067 0.524280 0.132639 -0.235660
C18   C     C_R   0.438307 0.685840 0.167607 -0.218777
C19   C     C_R   0.465755 0.400356 0.801002 -0.095882
C20   C     C_R   0.274675 0.082032 0.389094 -0.319421
C21   C     C_R   0.657767 0.800426 0.626043 0.013274
C22   C     C_R   0.686003 0.904243 0.654218 -0.255707
C23   C     C_R   0.511648 0.560672 0.308931 0.849391
C24   C     C_R   0.622196 0.984228 0.606472 -0.225353
C25   C     C_R   0.531885 0.960645 0.528992 0.007147
C26   C     C_R   0.500591 0.852967 0.507588 0.238463
C27   C     C_R   0.467342 0.039620 0.475727 -0.036661
C28   C     C_R   0.352348 0.006247 0.423787 0.172926
C29   C     C_R   0.321186 0.899172 0.403602 -0.289479
C30   C     C_R   0.400714 0.825580 0.438926 -0.221842
C31   C     C_R   0.516404 0.151301 0.466252 0.236937
C32   C     C_R   0.313780 0.189341 0.406438 -0.022438
C33   C     C_R   0.258765 0.501352 0.499802 0.856278
C34   C     C_3   0.941871 0.402612 0.480459 -0.162110
C35   C     C_3   0.028557 0.425015 0.573430 -0.227394
C36   C     C_3   0.124469 0.504376 0.499747 0.023310
C37   C     C_3   0.039471 0.483076 0.407987 0.231638
C38   C     C_3   0.973320 0.578495 0.425830 -0.180014
H1    H     H_    0.055237 0.362959 0.633848 0.141892
H2    H     H_    0.568205 0.461838 0.158686 0.138098
H3    H     H_    0.530220 0.248919 0.786485 0.151541
H4    H     H_    0.505839 0.319898 0.092800 0.133515
H5    H     H_    0.542093 0.196809 0.973383 0.140014
H6    H     H_    0.323672 0.560399 0.760150 0.169424
H7    H     H_    0.250795 0.247248 0.385970 0.148757
H8    H     H_    0.238804 0.873547 0.357011 0.152277
H9    H     H_    0.183706 0.058127 0.351935 0.149812
H10   H     H_    0.706674 0.737471 0.662498 0.140110
H11   H     H_    0.900223 0.319994 0.465234 0.146305
H12   H     H_    0.642338 0.063766 0.631421 0.142887
H13   H     H_    0.756179 0.922427 0.713007 0.151248
H14   H     H_    0.380969 0.748038 0.412501 0.208539
H15   H     H_    0.946749 0.640319 0.365124 0.134396
H16   H     H_    0.113230 0.680712 0.534632 0.157008
H17   H     H_    0.925576 0.535344 0.668313 0.135115
H18   H     H_    0.423892 0.742336 0.220272 0.150751
H19   H     H_    0.348573 0.770134 0.045048 0.149431
N1    N     N_R   0.432930 0.222190 0.444670 -0.102230
N2    N     N_R   0.566370 0.776980 0.554790 -0.132536
O1    O     O_R   0.467970 0.366730 0.627150 -0.611691
O2    O     O_R   0.510820 0.544830 0.662520 -0.611288
O3    O     O_R   0.664630 0.410960 0.482340 -0.625038
O4    O     O_R   0.707470 0.589060 0.517710 -0.616064
O5    O     O_R   0.489180 0.455170 0.337480 -0.618866
O6    O     O_R   0.532030 0.633270 0.372850 -0.629109
O7    O     O_R   0.292530 0.410940 0.482290 -0.620145
O8    O     O_R   0.335370 0.589040 0.517660 -0.651517
Zn1   Zn    Zn3+2 0.471390 0.381080 0.476380 0.923199
Zn2   Zn    Zn3+2 0.528610 0.618920 0.523620 0.920429
C39   C     C_3   0.660149 0.189685 0.446770 -0.401663
C40   C     C_3   0.687727 0.248687 0.336558 -0.823594
H20   H     H_    0.647364 0.193903 0.279952 0.237165
H21   H     H_    0.643809 0.322443 0.323297 0.292202
H22   H     H_    0.793606 0.272169 0.320906 0.229968
H23   H     H_    0.700159 0.236998 0.508033 0.213241
H24   H     H_    0.713567 0.121099 0.450923 0.195472
C41   C     C_3   0.085678 0.463446 0.302772 -0.947701
H25   H     H_    0.002532 0.454293 0.250222 0.241362
H26   H     H_    0.160435 0.533200 0.269573 0.242650
H27   H     H_    0.127738 0.388372 0.310803 0.247188
C42   C     C_3   0.272131 0.718172 0.859631 -0.431482
C43   C     C_3   0.365587 0.820059 0.813351 -0.831134
H28   H     H_    0.434300 0.850532 0.871911 0.253256
H29   H     H_    0.421161 0.801917 0.747466 0.276254
H30   H     H_    0.310184 0.884550 0.784572 0.245178
H31   H     H_    0.205652 0.690975 0.798129 0.204417
H32   H     H_    0.208854 0.736990 0.920380 0.195627

loop_
_geom_bond_atom_site_label_1
_geom_bond_atom_site_label_2
_ccdc_geom_bond_type
O7    Zn1   S    
C34   C37   S    
C32   H7    S    
C35   C36   S    
C8    H5    S    
C32   N1    A    
C42   C43   S    
C7    C8    A    
C15   C42   S    
C41   H25   S    
C11   C19   A    
C9    H4    S    
C29   C30   A    
O5    Zn1   S    
C31   N1    A    
C28   C29   A    
C21   N2    A    
C2    C36   S    
C15   C16   A    
C33   C36   S    
C34   C35   S    
C3    H17   S    
C31   C39   S    
O4    Zn2   S    
C8    C9    A    
C39   C40   S    
C4    C12   S    
C9    C10   A    
C16   H6    S    
C42   H31   S    
C18   H18   S    
C21   H10   S    
C21   C22   A    
C33   O7    A    
C41   H26   S    
C24   H12   S    
C6    C18   A    
C4    C34   S    
C1    C19   S    
C27   C31   A    
C24   C25   A    
C2    H16   S    
C1    O1    A    
C40   H21   S    
C12   O4    A    
C5    C18   A    
C20   C28   A    
C25   C26   A    
C37   C41   S    
O8    Zn2   S    
C17   H2    S    
C35   H1    S    
C37   C38   S    
C12   O3    A    
C11   C16   A    
C2    C38   S    
C3    C35   S    
C5    C14   A    
C42   H32   S    
N2    Zn2   S    
N1    Zn1   S    
C23   O5    A    
C4    C38   S    
C26   C30   A    
C43   H29   S    
C39   H24   S    
C22   C24   A    
C3    C4    S    
C39   H23   S    
C33   O8    A    
C20   C32   A    
C41   H27   S    
O2    Zn2   S    
C6    C17   A    
C30   H14   S    
C36   C37   S    
C34   H11   S    
C10   C13   A    
C1    O2    A    
C40   H22   S    
C5    H19   S    
C25   C27   A    
C43   H30   S    
C7    C19   A    
O3    Zn1   S    
C29   H8    S    
C23   O6    A    
C2    C3    S    
C40   H20   S    
C38   H15   S    
O6    Zn2   S    
C6    C23   S    
C7    H3    S    
C20   H9    S    
C10   C11   A    
C13   C17   A    
O1    Zn1   S    
C43   H28   S    
C27   C28   A    
C14   C15   A    
C26   N2    A    
C13   C14   A    
C22   H13   S    
