data_mof_unit_15245.cif
_audit_creation_date              2012-12-10T20:47:09-0500
_audit_creation_method            fapswitch 2.2
_symmetry_space_group_name_H-M    P1
_symmetry_Int_Tables_number       1
_space_group_crystal_system       triclinic
_cell_length_a                    10.640319
_cell_length_b                    8.922611
_cell_length_c                    8.125924
_cell_angle_alpha                 89.898872
_cell_angle_beta                  89.998227
_cell_angle_gamma                 89.978111
_cell_volume                      771.469312947

loop_
_atom_site_label
_atom_site_type_symbol
_atom_type_description
_atom_site_fract_x
_atom_site_fract_y
_atom_site_fract_z
_atom_type_partial_charge
C1    C     C_R   0.499992 0.218085 0.500082 0.927289
C2    C     C_R   0.065722 0.640462 0.558564 0.075546
C3    C     C_R   0.127975 0.511806 0.499518 -0.062270
C4    C     C_R   0.872040 0.511869 0.499512 -0.062377
C5    C     C_R   0.064251 0.388751 0.436389 -0.194391
C6    C     C_R   0.935821 0.389016 0.435883 -0.210515
C7    C     C_1   0.499974 0.065217 0.500178 -0.209925
C8    C     C_1   0.499970 0.934760 0.499907 -0.207591
C9    C     C_R   0.499990 0.781911 0.499885 0.905070
C10   C     C_R   0.259910 0.502664 0.499977 0.858422
C11   C     C_R   0.740097 0.502671 0.499972 0.858062
C12   C     C_R   0.130942 0.769221 0.612578 -0.275907
C13   C     C_R   0.868914 0.768821 0.614156 -0.264905
C14   C     C_R   0.065757 0.896379 0.666683 0.146742
C15   C     C_R   0.934045 0.896578 0.667773 0.175466
C16   C     C_R   0.934245 0.640375 0.558993 0.071558
H1    H     H_    0.114260 0.291708 0.389855 0.146280
H2    H     H_    0.885814 0.292333 0.388561 0.144248
H3    H     H_    0.232521 0.773454 0.611368 0.150017
H4    H     H_    0.767333 0.771767 0.613587 0.146297
H5    H     H_    0.192586 0.994640 0.816370 0.199237
H6    H     H_    0.189973 0.062537 0.622195 0.173127
H7    H     H_    0.884500 0.113079 0.639315 0.188220
H8    H     H_    0.770424 0.007830 0.722143 0.180759
N1    N     N_1   0.500000 0.500000 0.073640 -0.027728
N2    N     N_1   0.500000 0.500000 0.926360 -0.027469
N3    N     N_3   0.133358 0.026400 0.719709 -0.438917
N4    N     N_3   0.867395 0.026957 0.723720 -0.424800
O1    O     O_R   0.500000 0.285350 0.636850 -0.614412
O2    O     O_R   0.500000 0.714650 0.636850 -0.627173
O3    O     O_R   0.500000 0.285360 0.363100 -0.612817
O4    O     O_R   0.500000 0.714640 0.363100 -0.607927
O5    O     O_R   0.316770 0.500000 0.636900 -0.615861
O6    O     O_R   0.683230 0.500000 0.636900 -0.616323
O7    O     O_R   0.316780 0.500000 0.363150 -0.615036
O8    O     O_R   0.683220 0.500000 0.363150 -0.612447
Zn1   Zn    Zn3+2 0.500000 0.500000 0.682780 0.987276
Zn2   Zn    Zn3+2 0.500000 0.500000 0.317220 0.995175

loop_
_geom_bond_atom_site_label_1
_geom_bond_atom_site_label_2
_ccdc_geom_bond_type
C4    C16   A    
N2    Zn1   S    
C10   O7    A    
O4    Zn2   S    
N1    Zn2   S    
O6    Zn1   S    
C2    C16   A    
C14   N3    S    
C9    O4    A    
O3    Zn2   S    
C2    C12   A    
C1    O1    A    
C2    C3    A    
H5    N3    S    
C7    C8    T    
C3    C10   S    
H7    N4    S    
C4    C11   S    
C15   N4    S    
C9    O2    A    
C12   H3    S    
O8    Zn2   S    
C11   O8    A    
C12   C14   A    
C10   O5    A    
H6    N3    S    
C13   C15   A    
C5    C6    A    
C6    H2    S    
C5    H1    S    
C1    O3    A    
O7    Zn2   S    
C4    C6    A    
C13   C16   A    
O1    Zn1   S    
C14   C15   A    
C13   H4    S    
N1    N2    T    
C1    C7    S    
C11   O6    A    
O5    Zn1   S    
H8    N4    S    
O2    Zn1   S    
C8    C9    S    
C3    C5    A    
