data_mof_unit_41897.cif
_audit_creation_date              2012-12-10T20:34:57-0500
_audit_creation_method            fapswitch 2.2
_symmetry_space_group_name_H-M    P1
_symmetry_Int_Tables_number       1
_space_group_crystal_system       triclinic
_cell_length_a                    10.63269
_cell_length_b                    10.67767
_cell_length_c                    9.85728
_cell_angle_alpha                 90.102538
_cell_angle_beta                  90.105727
_cell_angle_gamma                 89.918078
_cell_volume                      1119.11537647

loop_
_atom_site_label
_atom_site_type_symbol
_atom_type_description
_atom_site_fract_x
_atom_site_fract_y
_atom_site_fract_z
_atom_type_partial_charge
C1    C     C_R   0.496623 0.259980 0.499955 0.923700
C2    C     C_3   0.878753 0.499620 0.499009 0.138594
C3    C     C_3   0.927847 0.618873 0.571346 -0.404575
C4    C     C_3   0.928299 0.498156 0.350780 -0.385160
C5    C     C_R   0.478978 0.063826 0.622989 0.024026
C6    C     C_R   0.478085 0.128565 0.500453 -0.058968
C7    C     C_R   0.452600 0.064644 0.379050 -0.225599
C8    C     C_R   0.451582 0.935116 0.379177 -0.221213
C9    C     C_R   0.475304 0.871293 0.500883 -0.061416
C10   C     C_R   0.475634 0.936319 0.623388 0.055194
C11   C     C_3   0.560981 0.926758 0.743705 -0.507186
C12   C     C_R   0.257607 0.499519 0.499687 0.822256
C13   C     C_3   0.565586 0.068999 0.743113 0.250966
C14   C     C_R   0.448045 0.402543 0.070878 0.227431
C15   C     C_R   0.561791 0.589931 0.072311 -0.138536
C16   C     C_R   0.561888 0.589873 0.928265 -0.132228
C17   C     C_R   0.448227 0.402479 0.928273 0.241789
C18   C     C_3   0.314789 0.360699 0.921593 -0.526072
C19   C     C_3   0.314231 0.361451 0.075588 -0.526402
C20   C     C_R   0.495724 0.740009 0.500109 0.874370
C21   C     C_R   0.742377 0.499840 0.499833 0.858016
C22   C     C_3   0.072412 0.382166 0.574840 -0.418666
C23   C     C_3   0.928027 0.381676 0.573615 -0.343882
C24   C     C_3   0.072225 0.619328 0.569991 -0.390896
C25   C     C_3   0.071022 0.496005 0.350816 -0.399472
C26   C     C_3   0.121208 0.499311 0.498866 0.178498
H1    H     H_    0.894958 0.582713 0.295159 0.179142
H2    H     H_    0.891699 0.704221 0.519448 0.166786
H3    H     H_    0.442051 0.113491 0.283458 0.162601
H4    H     H_    0.440989 0.886022 0.283562 0.165676
H5    H     H_    0.511646 0.888291 0.833771 0.166995
H6    H     H_    0.651858 0.880189 0.719275 0.228295
H7    H     H_    0.521057 0.112715 0.833538 0.105423
H8    H     H_    0.609712 0.663801 0.126901 0.148671
H9    H     H_    0.610116 0.663500 0.874156 0.145265
H10   H     H_    0.251618 0.432592 0.876620 0.215385
H11   H     H_    0.251371 0.434433 0.118684 0.214616
H12   H     H_    0.303861 0.266648 0.120532 0.195597
H13   H     H_    0.893587 0.295545 0.521797 0.199663
H14   H     H_    0.107785 0.624369 0.676174 0.178249
H15   H     H_    0.106399 0.577909 0.292410 0.177787
H16   H     H_    0.103714 0.409177 0.298981 0.174913
H17   H     H_    0.892782 0.414135 0.295618 0.186028
N1    N     N_R   0.499150 0.499140 0.142800 -0.108413
N2    N     N_R   0.499150 0.499180 0.857150 -0.104848
O1    O     O_R   0.500020 0.316790 0.614690 -0.597598
O2    O     O_R   0.500000 0.316760 0.385350 -0.628467
O3    O     O_R   0.314800 0.500000 0.614670 -0.633075
O4    O     O_R   0.314790 0.499960 0.385330 -0.631362
O5    O     O_R   0.500000 0.683240 0.614650 -0.620913
O6    O     O_R   0.499980 0.683210 0.385310 -0.630070
O7    O     O_R   0.685210 0.500040 0.614670 -0.609263
O8    O     O_R   0.685200 0.500000 0.385330 -0.626059
Zn1   Zn    Zn3+2 0.500010 0.500020 0.653130 0.956939
Zn2   Zn    Zn3+2 0.499990 0.499980 0.346870 0.937564
H18   H     H_    0.106270 0.382161 0.681705 0.181481
H19   H     H_    0.106566 0.704017 0.515792 0.162061
Cl1   Cl    Cl    0.718974 0.127496 0.704328 -0.666093
H20   H     H_    0.108423 0.295335 0.525599 0.163442
H21   H     H_    0.305702 0.265336 0.877255 0.195932
H22   H     H_    0.892900 0.379586 0.679917 0.212384
H23   H     H_    0.894212 0.621925 0.678210 0.180700

loop_
_geom_bond_atom_site_label_1
_geom_bond_atom_site_label_2
_ccdc_geom_bond_type
C25   H16   S    
O3    Zn1   S    
C2    C4    S    
C13   H7    S    
C6    C7    A    
C7    H3    S    
C19   H12   S    
C9    C10   A    
C1    C6    S    
C15   H8    S    
C5    C13   S    
N1    Zn2   S    
C23   H22   S    
C12   O3    A    
C8    H4    S    
O1    Zn1   S    
C2    C21   S    
C12   O4    A    
C8    C9    A    
O2    Zn2   S    
C11   H5    S    
C5    C10   A    
C22   H20   S    
C21   O8    A    
C11   C13   S    
C14   C17   A    
C3    C24   S    
O5    Zn1   S    
C20   O5    A    
C23   H13   S    
C5    C6    A    
C18   H21   S    
C3    H2    S    
C4    H17   S    
O7    Zn1   S    
N2    Zn1   S    
C17   C18   S    
C20   O6    A    
C2    C3    S    
O8    Zn2   S    
C16   H9    S    
C12   C26   S    
C15   N1    A    
C9    C20   S    
C1    O1    A    
C10   C11   S    
C16   N2    A    
C15   C16   A    
C4    C25   S    
C7    C8    A    
C4    H1    S    
C14   N1    A    
C18   C19   S    
C22   C26   S    
C3    H23   S    
C25   H15   S    
C2    C23   S    
C22   C23   S    
C1    O2    A    
C22   H18   S    
C13   Cl1   S    
C19   H11   S    
O6    Zn2   S    
C24   H14   S    
C25   C26   S    
O4    Zn2   S    
C18   H10   S    
C14   C19   S    
C21   O7    A    
C24   C26   S    
C17   N2    A    
C24   H19   S    
C11   H6    S    
