data_mof_unit_64163.cif
_audit_creation_date              2012-12-10T19:39:59-0500
_audit_creation_method            fapswitch 2.2
_symmetry_space_group_name_H-M    P1
_symmetry_Int_Tables_number       1
_space_group_crystal_system       triclinic
_cell_length_a                    30.553211
_cell_length_b                    21.643317
_cell_length_c                    21.672307
_cell_angle_alpha                 89.862939
_cell_angle_beta                  134.914651
_cell_angle_gamma                 90.324414
_cell_volume                      10148.6603867

loop_
_atom_site_label
_atom_site_type_symbol
_atom_type_description
_atom_site_fract_x
_atom_site_fract_y
_atom_site_fract_z
_atom_type_partial_charge
C1    C     C_R   0.119902 0.499867 0.119622 0.897453
C2    C     C_R   0.619792 0.000504 0.119502 0.897658
C3    C     C_3   0.056619 0.787677 0.163053 0.011299
C4    C     C_3   0.064484 0.212844 0.166611 0.015443
C5    C     C_3   0.558641 0.287674 0.163909 0.013057
C6    C     C_3   0.566696 0.713007 0.167414 0.016713
C7    C     C_3   0.055108 0.716208 0.163409 -0.516556
C8    C     C_3   0.062851 0.284281 0.166984 -0.519779
C9    C     C_3   0.557174 0.216201 0.164353 -0.520514
C10   C     C_3   0.565173 0.784447 0.167834 -0.521353
C11   C     C_R   0.218118 0.549971 0.238999 0.099938
C12   C     C_R   0.717775 0.054444 0.223115 0.106207
C13   C     C_R   0.185427 0.499940 0.183184 -0.105510
C14   C     C_R   0.685096 0.999832 0.182788 -0.094826
C15   C     C_R   0.216097 0.454132 0.180381 -0.280317
C16   C     C_R   0.715200 0.946959 0.191960 -0.285334
C17   C     C_R   0.280642 0.452795 0.244416 0.185510
C18   C     C_R   0.779721 0.945626 0.255022 0.193715
C19   C     C_R   0.313523 0.499949 0.308417 -0.136262
C20   C     C_R   0.813163 0.999248 0.306333 -0.148452
C21   C     C_R   0.281437 0.550231 0.300416 0.101832
C22   C     C_R   0.781063 0.054204 0.284082 0.096015
C23   C     C_3   0.286084 0.580201 0.366931 -0.453985
C24   C     C_3   0.786077 0.100564 0.339848 -0.414883
C25   C     C_3   0.215903 0.579589 0.298815 -0.481283
C26   C     C_3   0.715905 0.100439 0.272316 -0.533461
C27   C     C_R   0.999659 0.620085 0.999576 0.885477
C28   C     C_R   0.999707 0.379947 0.999720 0.879301
C29   C     C_R   0.499683 0.120078 0.999593 0.883314
C30   C     C_R   0.499743 0.879962 0.999752 0.879198
C31   C     C_R   0.781803 0.543974 0.812275 0.101379
C32   C     C_R   0.281806 0.046038 0.809292 0.097564
C33   C     C_R   0.814237 0.499122 0.812742 -0.182582
C34   C     C_R   0.314231 0.999095 0.812846 -0.176936
C35   C     C_R   0.783407 0.460370 0.740368 -0.214727
C36   C     C_R   0.283475 0.958269 0.742507 -0.213861
C37   C     C_R   0.719162 0.460715 0.672986 0.433528
C38   C     C_R   0.219235 0.958810 0.674626 0.437001
C39   C     C_R   0.686191 0.501342 0.679469 -0.218256
C40   C     C_R   0.186209 0.001470 0.678786 -0.219737
C41   C     C_R   0.718488 0.545137 0.746241 0.089454
C42   C     C_R   0.218544 0.047269 0.742894 0.093160
C43   C     C_3   0.712736 0.560954 0.807340 -0.464936
C44   C     C_3   0.212294 0.068232 0.802009 -0.456956
C45   C     C_3   0.782752 0.559658 0.880194 -0.441925
C46   C     C_3   0.282352 0.066521 0.875538 -0.451008
C47   C     C_R   0.000273 0.999486 0.880157 0.920479
C48   C     C_R   0.500264 0.500577 0.880201 0.918637
C49   C     C_R   0.999811 0.880210 0.999390 0.895086
C50   C     C_R   0.000107 0.119828 0.999659 0.898390
C51   C     C_R   0.499814 0.380203 0.999332 0.899962
C52   C     C_R   0.500109 0.619843 0.999684 0.892459
C53   C     C_R   0.879975 0.499075 0.879973 0.906402
C54   C     C_R   0.379972 0.999215 0.879996 0.905643
C55   C     C_R   0.000019 0.999889 0.120187 0.934137
C56   C     C_R   0.500027 0.499983 0.120187 0.934033
C57   C     C_R   0.499960 0.500126 0.380268 0.914716
C58   C     C_R   0.999922 0.000118 0.380239 0.911831
C59   C     C_R   0.379708 0.499795 0.378836 0.924240
C60   C     C_R   0.879559 0.999697 0.378299 0.921017
C61   C     C_R   0.501792 0.499883 0.621967 0.916532
C62   C     C_R   0.000480 0.999904 0.620237 0.919615
C63   C     C_R   0.620170 0.500179 0.618585 0.869013
C64   C     C_R   0.120179 0.000196 0.618349 0.868821
C65   C     C_R   0.952766 0.020552 0.732951 0.002284
C66   C     C_R   0.473735 0.452932 0.755679 -0.030157
C67   C     C_R   0.001648 0.998322 0.815806 -0.176968
C68   C     C_R   0.502206 0.500320 0.816484 -0.157951
C69   C     C_R   0.053671 0.975571 0.835887 -0.202413
C70   C     C_R   0.541105 0.542104 0.824353 -0.207771
C71   C     C_R   0.544377 0.541900 0.763369 0.436905
C72   C     C_R   0.055282 0.975509 0.772771 0.420297
C73   C     C_R   0.507464 0.498700 0.693605 -0.292692
C74   C     C_R   0.003709 0.999528 0.688662 -0.255047
C75   C     C_R   0.023796 0.719892 0.070899 0.078874
C76   C     C_R   0.027660 0.280349 0.072802 0.076349
C77   C     C_R   0.524818 0.219874 0.071347 0.077365
C78   C     C_R   0.528784 0.780429 0.073213 0.074678
C79   C     C_R   0.476622 0.451998 0.695255 0.082215
C80   C     C_R   0.954185 0.021851 0.672528 0.145793
C81   C     C_3   0.411528 0.428235 0.625731 0.836478
C82   C     C_3   0.891145 0.048545 0.604823 0.770912
C83   C     C_3   0.889809 0.047818 0.674785 -0.582947
C84   C     C_3   0.408770 0.429189 0.693406 -0.588596
C85   C     C_R   0.947152 0.998903 0.167694 0.136714
C86   C     C_R   0.447225 0.498347 0.167733 0.136729
C87   C     C_R   0.001143 0.000094 0.187270 -0.123481
C88   C     C_R   0.501177 0.500456 0.187279 -0.124433
C89   C     C_R   0.057950 0.001564 0.275995 -0.281390
C90   C     C_R   0.557957 0.502988 0.275963 -0.279316
C91   C     C_R   0.558764 0.503707 0.341577 0.167603
C92   C     C_R   0.058765 0.002360 0.341616 0.170530
C93   C     C_R   0.502108 0.500744 0.317333 -0.112650
C94   C     C_R   0.002069 0.000652 0.317318 -0.111091
C95   C     C_R   0.447788 0.498329 0.230090 0.060717
C96   C     C_R   0.947717 0.999086 0.230058 0.056268
C97   C     C_3   0.379396 0.493901 0.167616 -0.512698
C98   C     C_3   0.879247 0.996337 0.167584 -0.513043
C99   C     C_R   0.998433 0.685910 0.997726 -0.089735
C100  C     C_R   0.998691 0.314177 0.998134 -0.085104
C101  C     C_R   0.498498 0.185888 0.997751 -0.089135
C102  C     C_R   0.498773 0.814222 0.998189 -0.083812
C103  C     C_3   0.878401 0.996157 0.095641 -0.433963
C104  C     C_3   0.378567 0.493987 0.095702 -0.437401
C105  C     C_R   0.971989 0.718159 0.921333 -0.203764
C106  C     C_R   0.969129 0.281878 0.920421 -0.204276
C107  C     C_R   0.471144 0.218108 0.920926 -0.204710
C108  C     C_R   0.468199 0.781928 0.920114 -0.201737
C109  C     C_R   0.971638 0.782905 0.920942 -0.212408
C110  C     C_R   0.969051 0.217137 0.920161 -0.208041
C111  C     C_R   0.470766 0.282860 0.920500 -0.210500
C112  C     C_R   0.468097 0.717186 0.919856 -0.208619
C113  C     C_R   0.999307 0.815026 0.997568 -0.087651
C114  C     C_R   0.000175 0.185083 0.998134 -0.091843
C115  C     C_R   0.499333 0.315004 0.997504 -0.089505
C116  C     C_R   0.500192 0.685125 0.998140 -0.092018
C117  C     C_R   0.025364 0.781836 0.071089 0.051821
C118  C     C_R   0.029509 0.218430 0.072972 0.051236
C119  C     C_R   0.526368 0.281816 0.071462 0.051081
C120  C     C_R   0.530578 0.718509 0.073323 0.053330
H1    H     H_    0.951139 0.693625 0.862292 0.166844
H2    H     H_    0.945567 0.306385 0.860304 0.165009
H3    H     H_    0.449582 0.193538 0.861590 0.166910
H4    H     H_    0.443858 0.806448 0.859745 0.164411
H5    H     H_    0.195502 0.626559 0.276610 0.192428
H6    H     H_    0.196475 0.548549 0.315647 0.222778
H7    H     H_    0.695336 0.144957 0.236842 0.200477
H8    H     H_    0.696782 0.080870 0.296819 0.215432
H9    H     H_    0.809144 0.428410 0.737508 0.177300
H10   H     H_    0.309260 0.924793 0.741540 0.175366
H11   H     H_    0.690396 0.523473 0.812481 0.200318
H12   H     H_    0.693380 0.607884 0.795061 0.221925
H13   H     H_    0.189280 0.033356 0.809119 0.217750
H14   H     H_    0.193254 0.115713 0.786222 0.207821
H15   H     H_    0.800916 0.521548 0.927497 0.214585
H16   H     H_    0.803769 0.605815 0.909756 0.199457
H17   H     H_    0.299967 0.030433 0.925070 0.220631
H18   H     H_    0.303734 0.113003 0.902315 0.197002
H19   H     H_    0.092904 0.957519 0.900150 0.189967
H20   H     H_    0.567524 0.576098 0.876359 0.174009
H21   H     H_    0.855721 0.014810 0.660908 0.205311
H22   H     H_    0.890766 0.094452 0.697136 0.193515
H23   H     H_    0.406097 0.382501 0.712126 0.198101
H24   H     H_    0.375960 0.463474 0.680039 0.199957
H25   H     H_    0.101516 0.002499 0.294728 0.176144
H26   H     H_    0.601498 0.504747 0.294662 0.176184
H27   H     H_    0.950735 0.807597 0.861995 0.152759
H28   H     H_    0.945522 0.192397 0.860133 0.151984
H29   H     H_    0.449143 0.307538 0.861223 0.150366
H30   H     H_    0.443778 0.692451 0.859564 0.153875
H31   H     H_    0.359025 0.536002 0.168203 0.208496
H32   H     H_    0.364291 0.449299 0.173262 0.205650
H33   H     H_    0.859968 0.039064 0.169037 0.207662
H34   H     H_    0.862982 0.952244 0.172400 0.206832
H35   H     H_    0.858529 0.038774 0.055355 0.204408
H36   H     H_    0.861514 0.951961 0.058763 0.202463
H37   H     H_    0.357699 0.536194 0.054581 0.205761
H38   H     H_    0.362743 0.449483 0.059711 0.201581
H39   H     H_    0.103438 0.808932 0.205999 0.159559
H40   H     H_    0.111062 0.192293 0.206471 0.158923
H41   H     H_    0.605387 0.308940 0.205996 0.159542
H42   H     H_    0.613117 0.692397 0.206267 0.157997
H43   H     H_    0.024516 0.696115 0.169113 0.211593
H44   H     H_    0.034576 0.303739 0.176896 0.213074
H45   H     H_    0.527195 0.196125 0.171185 0.211846
H46   H     H_    0.537696 0.803989 0.179072 0.214561
H47   H     H_    0.101666 0.695087 0.206429 0.180712
H48   H     H_    0.109012 0.306167 0.206568 0.188192
H49   H     H_    0.603670 0.195060 0.206545 0.182870
H50   H     H_    0.611208 0.806291 0.206307 0.185983
H51   H     H_    0.190159 0.417686 0.131869 0.156084
H52   H     H_    0.688891 0.905948 0.153649 0.149007
H53   H     H_    0.306121 0.627523 0.383977 0.204902
H54   H     H_    0.307398 0.549726 0.423398 0.235857
H55   H     H_    0.805969 0.145172 0.343368 0.208279
H56   H     H_    0.807776 0.081273 0.403579 0.242719
O1    O     O_R   0.091640 0.500000 0.143360 -0.624876
O2    O     O_R   0.591640 0.000000 0.143360 -0.624611
O3    O     O_R   0.051710 0.908380 0.051700 -0.626989
O4    O     O_R   0.051710 0.091620 0.051700 -0.625241
O5    O     O_R   0.551710 0.408380 0.051700 -0.624834
O6    O     O_R   0.551710 0.591620 0.051700 -0.628550
O7    O     O_R   0.948260 0.000000 0.039800 -0.627169
O8    O     O_R   0.448260 0.500000 0.039800 -0.627043
O9    O     O_R   0.051700 0.000000 0.143310 -0.629809
O10   O     O_R   0.551700 0.500000 0.143310 -0.629614
O11   O     O_R   0.499940 0.551750 0.408310 -0.635618
O12   O     O_R   0.499940 0.448250 0.408310 -0.626146
O13   O     O_R   0.999940 0.051750 0.408310 -0.637860
O14   O     O_R   0.999940 0.948250 0.408310 -0.625981
O15   O     O_R   0.408380 0.551720 0.408370 -0.632350
O16   O     O_R   0.408380 0.448280 0.408370 -0.586865
O17   O     O_R   0.908380 0.051720 0.408370 -0.621077
O18   O     O_R   0.908380 0.948280 0.408370 -0.594681
O19   O     O_R   0.500050 0.551670 0.591650 -0.619127
O20   O     O_R   0.500050 0.448330 0.591650 -0.582080
O21   O     O_R   0.000050 0.051670 0.591650 -0.591421
O22   O     O_R   0.000050 0.948330 0.591650 -0.617369
O23   O     O_R   0.591610 0.551710 0.591590 -0.623383
O24   O     O_R   0.591610 0.448290 0.591590 -0.616746
O25   O     O_R   0.091610 0.051710 0.591590 -0.622242
O26   O     O_R   0.091610 0.948290 0.591590 -0.614366
O27   O     O_R   0.091570 0.500000 0.039860 -0.620620
O28   O     O_R   0.591570 0.000000 0.039860 -0.619478
O29   O     O_R   0.000030 0.591610 0.051750 -0.622722
O30   O     O_R   0.000030 0.408390 0.051750 -0.620149
O31   O     O_R   0.500030 0.091610 0.051750 -0.623338
O32   O     O_R   0.500030 0.908390 0.051750 -0.619288
O33   O     O_R   0.999970 0.591600 0.948260 -0.625186
O34   O     O_R   0.999970 0.408400 0.948260 -0.630347
O35   O     O_R   0.499970 0.091600 0.948260 -0.625396
O36   O     O_R   0.499970 0.908400 0.948260 -0.629353
O37   O     O_R   0.908410 0.500000 0.960140 -0.622672
O38   O     O_R   0.408410 0.000000 0.960140 -0.620777
O39   O     O_R   0.908350 0.500000 0.856640 -0.626744
O40   O     O_R   0.408350 0.000000 0.856640 -0.626862
O41   O     O_R   0.948280 0.000000 0.856590 -0.618447
O42   O     O_R   0.448280 0.500000 0.856590 -0.624821
O43   O     O_R   0.051720 0.000000 0.960100 -0.632613
O44   O     O_R   0.551720 0.500000 0.960100 -0.624679
O45   O     O_R   0.948270 0.908380 0.948190 -0.624007
O46   O     O_R   0.948270 0.091620 0.948190 -0.623750
O47   O     O_R   0.448270 0.408380 0.948190 -0.624474
O48   O     O_R   0.448270 0.591620 0.948190 -0.622672
Zn1   Zn    Zn3+2 0.000030 0.500000 0.069110 0.944247
Zn2   Zn    Zn3+2 0.500030 0.000000 0.069110 0.946688
Zn3   Zn    Zn3+2 0.999950 0.500000 0.930890 0.955372
Zn4   Zn    Zn3+2 0.499950 0.000000 0.930890 0.958094
Zn5   Zn    Zn3+2 0.930930 0.000000 0.930840 0.954538
Zn6   Zn    Zn3+2 0.430930 0.500000 0.930840 0.953743
Zn7   Zn    Zn3+2 0.069060 0.000000 0.069060 0.951977
Zn8   Zn    Zn3+2 0.569060 0.500000 0.069060 0.953063
Zn9   Zn    Zn3+2 0.500000 0.569060 0.499990 0.959064
Zn10  Zn    Zn3+2 0.500000 0.430940 0.499990 1.010322
Zn11  Zn    Zn3+2 0.000000 0.069060 0.499990 0.974149
Zn12  Zn    Zn3+2 0.000000 0.930940 0.499990 0.991392
O49   O     O_3   0.691489 0.420084 0.604768 -0.761907
H57   H     H_    0.648092 0.432169 0.554770 0.354770
O50   O     O_3   0.191539 0.916514 0.608149 -0.758146
H58   H     H_    0.148919 0.929799 0.556551 0.354527
O51   O     O_3   0.582639 0.584950 0.773715 -0.762575
H59   H     H_    0.591945 0.571450 0.740515 0.333659
O52   O     O_3   0.107607 0.952550 0.796661 -0.765406
H60   H     H_    0.104979 0.958693 0.748919 0.327757
O53   O     O_3   0.409163 0.368601 0.598428 -0.740518
H61   H     H_    0.365862 0.354126 0.560436 0.337758
O54   O     O_3   0.370425 0.468970 0.555236 -0.799092
H62   H     H_    0.375237 0.510442 0.579023 0.301329
O55   O     O_3   0.849209 0.007707 0.535029 -0.792977
H63   H     H_    0.807345 0.022880 0.503910 0.312291
O56   O     O_3   0.891751 0.107698 0.578876 -0.770234
H64   H     H_    0.851200 0.126365 0.548492 0.312044
N1    N     N_2   0.616079 0.505058 0.430718 -0.320672
H65   H     H_    0.650209 0.479843 0.443260 0.244456
C121  C     C_3   0.637480 0.566285 0.468324 -0.786247
H66   H     H_    0.679501 0.562590 0.539298 0.242981
H67   H     H_    0.601748 0.591412 0.459308 0.266649
H68   H     H_    0.649310 0.592952 0.437846 0.233788
N2    N     N_2   0.116085 0.002847 0.430781 -0.321532
H69   H     H_    0.149821 0.977081 0.442966 0.242166
C122  C     C_3   0.138383 0.063802 0.469128 -0.790219
H70   H     H_    0.180690 0.059588 0.539898 0.241736
H71   H     H_    0.103238 0.089262 0.461159 0.266327
H72   H     H_    0.150000 0.090431 0.438341 0.234714
N3    N     N_2   0.016710 0.816504 0.168682 -0.292926
H73   H     H_    0.972790 0.797902 0.128339 0.239292
C123  C     C_3   0.045312 0.828724 0.256148 -0.760662
H74   H     H_    0.012707 0.854705 0.253370 0.242984
H75   H     H_    0.087667 0.857337 0.292101 0.244772
H76   H     H_    0.057318 0.784599 0.291368 0.243186
N4    N     N_2   0.027543 0.183286 0.177581 -0.287404
H77   H     H_    0.983798 0.201132 0.139997 0.240896
C124  C     C_3   0.059759 0.171603 0.266834 -0.776347
H78   H     H_    0.029275 0.144936 0.268178 0.248457
H79   H     H_    0.072777 0.215932 0.302171 0.240394
H80   H     H_    0.101900 0.143903 0.299995 0.242580
N5    N     N_2   0.519474 0.316512 0.170914 -0.292942
H81   H     H_    0.475670 0.297803 0.131525 0.238529
C125  C     C_3   0.549096 0.329022 0.258830 -0.761468
H82   H     H_    0.516908 0.354905 0.257004 0.242927
H83   H     H_    0.591175 0.357847 0.293663 0.245003
H84   H     H_    0.561759 0.285018 0.294577 0.242740
N6    N     N_2   0.530660 0.683591 0.180046 -0.286357
H85   H     H_    0.486982 0.701364 0.143192 0.241927
C126  C     C_3   0.563892 0.672356 0.269803 -0.777239
H86   H     H_    0.534048 0.645778 0.272451 0.249323
H87   H     H_    0.577138 0.716856 0.304893 0.240934
H88   H     H_    0.605972 0.644764 0.302315 0.241669
N7    N     N_2   0.311703 0.404086 0.244469 -0.298644
H89   H     H_    0.295905 0.397643 0.184306 0.212546
C127  C     C_3   0.312672 0.346534 0.279550 -0.715297
H90   H     H_    0.265170 0.327134 0.236442 0.216317
H91   H     H_    0.332215 0.353673 0.345877 0.269192
H92   H     H_    0.342017 0.312716 0.284055 0.227199
N8    N     N_2   0.810005 0.890375 0.267184 -0.288074
H93   H     H_    0.793559 0.872992 0.209647 0.215820
C128  C     C_3   0.811639 0.843406 0.316424 -0.716629
H94   H     H_    0.764193 0.826196 0.279295 0.215173
H95   H     H_    0.832506 0.862161 0.380151 0.263985
H96   H     H_    0.840182 0.804063 0.328936 0.226235

loop_
_geom_bond_atom_site_label_1
_geom_bond_atom_site_label_2
_ccdc_geom_bond_type
C69   H19   S    
C49   C113  S    
C18   N8    S    
C121  H67   S    
C70   H20   S    
C28   O30   A    
C81   O54   S    
C82   O55   S    
C9    H49   S    
C127  H90   S    
C75   C117  A    
C104  H37   S    
O27   Zn3   S    
C39   C41   A    
C54   O40   A    
C66   C79   A    
C47   O41   A    
C27   C99   S    
C5    C119  S    
C52   O6    A    
C85   C96   A    
C86   C88   A    
O10   Zn8   S    
N4    H77   S    
C27   O33   A    
C124  H80   S    
C6    C120  S    
C8    H48   S    
C77   C101  A    
C6    N6    S    
O46   Zn5   S    
C51   O47   A    
C85   C103  S    
O53   H61   S    
C41   C43   S    
C72   O52   S    
C42   C44   S    
C108  H4    S    
C99   C105  A    
C111  H29   S    
C44   C46   S    
C71   C73   A    
C17   C19   A    
C56   O8    A    
N2    C122  S    
C7    H43   S    
C76   C118  A    
C50   C114  S    
C5    H41   S    
C78   C120  A    
C25   H6    S    
C36   H10   S    
C30   C102  S    
C92   C94   A    
C5    N5    S    
C9    C77   S    
C94   C96   A    
C61   O20   A    
C71   O51   S    
O11   Zn9   S    
O6    Zn8   S    
C52   O48   A    
C87   C89   A    
O15   Zn9   S    
O3    Zn7   S    
C24   H56   S    
N1    C121  S    
C54   O38   A    
C50   O46   A    
C88   C90   A    
C51   O5    A    
C95   C97   S    
C76   C100  A    
C100  C106  A    
C43   H11   S    
C126  H87   S    
C11   C13   A    
C32   C42   A    
C36   C38   A    
C97   H32   S    
C125  H83   S    
C2    C14   S    
C57   O11   A    
C86   C95   A    
C103  H36   S    
O52   H60   S    
C49   O3    A    
C98   H34   S    
C86   C104  S    
C10   C78   S    
N8    C128  S    
C23   H54   S    
C89   H25   S    
O55   H63   S    
O40   Zn4   S    
C127  H91   S    
C24   C26   S    
O23   Zn9   S    
C122  H70   S    
C123  H76   S    
C56   C88   S    
C11   C25   S    
C12   C22   A    
C8    C76   S    
O51   H59   S    
O32   Zn2   S    
C96   C98   S    
C58   O14   A    
C110  C114  A    
O47   Zn6   S    
C40   C42   A    
C93   C95   A    
O49   H57   S    
C3    H39   S    
C128  H95   S    
C109  H27   S    
C110  H28   S    
C60   O17   A    
C44   H14   S    
C45   H15   S    
C80   C82   S    
C8    H44   S    
C83   H21   S    
C91   N1    S    
C19   C59   S    
C11   C21   A    
C116  C120  A    
C12   C26   S    
C69   C72   A    
C5    C9    S    
N3    C123  S    
O31   Zn2   S    
C10   H46   S    
C106  H2    S    
C75   C99   A    
N7    H89   S    
C73   C79   A    
C43   C45   S    
C46   H17   S    
C113  C117  A    
C115  C119  A    
O35   Zn4   S    
C112  H30   S    
C20   C22   A    
C112  C116  A    
C92   N2    S    
C7    H47   S    
C61   O19   A    
C55   O7    A    
C31   C41   A    
C49   O45   A    
C107  C111  A    
C62   C74   S    
C62   O21   A    
O43   Zn7   S    
C122  H72   S    
C123  H74   S    
O16   Zn10  S    
C79   C81   S    
C29   O31   A    
C13   C15   A    
O20   Zn10  S    
C33   C35   A    
C34   C36   A    
C26   H7    S    
C55   C87   S    
O13   Zn11  S    
O37   Zn1   S    
O1    Zn1   S    
N6    H85   S    
C2    O2    A    
C121  H66   S    
C64   O25   A    
O4    Zn7   S    
C78   C102  A    
O50   H58   S    
C107  H3    S    
O21   Zn11  S    
O56   H64   S    
C48   O42   A    
C3    C7    S    
O5    Zn8   S    
C28   O34   A    
C98   C103  S    
C63   O24   A    
C128  H94   S    
C25   H5    S    
O42   Zn6   S    
C105  C109  A    
C3    C117  S    
C65   C67   A    
C53   O37   A    
C125  H82   S    
O29   Zn1   S    
C70   C71   A    
C20   C60   S    
O7    Zn5   S    
C4    N4    S    
C121  H68   S    
C53   O39   A    
C74   C80   A    
C59   O16   A    
C32   C46   S    
C29   O35   A    
C52   C116  S    
C72   C74   A    
C104  H38   S    
N8    H93   S    
C61   C73   S    
C51   C115  S    
C108  C112  A    
C66   C84   S    
C126  H86   S    
O48   Zn6   S    
C91   C93   A    
C30   O32   A    
O30   Zn1   S    
C97   H31   S    
C29   C101  S    
C48   C68   S    
C103  H35   S    
C56   O10   A    
C21   C23   S    
C22   C24   S    
O14   Zn12  S    
C1    O27   A    
O12   Zn10  S    
C48   O44   A    
C15   C17   A    
C19   C21   A    
C6    C10   S    
C23   H53   S    
C10   H50   S    
C9    H45   S    
O8    Zn6   S    
C37   C39   A    
O22   Zn12  S    
C38   C40   A    
C123  H75   S    
C90   C91   A    
N1    H65   S    
C97   C104  S    
O25   Zn11  S    
O36   Zn4   S    
C82   C83   S    
C31   C45   S    
O45   Zn5   S    
C84   H24   S    
O19   Zn9   S    
O33   Zn3   S    
C27   O29   A    
C24   H55   S    
O17   Zn11  S    
C32   C34   A    
C66   C68   A    
C3    N3    S    
N6    C126  S    
O34   Zn3   S    
C4    C8    S    
C60   O18   A    
C43   H12   S    
C35   C37   A    
O24   Zn10  S    
C126  H88   S    
C30   O36   A    
C65   C83   S    
C125  H84   S    
C57   O12   A    
C124  H79   S    
C38   O50   S    
C1    O1    A    
C6    H42   S    
C31   C33   A    
C102  C108  A    
O28   Zn4   S    
N3    H73   S    
C35   H9    S    
O39   Zn3   S    
C109  C113  A    
C46   H18   S    
O41   Zn5   S    
C28   C100  S    
C23   C25   S    
C98   H33   S    
C65   C80   A    
C57   C93   S    
C4    C118  S    
C47   C67   S    
C59   O15   A    
C85   C87   A    
C33   C53   S    
O9    Zn7   S    
O44   Zn8   S    
C15   H51   S    
C81   O53   S    
C82   O56   S    
C127  H92   S    
C2    O28   A    
C62   O22   A    
C122  H71   S    
C7    C75   S    
C84   H23   S    
C47   O43   A    
C67   C69   A    
C50   O4    A    
C16   H52   S    
C37   O49   S    
C58   O13   A    
C124  H78   S    
C105  H1    S    
C26   H8    S    
C89   C92   A    
C114  C118  A    
C16   C18   A    
C12   C14   A    
N5    C125  S    
C128  H96   S    
C14   C16   A    
C1    C13   S    
N2    H69   S    
C81   C84   S    
C106  C110  A    
C44   H13   S    
N4    C124  S    
C64   O26   A    
C45   H16   S    
O18   Zn12  S    
C77   C119  A    
C83   H22   S    
O54   H62   S    
C34   C54   S    
C39   C63   S    
C40   C64   S    
C58   C94   S    
C90   H26   S    
C4    H40   S    
C17   N7    S    
N7    C127  S    
C63   O23   A    
C18   C20   A    
C55   O9    A    
O38   Zn2   S    
O2    Zn2   S    
O26   Zn12  S    
C68   C70   A    
C101  C107  A    
C111  C115  A    
N5    H81   S    
