data_mof_unit_62103.cif
_audit_creation_date              2012-10-26T17:41:48-0400
_audit_creation_method            fapswitch 2.2
_symmetry_space_group_name_H-M    P1
_symmetry_Int_Tables_number       1
_space_group_crystal_system       triclinic
_cell_length_a                    21.734077
_cell_length_b                    21.754156
_cell_length_c                    22.192057
_cell_angle_alpha                 119.370552
_cell_angle_beta                  119.316384
_cell_angle_gamma                 89.861151
_cell_volume                      7572.62397019

loop_
_atom_site_label
_atom_site_type_symbol
_atom_type_description
_atom_site_fract_x
_atom_site_fract_y
_atom_site_fract_z
_atom_type_partial_charge
C1    C     C_R   0.500070 0.118728 0.500192 0.550818
C2    C     C_R   0.501243 0.185835 0.501891 0.018839
C3    C     C_R   0.568372 0.243945 0.553143 -0.154608
C4    C     C_R   0.579898 0.079918 0.659876 0.548990
C5    C     C_R   0.568301 0.309059 0.553691 -0.155361
C6    C     C_R   0.501527 0.315362 0.500811 0.020482
C7    C     C_R   0.437304 0.256391 0.450582 0.017771
C8    C     C_3   0.355772 0.229556 0.387454 -0.275435
C9    C     C_3   0.355401 0.159386 0.388853 -0.270659
C10   C     C_3   0.222105 0.733191 0.048686 -0.212963
C11   C     C_3   0.336442 0.749372 0.048423 -0.212932
C12   C     C_3   0.714971 0.242690 0.049831 -0.181868
C13   C     C_3   0.287967 0.700840 0.951434 -0.213354
C14   C     C_1   0.125089 0.624789 0.749726 -0.032530
C15   C     C_3   0.291487 0.791334 0.082583 0.068665
C16   C     C_R   0.500113 0.881445 0.500001 0.551269
C17   C     C_3   0.173631 0.684659 0.951701 -0.213589
C18   C     C_3   0.208930 0.708679 0.917405 0.068302
C19   C     C_3   0.216317 0.791725 0.951367 -0.212608
C20   C     C_3   0.264793 0.840259 0.048357 -0.214013
C21   C     C_1   0.162816 0.662516 0.825159 -0.076658
C22   C     C_1   0.337581 0.837479 0.174827 -0.077446
C23   C     C_3   0.790577 0.290784 0.082797 0.031252
C24   C     C_1   0.375252 0.875190 0.250259 -0.034119
C25   C     C_R   0.495972 0.809608 0.556444 0.014078
C26   C     C_R   0.499880 0.814572 0.498477 0.021904
C27   C     C_R   0.504630 0.752046 0.438526 -0.155940
C28   C     C_R   0.420073 0.920071 0.340072 0.550277
C29   C     C_R   0.503917 0.686946 0.438015 -0.157552
C30   C     C_R   0.500952 0.684861 0.499198 0.016159
C31   C     C_R   0.498034 0.748334 0.557878 0.017551
C32   C     C_3   0.493901 0.781226 0.632039 -0.272296
C33   C     C_3   0.492327 0.851487 0.630843 -0.270657
C34   C     C_3   0.829945 0.237844 0.048847 -0.223701
C35   C     C_R   0.881644 0.500144 0.500200 0.551630
C36   C     C_R   0.920175 0.420082 0.340122 0.550383
C37   C     C_R   0.118602 0.499464 0.499311 0.551022
C38   C     C_R   0.080158 0.579926 0.659911 0.552664
C39   C     C_R   0.618972 0.499981 0.500061 0.554783
C40   C     C_3   0.664124 0.198968 0.952817 0.198215
C41   C     C_R   0.500138 0.381195 0.500115 0.554837
C42   C     C_R   0.381040 0.500069 0.500109 0.553070
C43   C     C_R   0.500179 0.618885 0.499894 0.553962
C44   C     C_R   0.757034 0.514873 0.451748 0.018267
C45   C     C_3   0.782942 0.191185 0.952008 -0.221193
C46   C     C_R   0.816178 0.500621 0.501821 0.019046
C47   C     C_R   0.809447 0.485261 0.553569 -0.154852
C48   C     C_R   0.744802 0.485816 0.554043 -0.155630
C49   C     C_R   0.685451 0.499123 0.500603 0.020349
C50   C     C_R   0.694051 0.512537 0.449830 0.017456
C51   C     C_3   0.657610 0.530327 0.386108 -0.275013
C52   C     C_3   0.729631 0.291841 0.950980 -0.265200
C53   C     C_3   0.729277 0.532168 0.387579 -0.270593
C54   C     C_R   0.248157 0.561605 0.560304 0.013179
C55   C     C_R   0.185693 0.498603 0.500406 0.018072
C56   C     C_1   0.837031 0.337245 0.174984 -0.073460
C57   C     C_R   0.191352 0.432073 0.446843 -0.154448
C58   C     C_R   0.255534 0.432120 0.446329 -0.157880
C59   C     C_R   0.315173 0.498163 0.501443 0.017791
C60   C     C_R   0.312303 0.561095 0.561565 0.026877
C61   C     C_3   0.327186 0.638734 0.583804 -0.281877
C62   C     C_3   0.256481 0.639152 0.582176 -0.268097
C63   C     C_3   0.775988 0.340276 0.048176 -0.234329
C64   C     C_1   0.875018 0.375172 0.250375 -0.031874
C65   C     C_3   0.708048 0.208099 0.917104 0.067449
C66   C     C_3   0.658713 0.074173 0.911788 -0.109719
C67   C     C_1   0.662203 0.162335 0.824947 -0.041542
C68   C     C_1   0.624646 0.124741 0.749582 -0.023752
C69   C     C_R   0.436897 0.195332 0.452437 0.018624
Cu1   Cu    Cu3+1 0.438190 1.000000 0.500020 0.933623
Cu2   Cu    Cu3+1 0.561810 1.000000 0.499980 0.926933
Cu3   Cu    Cu3+1 0.000200 0.561800 0.500000 0.921085
Cu4   Cu    Cu3+1 0.000170 0.438200 0.500000 0.929782
Cu5   Cu    Cu3+1 0.541330 0.541310 0.582630 0.920680
Cu6   Cu    Cu3+1 0.458770 0.458690 0.417370 0.918551
H1    H     H_    0.687188 0.279139 0.076916 0.090840
H2    H     H_    0.167950 0.625220 0.928628 0.115661
H3    H     H_    0.622350 0.228488 0.939970 0.135817
H4    H     H_    0.239588 0.696946 0.071965 0.114816
H5    H     H_    0.386530 0.789806 0.071455 0.116438
H6    H     H_    0.356082 0.713432 0.071695 0.114377
H7    H     H_    0.284442 0.641707 0.928354 0.116355
H8    H     H_    0.314887 0.718080 0.928112 0.114697
H9    H     H_    0.231973 0.870865 0.071580 0.113253
H10   H     H_    0.313532 0.882406 0.071390 0.115067
H11   H     H_    0.160328 0.799135 0.928235 0.115431
H12   H     H_    0.724063 0.204923 0.071318 0.131350
H13   H     H_    0.188476 0.761776 0.071910 0.115631
H14   H     H_    0.116836 0.690048 0.928573 0.114132
H15   H     H_    0.762452 0.302838 0.929488 0.123963
H16   H     H_    0.241889 0.810676 0.928046 0.115635
H17   H     H_    0.507776 0.753167 0.391829 0.121177
H18   H     H_    0.506757 0.639094 0.390998 0.123831
H19   H     H_    0.441095 0.752577 0.616659 0.128259
H20   H     H_    0.545339 0.789153 0.687335 0.142037
H21   H     H_    0.438778 0.863502 0.615231 0.149429
H22   H     H_    0.543126 0.899801 0.685140 0.133140
H23   H     H_    0.885576 0.270545 0.073662 0.120736
H24   H     H_    0.854161 0.473987 0.594118 0.126002
H25   H     H_    0.740773 0.474860 0.594838 0.121531
H26   H     H_    0.608224 0.483591 0.326197 0.143547
H27   H     H_    0.678989 0.308250 0.926221 0.106487
H28   H     H_    0.648771 0.585480 0.411583 0.132010
H29   H     H_    0.721339 0.486176 0.328702 0.133877
H30   H     H_    0.761509 0.588277 0.413313 0.145580
H31   H     H_    0.145024 0.381242 0.402883 0.123301
H32   H     H_    0.258083 0.381328 0.402233 0.120313
H33   H     H_    0.378273 0.677510 0.647257 0.135358
H34   H     H_    0.620222 0.239490 0.593243 0.126111
H35   H     H_    0.323594 0.641846 0.533670 0.130311
H36   H     H_    0.266836 0.678241 0.644668 0.136318
H37   H     H_    0.211796 0.642409 0.530991 0.150935
H38   H     H_    0.745705 0.377312 0.069710 0.117115
H39   H     H_    0.829735 0.376450 0.072875 0.127948
H40   H     H_    0.775233 0.131480 0.926639 0.101843
H41   H     H_    0.815094 0.205355 0.931520 0.114399
H42   H     H_    0.839053 0.200099 0.070526 0.110363
H43   H     H_    0.713834 0.096939 0.970942 0.098506
H44   H     H_    0.663291 0.049981 0.857558 0.121849
H45   H     H_    0.620084 0.353554 0.594062 0.121336
H46   H     H_    0.625776 0.027714 0.902463 0.135361
H47   H     H_    0.326419 0.264026 0.413457 0.131322
H48   H     H_    0.342259 0.219101 0.327369 0.142636
H49   H     H_    0.325352 0.153058 0.415077 0.146022
H50   H     H_    0.342169 0.108531 0.329750 0.132625
O1    O     O_R   0.447800 0.090170 0.500010 -0.509005
O2    O     O_R   0.555400 0.465140 0.430260 -0.509371
O3    O     O_R   0.534920 0.444720 0.569790 -0.513245
O4    O     O_R   0.552190 0.090170 0.499980 -0.512297
O5    O     O_R   0.465190 0.374940 0.430230 -0.509599
O6    O     O_R   0.444700 0.534860 0.569740 -0.506036
O7    O     O_R   0.374970 0.465080 0.430180 -0.513650
O8    O     O_R   0.534910 0.625060 0.569770 -0.509745
O9    O     O_R   0.465180 0.555280 0.430210 -0.514526
O10   O     O_R   0.508090 0.060280 0.620580 -0.498009
O11   O     O_R   0.612480 0.060280 0.620550 -0.509553
O12   O     O_R   0.909990 0.447840 0.500030 -0.511781
O13   O     O_R   0.447810 0.909830 0.500020 -0.507557
O14   O     O_R   0.552200 0.909830 0.499990 -0.511772
O15   O     O_R   0.387520 0.939720 0.379450 -0.506621
O16   O     O_R   0.491910 0.939720 0.379420 -0.504894
O17   O     O_R   0.910020 0.552220 0.500020 -0.508800
O18   O     O_3   0.619490 0.125991 0.912823 -0.567527
O19   O     O_R   0.939920 0.491910 0.379430 -0.506414
O20   O     O_R   0.939890 0.387530 0.379440 -0.505099
O21   O     O_R   0.090380 0.552160 0.499970 -0.512687
O22   O     O_R   0.090350 0.447780 0.499980 -0.510052
O23   O     O_R   0.060480 0.612470 0.620560 -0.505110
O24   O     O_R   0.060450 0.508090 0.620570 -0.504482
O25   O     O_R   0.625130 0.534920 0.569820 -0.514184

loop_
_geom_bond_atom_site_label_1
_geom_bond_atom_site_label_2
_ccdc_geom_bond_type
C25   C31   A    
C32   H19   S    
Cu1   O15   S    
C27   C29   A    
C18   C21   S    
C52   H15   S    
C19   C20   S    
C28   O15   A    
C19   H11   S    
Cu6   O9    S    
C23   C56   S    
C54   C60   A    
C11   H6    S    
Cu3   O17   S    
C39   O25   A    
C10   H13   S    
C26   C27   A    
C13   C18   S    
Cu4   O22   S    
C5    C6    A    
C14   C21   T    
C9    C69   S    
C58   H32   S    
C1    O4    A    
C10   C15   S    
C30   C31   A    
Cu2   O4    S    
C53   H29   S    
C51   H28   S    
Cu5   O8    S    
C9    H49   S    
C47   H24   S    
C1    C2    S    
C43   O8    A    
C61   H33   S    
C46   C47   A    
C63   H39   S    
C11   C15   S    
C44   C53   S    
C15   C22   S    
Cu5   O3    S    
C62   H36   S    
C31   C32   S    
C8    C9    S    
C65   C67   S    
C6    C41   S    
C56   C64   T    
Cu1   Cu2   S    
C37   O21   A    
C2    C69   A    
C38   O24   A    
Cu6   O2    S    
Cu6   O5    S    
Cu2   O16   S    
Cu1   O1    S    
C34   H42   S    
C23   C63   S    
C57   H31   S    
C59   C60   A    
Cu5   O6    S    
C41   O3    A    
C61   H35   S    
C44   C46   A    
C50   C51   S    
C16   C26   S    
C15   C20   S    
C48   H25   S    
C39   O2    A    
Cu5   Cu6   S    
C5    H45   S    
C67   C68   T    
C7    C8    S    
C17   H14   S    
C1    O1    A    
Cu2   O11   S    
C4    C68   S    
C18   C19   S    
Cu2   O14   S    
C66   O18   S    
C54   C62   S    
C25   C26   A    
Cu3   O23   S    
C13   H7    S    
C20   H9    S    
C9    H50   S    
Cu4   O20   S    
C60   C61   S    
C51   C53   S    
C63   H38   S    
C12   C40   S    
C43   O9    A    
C29   C30   A    
C14   C38   S    
C45   H40   S    
C47   C48   A    
C12   C23   S    
C23   C34   S    
C52   H27   S    
C20   H10   S    
C17   H2    S    
C17   C18   S    
C66   H46   S    
C27   H17   S    
C34   C45   S    
C37   O22   A    
C38   O23   A    
C42   O6    A    
C4    O10   A    
C40   H3    S    
C48   C49   A    
C39   C49   S    
Cu1   O13   S    
C66   H44   S    
C55   C57   A    
C45   C65   S    
Cu1   O10   S    
C22   C24   T    
C30   C43   S    
C16   O14   A    
C33   H21   S    
Cu6   O7    S    
C44   C50   A    
Cu3   O19   S    
C54   C55   A    
C12   H12   S    
Cu4   O24   S    
C16   O13   A    
C24   C28   S    
Cu3   Cu4   S    
C3    C5    A    
C52   C63   S    
C42   C59   S    
C7    C69   A    
C10   H4    S    
C8    H48   S    
C6    C7    A    
C51   H26   S    
C13   H8    S    
C4    O11   A    
C40   C65   S    
C32   C33   S    
C12   H1    S    
C2    C3    A    
C58   C59   A    
C35   O12   A    
C29   H18   S    
C11   C13   S    
C45   H41   S    
C8    H47   S    
C57   C58   A    
C41   O5    A    
Cu4   O12   S    
C3    H34   S    
Cu3   O21   S    
C34   H23   S    
C33   H22   S    
C36   O19   A    
C61   C62   S    
C19   H16   S    
C11   H5    S    
C35   O17   A    
C37   C55   S    
C53   H30   S    
C36   O20   A    
C32   H20   S    
C62   H37   S    
C49   C50   A    
C66   H43   S    
C40   O18   S    
Cu5   O25   S    
C42   O7    A    
C28   O16   A    
C10   C17   S    
C36   C64   S    
C35   C46   S    
C52   C65   S    
C25   C33   S    
