data_mof_unit_66560.cif
_audit_creation_date              2012-12-11T16:11:51-0500
_audit_creation_method            fapswitch 2.2
_symmetry_space_group_name_H-M    P1
_symmetry_Int_Tables_number       1
_space_group_crystal_system       triclinic
_cell_length_a                    6.961036
_cell_length_b                    14.46747
_cell_length_c                    15.658914
_cell_angle_alpha                 90.047991
_cell_angle_beta                  90.070823
_cell_angle_gamma                 90.159576
_cell_volume                      1576.97910665

loop_
_atom_site_label
_atom_site_type_symbol
_atom_type_description
_atom_site_fract_x
_atom_site_fract_y
_atom_site_fract_z
_atom_type_partial_charge
O1    O     O_R   0.638960 0.835150 0.161940 -0.543140
O2    O     O_R   0.361040 0.164850 0.838060 -0.545526
O3    O     O_R   0.309170 0.846340 0.337470 -0.543235
O4    O     O_R   0.690830 0.153660 0.662530 -0.542639
O5    O     O_R   0.138810 0.664830 0.338070 -0.514802
O6    O     O_R   0.861190 0.335170 0.661930 -0.515321
C1    C     C_R   0.478346 0.868314 0.366585 0.676003
C2    C     C_R   0.521848 0.132039 0.633091 0.678083
O7    O     O_R   0.309250 0.846350 0.162570 -0.543876
O8    O     O_R   0.690750 0.153650 0.837430 -0.541825
O9    O     O_R   0.138880 0.664840 0.161920 -0.539258
O10   O     O_R   0.861120 0.335160 0.838080 -0.541050
C3    C     C_R   0.478341 0.868097 0.133084 0.664489
C4    C     C_R   0.521658 0.131582 0.866653 0.659671
O11   O     O_R   0.638880 0.835150 0.338090 -0.545754
O12   O     O_R   0.361120 0.164850 0.661910 -0.544863
O13   O     O_3   0.472380 0.690440 0.250000 -0.342963
O14   O     O_3   0.527620 0.309560 0.750000 -0.344838
V1    V     V_3+5 0.197550 0.761040 0.250010 1.421310
V2    V     V_3+5 0.802450 0.238960 0.749990 1.417201
O15   O     O_R   0.809160 0.653640 0.162540 -0.542063
O16   O     O_R   0.190840 0.346360 0.837460 -0.543574
C5    C     C_R   0.977787 0.632433 0.132827 0.685144
C6    C     C_R   0.022110 0.367254 0.867495 0.686346
O17   O     O_R   0.809090 0.653640 0.337440 -0.529961
O18   O     O_R   0.190910 0.346360 0.662560 -0.529817
C7    C     C_R   0.977808 0.635058 0.369268 0.710009
C8    C     C_R   0.022143 0.365234 0.630950 0.709811
V3    V     V_3+5 0.697540 0.738950 0.250000 1.428651
V4    V     V_3+5 0.302460 0.261050 0.750000 1.420390
O19   O     O_3   0.972580 0.809550 0.250010 -0.380110
O20   O     O_3   0.027420 0.190450 0.749990 -0.378658
C9    C     C_3   0.161040 0.549318 0.501159 0.101818
C10   C     C_3   0.838828 0.451263 0.499329 0.099473
C11   C     C_3   0.022220 0.539023 0.577383 -0.178551
C12   C     C_3   0.977636 0.461536 0.423119 -0.177853
H1    H     H_    0.040744 0.570519 0.641571 0.128826
H2    H     H_    0.958987 0.430018 0.358953 0.132782
C13   C     C_3   0.009898 0.434453 0.559539 -0.101279
C14   C     C_3   0.989979 0.566104 0.440921 -0.101149
C15   C     C_3   0.150378 0.444513 0.483837 -0.193743
C16   C     C_3   0.849487 0.556068 0.516644 -0.194369
H3    H     H_    0.265668 0.396914 0.464910 0.166090
H4    H     H_    0.734217 0.603660 0.535625 0.165258
C17   C     C_3   0.821607 0.477641 0.973523 -0.137872
C18   C     C_3   0.177840 0.521427 0.027741 -0.146111
C19   C     C_3   0.896871 0.465727 0.066091 -0.196173
C20   C     C_3   0.102382 0.534040 0.934724 -0.192284
H5    H     H_    0.815639 0.438905 0.121635 0.120600
H6    H     H_    0.186411 0.562486 0.880499 0.116822
H7    H     H_    0.675291 0.460570 0.950509 0.108898
H8    H     H_    0.324997 0.538782 0.050196 0.124045
C21   C     C_3   0.988441 0.562598 0.062088 -0.059588
C22   C     C_3   0.010814 0.436721 0.938665 -0.050741
C23   C     C_3   0.913674 0.574743 0.970394 0.125192
C24   C     C_3   0.084672 0.424337 0.030495 0.133748
C25   C     C_3   0.673273 0.960032 0.489325 -0.150738
C26   C     C_3   0.327811 0.040696 0.509899 -0.150978
C27   C     C_3   0.630113 0.064054 0.479427 0.132424
C28   C     C_3   0.371098 0.936710 0.519788 0.132104
H9    H     H_    0.815128 0.927190 0.479751 0.114691
H10   H     H_    0.185915 0.073493 0.519452 0.114607
C29   C     C_3   0.511136 0.062308 0.562079 -0.066961
C30   C     C_3   0.489844 0.938432 0.437197 -0.066842
C31   C     C_3   0.553078 0.958271 0.572875 -0.179426
C32   C     C_3   0.448035 0.042459 0.426349 -0.178838
H11   H     H_    0.594533 0.923836 0.633459 0.114338
H12   H     H_    0.406484 0.076790 0.365737 0.114241
C33   C     C_3   0.676886 0.968231 0.017192 -0.116181
C34   C     C_3   0.323170 0.031245 0.982382 -0.116065
C35   C     C_3   0.574273 0.960340 0.929672 -0.135594
C36   C     C_3   0.425885 0.039339 0.069952 -0.138251
H13   H     H_    0.636596 0.930529 0.870811 0.094445
H14   H     H_    0.363948 0.071245 0.128192 0.097897
H15   H     H_    0.823098 0.941941 0.031598 0.108220
H16   H     H_    0.177019 0.057584 0.967933 0.107760
C37   C     C_3   0.510228 0.061549 0.937639 -0.006611
C38   C     C_3   0.489853 0.938009 0.062019 -0.005700
C39   C     C_3   0.612952 0.070315 0.024372 -0.139652
C40   C     C_3   0.387343 0.929079 0.975157 -0.137835
H17   H     H_    0.709261 0.127687 0.043944 0.104268
H18   H     H_    0.294457 0.870383 0.955207 0.096161
C41   C     C_2   0.339330 0.606290 0.508386 0.687332
O21   O     O_2   0.392330 0.633362 0.578551 -0.596249
O22   O     O_R   0.441799 0.630005 0.435160 -0.635663
H19   H     H_    0.538938 0.680820 0.446379 0.273504
C42   C     C_2   0.660512 0.394320 0.492128 0.688424
O23   O     O_2   0.607488 0.367226 0.421976 -0.591131
O24   O     O_R   0.558010 0.370673 0.565357 -0.636055
H20   H     H_    0.461061 0.319771 0.554161 0.274061
C43   C     C_3   0.807899 0.659173 0.935698 -0.382537
C44   C     C_3   0.741310 0.642856 0.843346 -0.283991
C45   C     C_3   0.611156 0.720514 0.812559 -0.769849
H21   H     H_    0.568616 0.707827 0.745168 0.249639
H22   H     H_    0.479393 0.724113 0.852393 0.221977
H23   H     H_    0.688542 0.787272 0.816202 0.214823
H24   H     H_    0.868561 0.638323 0.800705 0.189745
H25   H     H_    0.659883 0.576895 0.838497 0.198600
H26   H     H_    0.681473 0.672537 0.977182 0.173825
H27   H     H_    0.904903 0.720235 0.938553 0.158697
C46   C     C_3   0.170395 0.337422 0.070530 -0.379662
C47   C     C_3   0.369826 0.314419 0.034395 -0.271213
C48   C     C_3   0.516052 0.297856 0.105389 -0.782256
H28   H     H_    0.523923 0.359007 0.148156 0.237361
H29   H     H_    0.474541 0.236442 0.143670 0.228819
H30   H     H_    0.660071 0.286186 0.077124 0.205143
H31   H     H_    0.359463 0.251359 0.994307 0.183593
H32   H     H_    0.423602 0.370816 0.992901 0.190504
H33   H     H_    0.176462 0.348492 0.140780 0.189842
H34   H     H_    0.070949 0.278453 0.059017 0.137547
C49   C     C_3   0.778319 0.138030 0.457213 -0.375522
C50   C     C_3   0.885324 0.115064 0.374456 -0.300896
C51   C     C_3   0.024156 0.192581 0.350339 -0.763727
H35   H     H_    0.943720 0.257309 0.337668 0.242768
H36   H     H_    0.129240 0.204967 0.402604 0.224177
H37   H     H_    0.103846 0.173144 0.291643 0.209693
H38   H     H_    0.967727 0.049959 0.382679 0.192153
H39   H     H_    0.780698 0.105130 0.321508 0.195311
H40   H     H_    0.701885 0.204395 0.450073 0.204879
H41   H     H_    0.882099 0.144754 0.510717 0.163871
C52   C     C_3   0.223376 0.862559 0.541664 -0.374885
C53   C     C_3   0.116369 0.885419 0.624276 -0.303048
C54   C     C_3   0.977204 0.808056 0.647898 -0.767453
H42   H     H_    0.873025 0.795416 0.595329 0.224250
H43   H     H_    0.057118 0.743385 0.661442 0.243353
H44   H     H_    0.896857 0.828374 0.705923 0.213515
H45   H     H_    0.220766 0.895028 0.677372 0.196382
H46   H     H_    0.034292 0.950639 0.616143 0.192808
H47   H     H_    0.119682 0.855903 0.488116 0.164782
H48   H     H_    0.300070 0.796253 0.548771 0.203601

loop_
_geom_bond_atom_site_label_1
_geom_bond_atom_site_label_2
_ccdc_geom_bond_type
C26   H10   S    
C20   C23   S    
C32   H12   S    
C42   O23   D    
C29   C31   S    
C45   H21   S    
O13   V3    S    
C49   C50   S    
C10   C16   S    
C52   H48   S    
O4    C2    A    
V1    O19   S    
C12   C15   S    
C44   H25   S    
C54   H42   S    
C13   C15   S    
O22   H19   S    
C20   C22   S    
O9    V1    S    
C46   C47   S    
C11   H1    S    
C24   C46   S    
C36   C39   S    
O3    C1    A    
C27   C32   S    
C50   H38   S    
C38   C40   S    
C54   H43   S    
C17   H7    S    
C46   H33   S    
C18   H8    S    
C49   H40   S    
C23   C43   S    
C17   C19   S    
C53   H45   S    
C33   C35   S    
C11   C16   S    
O7    C3    A    
C50   C51   S    
C36   C38   S    
C5    C21   S    
C9    C11   S    
O5    C7    A    
O7    V1    S    
O6    C8    A    
O8    V2    S    
C31   H11   S    
C27   C49   S    
O3    V1    S    
O14   V4    S    
C43   H27   S    
V4    O20   S    
C10   C12   S    
C19   C21   S    
C51   H37   S    
C20   H6    S    
C2    O12   A    
C34   C37   S    
C15   H3    S    
C33   C38   S    
C28   C52   S    
C16   H4    S    
C19   H5    S    
C35   C40   S    
C26   C32   S    
C44   H24   S    
O11   V3    S    
C18   C20   S    
C21   C23   S    
O17   V3    S    
C22   C24   S    
C9    C14   S    
C34   C40   S    
C10   C13   S    
C12   C14   S    
C36   H14   S    
O8    C4    A    
C25   C31   S    
C43   C44   S    
C39   H17   S    
C54   H44   S    
C1    O11   A    
C8    C13   S    
C46   H34   S    
O15   V3    S    
C49   H41   S    
C30   C32   S    
C6    C22   S    
C11   C13   S    
C41   O21   D    
C7    C14   S    
O10   V2    S    
O1    V3    S    
C37   C39   S    
C47   H31   S    
C48   H29   S    
C47   H32   S    
C9    C41   S    
C52   C53   S    
C40   H18   S    
C41   O22   S    
C28   C31   S    
O18   V4    S    
C45   H23   S    
O15   C5    A    
C34   H16   S    
O16   C6    A    
C33   C39   S    
O1    C3    A    
O12   V4    S    
C12   H2    S    
C35   C37   S    
C25   C30   S    
C35   H13   S    
C51   H35   S    
V2    O20   S    
C26   C29   S    
C3    C38   S    
O16   V4    S    
C27   C29   S    
C52   H47   S    
C14   C16   S    
C17   C22   S    
C25   H9    S    
O5    V1    S    
O17   C7    A    
O6    V2    S    
O10   C6    A    
O18   C8    A    
O2    V4    S    
C28   C30   S    
C9    C15   S    
C42   O24   S    
O24   H20   S    
V3    O19   S    
C50   H39   S    
C18   C21   S    
O9    C5    A    
C44   C45   S    
O13   V1    S    
C33   H15   S    
C48   H30   S    
O14   V2    S    
C10   C42   S    
C53   H46   S    
C47   C48   S    
O2    C4    A    
C1    C30   S    
C25   C27   S    
C2    C29   S    
O4    V2    S    
C17   C23   S    
C45   H22   S    
C18   C24   S    
C48   H28   S    
C4    C37   S    
C34   C36   S    
C43   H26   S    
C53   C54   S    
C26   C28   S    
C19   C24   S    
C51   H36   S    
