data_mof_unit_15397.cif
_audit_creation_date              2012-12-10T18:35:02-0500
_audit_creation_method            fapswitch 2.2
_symmetry_space_group_name_H-M    P1
_symmetry_Int_Tables_number       1
_space_group_crystal_system       triclinic
_cell_length_a                    15.22614
_cell_length_b                    13.904056
_cell_length_c                    10.910963
_cell_angle_alpha                 88.186718
_cell_angle_beta                  92.562734
_cell_angle_gamma                 90.266743
_cell_volume                      2306.42865388

loop_
_atom_site_label
_atom_site_type_symbol
_atom_type_description
_atom_site_fract_x
_atom_site_fract_y
_atom_site_fract_z
_atom_type_partial_charge
C1    C     C_R   0.329925 0.499405 0.505227 0.856166
C2    C     C_R   0.670048 0.500197 0.495954 0.868405
C3    C     C_R   0.233059 0.497189 0.512560 -0.216423
C4    C     C_R   0.766903 0.499291 0.493111 -0.206720
C5    C     C_R   0.187673 0.409227 0.533601 0.107057
C6    C     C_R   0.811129 0.418374 0.450347 0.095730
C7    C     C_R   0.095981 0.408464 0.534373 -0.329522
C8    C     C_R   0.903008 0.416709 0.454466 -0.331768
C9    C     C_R   0.048013 0.492180 0.505824 -0.031073
C10   C     C_R   0.951493 0.490436 0.510116 -0.036818
C11   C     C_R   0.534065 0.105611 0.602013 0.001237
C12   C     C_R   0.458744 0.110718 0.401351 -0.010383
C13   C     C_R   0.545562 0.206748 0.590007 0.329223
C14   C     C_R   0.453421 0.211824 0.409867 0.334839
C15   C     C_R   0.495737 0.054112 0.502009 0.041288
C16   C     C_R   0.427179 0.891396 0.447839 -0.432796
C17   C     C_R   0.566501 0.891112 0.557291 -0.432099
C18   C     C_R   0.433785 0.790056 0.435710 0.577508
C19   C     C_R   0.562555 0.789590 0.567423 0.570535
C20   C     C_R   0.496384 0.944415 0.502261 0.083148
C21   C     C_R   0.506156 0.502277 0.262673 0.834386
C22   C     C_R   0.495859 0.498791 0.737790 0.806258
C23   C     C_R   0.491545 0.686110 0.102636 -0.116882
C24   C     C_R   0.417048 0.655703 0.870343 -0.137528
C25   C     C_R   0.454052 0.762657 0.033497 -0.169474
C26   C     C_R   0.411869 0.746087 0.920783 -0.177756
C27   C     C_R   0.465728 0.580829 0.932317 0.042169
C28   C     C_R   0.490495 0.591567 0.057055 0.035679
C29   C     C_R   0.515120 0.507911 0.128844 -0.159058
C30   C     C_R   0.492959 0.497598 0.872645 -0.158749
C31   C     C_R   0.540862 0.424697 0.070310 0.088161
C32   C     C_R   0.531378 0.420302 0.942508 0.095357
C33   C     C_R   0.092923 0.578273 0.476989 0.404971
C34   C     C_R   0.907104 0.566082 0.562770 0.377715
C35   C     C_R   0.184096 0.583081 0.497541 0.287537
C36   C     C_R   0.816971 0.578020 0.536040 0.284696
Cu1   Cu    Cu3+1 0.500000 0.596430 0.500000 1.024516
Cu2   Cu    Cu3+1 0.500000 0.403570 0.500000 1.010775
H1    H     H_    0.368587 0.928850 0.416040 0.140732
H2    H     H_    0.624352 0.927470 0.592399 0.152966
H3    H     H_    0.525050 0.704310 0.187846 0.163731
H4    H     H_    0.383625 0.645565 0.782205 0.145682
H5    H     H_    0.455859 0.834507 0.068861 0.127535
H6    H     H_    0.378267 0.804261 0.870282 0.134839
H7    H     H_    0.062279 0.341867 0.557055 0.165368
H8    H     H_    0.936304 0.357883 0.413411 0.166295
N1    N     N_R   0.500000 0.258690 0.500000 -0.203123
N2    N     N_R   0.500000 0.741330 0.500000 -0.248671
O1    O     O_R   0.371460 0.581430 0.500010 -0.506815
O2    O     O_R   0.628540 0.581430 0.499990 -0.511334
O3    O     O_R   0.371470 0.418560 0.500010 -0.546573
O4    O     O_R   0.628530 0.418560 0.499990 -0.563767
O5    O     O_R   0.500000 0.581450 0.319650 -0.597298
O6    O     O_R   0.500000 0.581450 0.680350 -0.587883
O7    O     O_R   0.500010 0.418580 0.319650 -0.528592
O8    O     O_R   0.499990 0.418580 0.680350 -0.525083
N3    N     N_3   0.582501 0.347095 0.140931 -0.560069
H9    H     H_    0.548440 0.283096 0.124447 0.217011
H10   H     H_    0.647122 0.339990 0.114129 0.203487
N4    N     N_3   0.562104 0.337370 0.883459 -0.543052
H11   H     H_    0.629290 0.329073 0.904839 0.203910
H12   H     H_    0.528236 0.276613 0.915124 0.225747
O9    O     O_3   0.373580 0.735608 0.366575 -0.510336
C37   C     C_3   0.316460 0.789643 0.285604 0.098229
H13   H     H_    0.353609 0.841411 0.227735 0.104279
H14   H     H_    0.267356 0.828420 0.337752 0.157880
C38   C     C_3   0.265901 0.721381 0.201624 -0.745604
H15   H     H_    0.223828 0.672791 0.256305 0.259551
H16   H     H_    0.223636 0.763154 0.133799 0.182780
H17   H     H_    0.311742 0.676610 0.151937 0.253825
O10   O     O_3   0.625681 0.736985 0.635537 -0.499229
C39   C     C_3   0.635918 0.770665 0.756269 0.095127
H18   H     H_    0.571242 0.784183 0.796343 0.136871
H19   H     H_    0.676006 0.837660 0.757571 0.117762
C40   C     C_3   0.684334 0.695155 0.837127 -0.732760
H20   H     H_    0.751068 0.683631 0.803303 0.255672
H21   H     H_    0.690588 0.719629 0.933041 0.181714
H22   H     H_    0.647702 0.626000 0.836000 0.244504
O11   O     O_3   0.048976 0.660288 0.433549 -0.552599
C41   C     C_3   0.024082 0.649859 0.308209 0.064442
H23   H     H_    0.960654 0.610217 0.299715 0.137616
H24   H     H_    0.074235 0.610983 0.257139 0.120032
C42   C     C_3   0.012143 0.749024 0.246969 -0.818618
H25   H     H_    0.074818 0.790051 0.254186 0.255291
H26   H     H_    0.992440 0.741709 0.148475 0.198754
H27   H     H_    0.960427 0.789437 0.291791 0.234533
O12   O     O_3   0.951998 0.633251 0.632657 -0.554879
C43   C     C_3   0.957645 0.597917 0.755457 0.071794
H28   H     H_    0.999843 0.532594 0.764227 0.136965
H29   H     H_    0.891263 0.580203 0.789358 0.132029
C44   C     C_3   0.998485 0.674503 0.836813 -0.811829
H30   H     H_    0.958227 0.741017 0.828957 0.253481
H31   H     H_    0.001421 0.647922 0.933967 0.193517
H32   H     H_    0.066232 0.691378 0.809154 0.230260
O13   O     O_3   0.224967 0.672102 0.501964 -0.524035
C45   C     C_3   0.206342 0.713569 0.614784 0.127419
H33   H     H_    0.221858 0.662936 0.694126 0.100741
H34   H     H_    0.136012 0.734725 0.615355 0.196271
C46   C     C_3   0.261383 0.803808 0.632836 -0.811824
H35   H     H_    0.248203 0.856172 0.555442 0.241933
H36   H     H_    0.244300 0.837675 0.719402 0.188418
H37   H     H_    0.332174 0.785112 0.639136 0.243448
O14   O     O_3   0.779140 0.667623 0.546365 -0.512718
C47   C     C_3   0.813820 0.730589 0.455449 0.143594
H38   H     H_    0.812667 0.697169 0.363654 0.103117
H39   H     H_    0.882376 0.751599 0.482020 0.203550
C48   C     C_3   0.760385 0.822326 0.441957 -0.788855
H40   H     H_    0.791798 0.873367 0.376792 0.181220
H41   H     H_    0.693226 0.805883 0.404710 0.247140
H42   H     H_    0.757726 0.856518 0.532207 0.251447
N5    N     N_3   0.233993 0.320879 0.559560 -0.545714
H43   H     H_    0.212692 0.271154 0.494636 0.209494
H44   H     H_    0.216894 0.294320 0.646034 0.211855
N6    N     N_3   0.763352 0.340566 0.395326 -0.554082
H45   H     H_    0.781267 0.276880 0.443358 0.208341
H46   H     H_    0.782767 0.335168 0.305086 0.210578
N7    N     N_3   0.554892 0.059684 0.719632 -0.620608
H47   H     H_    0.513694 0.000722 0.735663 0.235515
H48   H     H_    0.620837 0.039088 0.725008 0.198870
N8    N     N_3   0.430559 0.070072 0.286670 -0.633007
H49   H     H_    0.469950 0.011797 0.266591 0.235741
H50   H     H_    0.364344 0.050582 0.288824 0.206858
N9    N     N_3   0.607859 0.255474 0.668575 -0.507187
H51   H     H_    0.662977 0.269534 0.617278 0.210840
H52   H     H_    0.630981 0.210743 0.741398 0.206248
N10   N     N_3   0.398483 0.265860 0.323189 -0.504914
H53   H     H_    0.334076 0.240371 0.329305 0.191549
H54   H     H_    0.418551 0.253505 0.234760 0.222350

loop_
_geom_bond_atom_site_label_1
_geom_bond_atom_site_label_2
_ccdc_geom_bond_type
C30   C32   A    
O12   C43   S    
C4    C36   A    
N10   H53   S    
C41   H23   S    
C24   H4    S    
C19   O10   S    
O13   C45   S    
C24   C27   A    
C25   H5    S    
C47   H39   S    
N6    H45   S    
C26   H6    S    
N9    H51   S    
C22   O6    A    
C36   O14   S    
C7    H7    S    
C28   C29   A    
C24   C26   A    
N7    H48   S    
C13   N9    S    
C18   O9    S    
N9    H52   S    
Cu2   O4    S    
C45   C46   S    
C17   C20   A    
Cu1   O1    S    
N4    H12   S    
C6    N6    S    
C2    O2    A    
C33   C35   A    
C12   N8    S    
C11   C15   A    
Cu2   O7    S    
C31   C32   A    
C45   H34   S    
C48   H40   S    
C12   C15   A    
C9    C10   S    
Cu1   O5    S    
C27   C30   A    
C9    C33   A    
C48   H41   S    
C41   C42   S    
C47   H38   S    
N8    H50   S    
C5    C7    A    
C14   N10   S    
C15   C20   S    
C38   H15   S    
C10   C34   A    
C37   C38   S    
C39   H19   S    
C44   H30   S    
C13   N1    A    
C19   N2    A    
C33   O11   S    
C6    C8    A    
Cu2   O3    S    
C5    N5    S    
C25   C26   A    
C21   C29   S    
O11   C41   S    
N4    H11   S    
C1    C3    S    
C17   H2    S    
C37   H14   S    
C2    C4    S    
C40   H20   S    
Cu1   Cu2   S    
C44   H31   S    
C40   H21   S    
C42   H25   S    
C43   C44   S    
C3    C35   A    
C16   C20   A    
C45   H33   S    
C42   H27   S    
N5    H44   S    
C16   C18   A    
C23   C28   A    
Cu1   N2    S    
C1    O3    A    
Cu2   N1    S    
C2    O4    A    
Cu1   O6    S    
C4    C6    A    
C42   H26   S    
C43   H29   S    
C48   H42   S    
C32   N4    S    
C11   N7    S    
O14   C47   S    
N8    H49   S    
C21   O7    A    
C7    C9    A    
N10   H54   S    
C22   C30   S    
N5    H43   S    
C46   H36   S    
C12   C14   A    
C39   H18   S    
C3    C5    A    
C18   N2    A    
N6    H46   S    
C14   N1    A    
C35   O13   S    
C23   H3    S    
C46   H35   S    
C22   O8    A    
C38   H17   S    
C37   H13   S    
C31   N3    S    
O10   C39   S    
C29   C31   A    
N7    H47   S    
C44   H32   S    
C21   O5    A    
Cu1   O2    S    
C11   C13   A    
C39   C40   S    
N3    H9    S    
C17   C19   A    
C41   H24   S    
C34   C36   A    
C34   O12   S    
C23   C25   A    
C40   H22   S    
C8    H8    S    
N3    H10   S    
C16   H1    S    
O9    C37   S    
C46   H37   S    
Cu2   O8    S    
C43   H28   S    
C8    C10   A    
C27   C28   A    
C38   H16   S    
C1    O1    A    
C47   C48   S    
