data_mof_unit_50388.cif
_audit_creation_date              2012-12-10T20:27:55-0500
_audit_creation_method            fapswitch 2.2
_symmetry_space_group_name_H-M    P1
_symmetry_Int_Tables_number       1
_space_group_crystal_system       triclinic
_cell_length_a                    12.867683
_cell_length_b                    10.696574
_cell_length_c                    9.867493
_cell_angle_alpha                 89.133711
_cell_angle_beta                  96.896907
_cell_angle_gamma                 90.550971
_cell_volume                      1348.13930951

loop_
_atom_site_label
_atom_site_type_symbol
_atom_type_description
_atom_site_fract_x
_atom_site_fract_y
_atom_site_fract_z
_atom_type_partial_charge
C1    C     C_R   0.503968 0.259701 0.501151 0.895568
C2    C     C_R   0.028159 0.531815 0.555681 0.155247
C3    C     C_R   0.970759 0.490772 0.432532 0.119417
C4    C     C_R   0.863771 0.477305 0.427427 -0.237773
C5    C     C_R   0.870744 0.544348 0.663017 -0.173670
C6    C     C_R   0.978182 0.558113 0.670126 -0.148483
C7    C     C_R   0.538841 0.061155 0.625558 0.139519
C8    C     C_R   0.523006 0.128286 0.502878 -0.105070
C9    C     C_R   0.530553 0.066537 0.379606 -0.206740
C10   C     C_R   0.530926 0.937226 0.378468 -0.213523
C11   C     C_R   0.524119 0.870991 0.500698 -0.104371
C12   C     C_R   0.298291 0.502450 0.473118 0.920023
C13   C     C_R   0.539172 0.933384 0.624227 0.132749
C14   C     C_3   0.481886 0.921256 0.746583 -0.456933
C15   C     C_3   0.481396 0.062576 0.748232 -0.492251
C16   C     C_R   0.414768 0.457371 0.059393 0.174793
C17   C     C_R   0.580063 0.552676 0.083488 -0.114183
C18   C     C_R   0.580123 0.552569 0.939616 -0.125561
C19   C     C_R   0.414260 0.457331 0.916409 0.192936
C20   C     C_3   0.371888 0.326464 0.911500 -0.049350
C21   C     C_3   0.370712 0.329151 0.064571 -0.511225
C22   C     C_R   0.504431 0.739969 0.499691 0.876792
C23   C     C_R   0.701831 0.500228 0.526427 0.882400
C24   C     C_R   0.813968 0.505209 0.541108 -0.067953
C25   C     C_R   0.186277 0.506637 0.454903 -0.091486
C26   C     C_R   0.022168 0.463492 0.318443 0.146168
C27   C     C_R   0.130303 0.470604 0.331169 -0.210395
C28   C     C_R   0.135284 0.542855 0.564172 -0.234933
H1    H     H_    0.818314 0.445146 0.335077 0.192039
H2    H     H_    0.531033 0.878805 0.835515 0.205206
H3    H     H_    0.401430 0.101907 0.725490 0.229133
H4    H     H_    0.531002 0.100533 0.838479 0.203252
H5    H     H_    0.645640 0.593363 0.147119 0.159054
H6    H     H_    0.645673 0.593105 0.894972 0.153533
H7    H     H_    0.430029 0.260874 0.881405 0.148938
H8    H     H_    0.291252 0.328874 0.097857 0.227550
H9    H     H_    0.426088 0.261912 0.120577 0.196108
H10   H     H_    0.832076 0.566638 0.751183 0.168073
H11   H     H_    0.022092 0.588832 0.764602 0.162105
H12   H     H_    0.170526 0.445028 0.245450 0.182949
H13   H     H_    0.179339 0.575009 0.658081 0.175478
H14   H     H_    0.527947 0.116606 0.283109 0.169132
H15   H     H_    0.527973 0.890395 0.281477 0.174771
H16   H     H_    0.402406 0.879381 0.723153 0.214636
N1    N     N_R   0.499290 0.499140 0.142710 -0.108427
N2    N     N_R   0.499290 0.499180 0.857070 -0.125118
O1    O     O_R   0.500010 0.316790 0.614690 -0.610424
O2    O     O_R   0.500000 0.316760 0.385350 -0.625647
O3    O     O_R   0.346360 0.499990 0.595720 -0.601948
O4    O     O_R   0.346350 0.499960 0.366370 -0.623219
O5    O     O_R   0.500000 0.683240 0.614650 -0.623437
O6    O     O_R   0.499990 0.683210 0.385310 -0.622088
O7    O     O_R   0.653650 0.500040 0.633630 -0.625183
O8    O     O_R   0.653640 0.500010 0.404280 -0.628982
Zn1   Zn    Zn3+2 0.500010 0.500020 0.653130 0.961870
Zn2   Zn    Zn3+2 0.499990 0.499980 0.346870 0.953836
I1    I     I_    0.218180 0.306547 0.804420 -0.368211
I2    I     I_    0.945098 0.408159 0.125192 -0.406691

loop_
_geom_bond_atom_site_label_1
_geom_bond_atom_site_label_2
_ccdc_geom_bond_type
C16   N1    A    
N2    Zn1   S    
C4    H1    S    
C12   O4    A    
C23   C24   S    
C1    O2    A    
C15   H3    S    
C16   C21   S    
C8    C9    A    
C25   C27   A    
C1    C8    S    
C11   C13   A    
C9    C10   A    
C27   H12   S    
C11   C22   S    
C19   C20   S    
C14   C15   S    
C12   C25   S    
C7    C15   S    
C2    C3    A    
C26   C27   A    
C19   N2    A    
C7    C8    A    
C21   H8    S    
O3    Zn1   S    
C13   C14   S    
C25   C28   A    
C18   H6    S    
C9    H14   S    
C2    C6    A    
C5    C24   A    
C17   H5    S    
C14   H2    S    
C16   C19   A    
C18   N2    A    
C23   O7    A    
C14   H16   S    
C17   N1    A    
C17   C18   A    
O5    Zn1   S    
O7    Zn1   S    
C5    C6    A    
C4    C24   A    
O8    Zn2   S    
C12   O3    A    
C10   C11   A    
C3    C4    A    
C28   H13   S    
C7    C13   A    
C21   H9    S    
C20   C21   S    
C23   O8    A    
C22   O6    A    
O2    Zn2   S    
O1    Zn1   S    
C6    H11   S    
C1    O1    A    
C2    C28   A    
C20   I1    S    
C5    H10   S    
C20   H7    S    
C26   I2    S    
C3    C26   A    
O4    Zn2   S    
O6    Zn2   S    
N1    Zn2   S    
C10   H15   S    
C22   O5    A    
C15   H4    S    
