data_mof_unit_65984.cif
_audit_creation_date              2012-12-10T17:20:40-0500
_audit_creation_method            fapswitch 2.2
_symmetry_space_group_name_H-M    P1
_symmetry_Int_Tables_number       1
_space_group_crystal_system       triclinic
_cell_length_a                    10.247854
_cell_length_b                    10.643408
_cell_length_c                    13.589634
_cell_angle_alpha                 92.821098
_cell_angle_beta                  75.524707
_cell_angle_gamma                 96.079119
_cell_volume                      1426.72755831

loop_
_atom_site_label
_atom_site_type_symbol
_atom_type_description
_atom_site_fract_x
_atom_site_fract_y
_atom_site_fract_z
_atom_type_partial_charge
Br1   Br    Br    0.076974 0.668193 0.641704 -0.321127
Br2   Br    Br    0.849480 0.286770 0.512343 -0.289748
Br3   Br    Br    0.240122 0.050883 0.507565 -0.289780
Br4   Br    Br    0.753253 0.951626 0.428072 -0.287087
Br5   Br    Br    0.156446 0.371188 0.378788 -0.329893
Br6   Br    Br    0.947304 0.702878 0.433812 -0.303366
C1    C     C_R   0.556423 0.733919 0.496543 0.842648
C2    C     C_2   0.081725 0.496181 0.478829 0.330879
C3    C     C_1   0.456119 0.536112 0.880836 0.063849
C4    C     C_1   0.558290 0.519560 0.118588 0.072559
C5    C     C_2   0.585476 0.869867 0.506159 0.146928
C6    C     C_2   0.407151 0.132763 0.530366 0.128262
C7    C     C_2   0.485944 0.934829 0.561737 -0.181969
C8    C     C_2   0.497210 0.070821 0.560400 -0.183655
C9    C     C_2   0.323889 0.580974 0.056734 0.984804
C10   C     C_2   0.702743 0.518551 0.942122 0.978346
C11   C     C_R   0.442309 0.266527 0.510361 0.849587
C12   C     C_R   0.477461 0.504231 0.687901 0.852033
C13   C     C_R   0.522860 0.497086 0.312114 0.903351
C14   C     C_1   0.542675 0.507032 0.207094 -0.037262
C15   C     C_1   0.464207 0.519625 0.792659 -0.047357
C16   C     C_2   0.568687 0.535493 0.013965 -0.131385
C17   C     C_2   0.455138 0.554086 0.985028 -0.132589
C18   C     C_2   0.946123 0.532193 0.471007 0.301601
H1    H     H_    0.589970 0.119883 0.573523 0.223639
H2    H     H_    0.389411 0.887259 0.601760 0.214586
H3    H     H_    0.225553 0.650090 0.193161 0.377698
H4    H     H_    0.829774 0.549784 0.804097 0.380741
N1    N     N_2   0.847200 0.448220 0.460120 -0.008328
N2    N     N_2   0.152800 0.551780 0.539880 -0.014071
O1    O     O_R   0.430150 0.692610 0.508030 -0.600353
O2    O     O_R   0.320782 0.636976 0.152520 -0.773348
O3    O     O_2   0.785760 0.463263 0.969719 -0.557745
O4    O     O_R   0.736446 0.568824 0.844822 -0.771179
O5    O     O_R   0.569850 0.307390 0.491970 -0.590022
O6    O     O_R   0.653100 0.659360 0.482430 -0.557157
O7    O     O_R   0.346900 0.340640 0.517570 -0.557840
O8    O     O_R   0.372470 0.518990 0.654990 -0.585911
O9    O     O_R   0.627530 0.481010 0.345010 -0.585633
O10   O     O_R   0.595430 0.485740 0.629390 -0.581766
O11   O     O_R   0.404570 0.514260 0.370610 -0.568362
O12   O     O_2   0.218079 0.557259 0.030234 -0.556531
Zn1   Zn    Zn3+2 0.351130 0.522200 0.517090 1.094883
Zn2   Zn    Zn3+2 0.648870 0.477800 0.482910 1.097072

loop_
_geom_bond_atom_site_label_1
_geom_bond_atom_site_label_2
_ccdc_geom_bond_type
C6    C11   S    
O7    Zn1   S    
Br5   C2    S    
O9    Zn2   S    
C10   O3    D    
C12   C15   S    
C5    C7    D    
C1    O6    A    
C13   C14   S    
C2    N2    D    
C9    C17   S    
C12   O8    A    
Br6   C18   S    
O8    Zn1   S    
N1    Zn2   S    
C11   O7    A    
C7    C8    S    
C4    C16   S    
Br4   C5    S    
C1    C5    S    
O5    Zn2   S    
O11   Zn1   S    
C3    C15   T    
O1    Zn1   S    
Br2   N1    S    
C13   O9    A    
Br1   N2    S    
C2    C18   S    
C6    C8    D    
C8    H1    S    
C7    H2    S    
N2    Zn1   S    
O6    Zn2   S    
C1    O1    A    
H4    O4    S    
O10   Zn2   S    
C12   O10   A    
C18   N1    D    
C3    C17   S    
C10   C16   S    
Br3   C6    S    
C11   O5    A    
C10   O4    S    
H3    O2    S    
C16   C17   D    
C13   O11   A    
C9    O12   D    
C4    C14   T    
C9    O2    S    
