data_mof_unit_65608.cif
_audit_creation_date              2012-10-26T17:59:05-0400
_audit_creation_method            fapswitch 2.2
_symmetry_space_group_name_H-M    P1
_symmetry_Int_Tables_number       1
_space_group_crystal_system       triclinic
_cell_length_a                    37.343913
_cell_length_b                    30.379279
_cell_length_c                    21.733217
_cell_angle_alpha                 90.000037
_cell_angle_beta                  54.436005
_cell_angle_gamma                 90.0
_cell_volume                      20056.7668407

loop_
_atom_site_label
_atom_site_type_symbol
_atom_type_description
_atom_site_fract_x
_atom_site_fract_y
_atom_site_fract_z
_atom_type_partial_charge
C1    C     C_R   0.085119 0.499960 0.415004 0.561419
C2    C     C_R   0.972846 0.526125 0.246142 -0.009509
C3    C     C_R   0.491760 0.343138 0.953661 -0.133828
C4    C     C_R   0.008238 0.843138 0.046341 -0.133832
C5    C     C_R   0.991762 0.843138 0.953658 -0.133827
C6    C     C_R   0.500000 0.585064 0.000000 0.549865
C7    C     C_R   0.000000 0.085064 0.000000 0.549865
C8    C     C_R   0.037575 0.297306 0.943652 -0.121778
C9    C     C_R   0.962425 0.297306 0.056348 -0.121778
C10   C     C_R   0.537575 0.797306 0.943653 -0.121777
C11   C     C_R   0.462425 0.797306 0.056347 -0.121778
C12   C     C_R   0.037707 0.343180 0.943981 -0.130055
C13   C     C_R   0.527144 0.026135 0.753869 -0.009513
C14   C     C_R   0.962294 0.343180 0.056019 -0.130055
C15   C     C_R   0.537707 0.843180 0.943982 -0.130056
C16   C     C_R   0.462293 0.843180 0.056018 -0.130055
C17   C     C_R   0.000000 0.366462 0.000000 0.016945
C18   C     C_R   0.500000 0.866462 1.000000 0.016945
C19   C     C_R   0.507774 0.297126 0.047250 0.219785
C20   C     C_R   0.492227 0.297126 0.952749 0.219782
C21   C     C_R   0.007771 0.797126 0.047253 0.219786
C22   C     C_R   0.992230 0.797126 0.952746 0.219782
C23   C     C_R   0.000000 0.274121 0.000000 0.030423
C24   C     C_R   0.472843 0.026121 0.246145 -0.009508
C25   C     C_R   0.500000 0.774121 0.000000 0.030423
C26   C     C_R   0.486457 0.702569 0.066007 -0.121785
C27   C     C_R   0.513543 0.702569 0.933993 -0.121786
C28   C     C_R   0.986457 0.202569 0.066007 -0.121786
C29   C     C_R   0.013543 0.202569 0.933993 -0.121786
C30   C     C_R   0.486785 0.656696 0.065864 -0.129724
C31   C     C_R   0.513215 0.656696 0.934136 -0.129724
C32   C     C_R   0.986786 0.156696 0.065864 -0.129724
C33   C     C_R   0.013214 0.156696 0.934136 -0.129724
C34   C     C_R   0.500000 0.633410 0.000000 0.017532
C35   C     C_3   0.062015 0.560503 0.723749 -0.265106
C36   C     C_R   0.000000 0.133410 0.000000 0.017532
C37   C     C_R   0.500000 0.273989 0.999999 0.025982
C38   C     C_R   0.000001 0.773989 0.999999 0.025982
C39   C     C_R   0.961315 0.702615 0.024982 -0.097650
C40   C     C_R   0.038686 0.702615 0.975018 -0.097653
C41   C     C_R   0.461314 0.202615 0.024986 -0.097651
C42   C     C_R   0.538687 0.202615 0.975013 -0.097653
C43   C     C_R   0.026113 0.527050 0.692783 0.053395
C44   C     C_R   0.973887 0.527050 0.307217 0.053395
C45   C     C_R   0.526103 0.027059 0.692793 0.053398
C46   C     C_3   0.937985 0.560502 0.276251 -0.265106
C47   C     C_R   0.473883 0.027046 0.307220 0.053393
C48   C     C_R   0.998958 0.499664 0.685938 0.016701
C49   C     C_R   0.001042 0.499664 0.314062 0.016702
C50   C     C_R   0.498958 0.999664 0.685939 0.016695
C51   C     C_R   0.501042 0.999664 0.314062 0.016704
C52   C     C_R   0.970881 0.470973 0.746662 -0.164158
C53   C     C_R   0.029119 0.470973 0.253337 -0.164159
C54   C     C_R   0.470891 0.970964 0.746653 -0.164157
C55   C     C_R   0.529122 0.970977 0.253335 -0.164159
C56   C     C_R   0.970634 0.471286 0.811796 -0.155541
C57   C     C_3   0.561994 0.060524 0.723771 -0.265117
C58   C     C_R   0.029366 0.471286 0.188203 -0.155541
C59   C     C_R   0.470644 0.971277 0.811787 -0.155541
C60   C     C_R   0.529369 0.971290 0.188200 -0.155541
C61   C     C_3   0.477065 0.269720 0.164951 -0.006100
C62   C     C_3   0.485341 0.240451 0.212247 -0.367660
C63   C     C_3   0.522937 0.269715 0.835051 -0.006098
C64   C     C_3   0.514660 0.240446 0.787756 -0.367661
C65   C     C_3   0.977059 0.769721 0.164955 -0.006099
C66   C     C_3   0.985333 0.740450 0.212253 -0.367661
C67   C     C_3   0.022945 0.769714 0.835047 -0.006099
C68   C     C_3   0.437978 0.060495 0.276258 -0.265104
C69   C     C_3   0.014671 0.740445 0.787748 -0.367659
C70   C     C_3   0.230550 0.397039 0.247629 -0.010129
C71   C     C_3   0.258722 0.357275 0.235428 -0.365856
C72   C     C_3   0.769451 0.397039 0.752369 -0.010129
C73   C     C_3   0.741278 0.357274 0.764571 -0.365856
C74   C     C_3   0.730550 0.897039 0.247628 -0.010130
C75   C     C_3   0.758723 0.857275 0.235426 -0.365855
C76   C     C_3   0.269450 0.897039 0.752374 -0.010129
C77   C     C_3   0.241278 0.857275 0.764578 -0.365855
C78   C     C_3   0.061056 0.561371 0.653513 -0.036183
C79   C     C_3   0.938944 0.561370 0.346487 -0.036184
C80   C     C_3   0.561035 0.061391 0.653535 -0.036179
C81   C     C_R   0.914881 0.499960 0.584996 0.561420
C82   C     C_3   0.438936 0.061363 0.346494 -0.036186
C83   C     C_R   0.202701 0.461011 0.312387 0.264594
C84   C     C_R   0.797299 0.461011 0.687613 0.264594
C85   C     C_R   0.702701 0.961011 0.312386 0.264594
C86   C     C_R   0.297299 0.961011 0.687615 0.264594
C87   C     C_R   0.156670 0.461408 0.358763 -0.110029
C88   C     C_R   0.843329 0.461408 0.641237 -0.110030
C89   C     C_R   0.656670 0.961408 0.358762 -0.110033
C90   C     C_R   0.343330 0.961408 0.641239 -0.110028
C91   C     C_R   0.133495 0.499878 0.366710 -0.020154
C92   C     C_R   0.585119 0.999960 0.415004 0.561415
C93   C     C_R   0.866504 0.499878 0.633290 -0.020154
C94   C     C_R   0.633496 0.999878 0.366709 -0.020159
C95   C     C_R   0.366504 0.999878 0.633290 -0.020152
C96   C     C_R   0.156874 0.538193 0.328081 -0.144254
C97   C     C_R   0.843126 0.538193 0.671919 -0.144253
C98   C     C_R   0.656874 0.038193 0.328080 -0.144252
C99   C     C_R   0.343126 0.038194 0.671918 -0.144253
C100  C     C_R   0.202723 0.538039 0.282013 -0.172733
C101  C     C_R   0.797277 0.538039 0.717987 -0.172733
C102  C     C_R   0.702723 0.038039 0.282013 -0.172732
C103  C     C_R   0.414881 0.999960 0.584996 0.561422
C104  C     C_R   0.297277 0.038039 0.717986 -0.172733
C105  C     C_R   0.225873 0.499760 0.274525 0.027500
C106  C     C_R   0.774127 0.499760 0.725474 0.027501
C107  C     C_R   0.725873 0.999760 0.274525 0.027500
C108  C     C_R   0.274127 0.999761 0.725474 0.027501
C109  C     C_R   0.999828 0.499946 0.618847 0.570008
C110  C     C_R   0.000172 0.499946 0.381153 0.570009
C111  C     C_R   0.499828 0.999946 0.618847 0.570005
C112  C     C_R   0.500172 0.999946 0.381153 0.570009
C113  C     C_R   0.297199 0.511539 0.149720 -0.139894
C114  C     C_R   0.999595 0.499150 0.815458 0.014361
C115  C     C_R   0.702801 0.511540 0.850280 -0.139894
C116  C     C_R   0.797199 0.011540 0.149720 -0.139894
C117  C     C_R   0.202801 0.011541 0.850280 -0.139894
C118  C     C_R   0.343080 0.511156 0.103473 -0.131810
C119  C     C_R   0.656920 0.511156 0.896527 -0.131809
C120  C     C_R   0.843080 0.011156 0.103473 -0.131809
C121  C     C_R   0.156920 0.011157 0.896526 -0.131810
C122  C     C_R   0.366501 0.500162 0.133629 0.014592
C123  C     C_R   0.633499 0.500162 0.866371 0.014592
C124  C     C_R   0.866501 0.000162 0.133628 0.014592
C125  C     C_R   0.000404 0.499150 0.184542 0.014361
C126  C     C_R   0.133499 0.000162 0.866371 0.014592
C127  C     C_R   0.343297 0.489399 0.210663 -0.138638
C128  C     C_R   0.656703 0.489399 0.789337 -0.138638
C129  C     C_R   0.843297 0.989399 0.210663 -0.138638
C130  C     C_R   0.156703 0.989398 0.789337 -0.138638
C131  C     C_R   0.297436 0.489280 0.256609 -0.080224
C132  C     C_R   0.702564 0.489279 0.743391 -0.080224
C133  C     C_R   0.797436 0.989279 0.256609 -0.080224
C134  C     C_R   0.202564 0.989279 0.743391 -0.080224
C135  C     C_R   0.274205 0.500342 0.226338 0.047889
C136  C     C_R   0.499596 0.999150 0.815458 0.014368
C137  C     C_R   0.725795 0.500343 0.773662 0.047890
C138  C     C_R   0.774205 0.000342 0.226338 0.047888
C139  C     C_R   0.225795 0.000343 0.773662 0.047889
C140  C     C_R   0.000000 0.633431 0.000000 0.009001
C141  C     C_R   0.500000 0.133431 0.000000 0.009000
C142  C     C_R   0.000000 0.725665 1.000000 0.076997
C143  C     C_R   0.500000 0.225665 1.000000 0.076998
C144  C     C_R   0.500000 0.725754 0.000000 0.030456
C145  C     C_R   0.000000 0.225754 0.000000 0.030456
C146  C     C_R   0.000000 0.414804 0.000000 0.547197
C147  C     C_R   0.500404 0.999150 0.184542 0.014358
C148  C     C_R   0.500000 0.914804 1.000000 0.547196
C149  C     C_R   0.961223 0.656750 0.025389 -0.141439
C150  C     C_R   0.038777 0.656750 0.974611 -0.141440
C151  C     C_R   0.461222 0.156750 0.025394 -0.141440
C152  C     C_R   0.538778 0.156750 0.974606 -0.141439
C153  C     C_R   0.999934 0.499916 0.881373 0.557837
C154  C     C_R   0.000066 0.499916 0.118627 0.557837
C155  C     C_R   0.499934 0.999916 0.881373 0.557837
C156  C     C_R   0.500066 0.999916 0.118627 0.557837
C157  C     C_R   0.000000 0.585044 0.000000 0.549290
C158  C     C_R   0.027154 0.526125 0.753858 -0.009509
C159  C     C_R   0.500000 0.085044 0.000000 0.549289
C160  C     C_R   0.500000 0.366426 1.000000 -0.075727
C161  C     C_R   0.000000 0.866426 1.000000 -0.075728
C162  C     C_R   0.500000 0.414866 1.000000 0.558101
C163  C     C_R   0.000000 0.914866 1.000000 0.558101
C164  C     C_R   0.414883 0.500030 0.085120 0.551381
C165  C     C_R   0.585117 0.500030 0.914880 0.551380
C166  C     C_R   0.914883 0.000030 0.085120 0.551381
C167  C     C_R   0.085117 0.000030 0.914880 0.551380
C168  C     C_R   0.508241 0.343138 0.046338 -0.133831
Cu1   Cu    Cu3+1 0.000000 0.544020 0.500000 0.937449
Cu2   Cu    Cu3+1 0.500020 0.499990 0.938180 0.915932
Cu3   Cu    Cu3+1 0.999980 0.999990 0.061820 0.915931
Cu4   Cu    Cu3+1 0.000020 0.999990 0.938180 0.915932
Cu5   Cu    Cu3+1 0.500000 0.044020 0.500000 0.937452
Cu6   Cu    Cu3+1 0.000000 0.455930 0.500000 0.924806
Cu7   Cu    Cu3+1 0.500000 0.955930 0.500000 0.924803
Cu8   Cu    Cu3+1 0.955930 0.499910 0.044070 0.916137
Cu9   Cu    Cu3+1 0.044070 0.499910 0.955930 0.916136
Cu10  Cu    Cu3+1 0.455930 0.999910 0.044070 0.916137
Cu11  Cu    Cu3+1 0.544070 0.999910 0.955930 0.916139
Cu12  Cu    Cu3+1 0.499980 0.499990 0.061820 0.915931
H1    H     H_    0.948896 0.448989 0.744231 0.125205
H2    H     H_    0.720416 0.519997 0.874374 0.105092
H3    H     H_    0.873783 0.567569 0.432657 0.228964
H4    H     H_    0.611025 0.015234 0.596189 0.241237
H5    H     H_    0.626194 0.067610 0.567370 0.228960
H6    H     H_    0.388966 0.015184 0.403821 0.241238
H7    H     H_    0.373775 0.067554 0.432665 0.228965
H8    H     H_    0.247607 0.415735 0.193402 0.132992
H9    H     H_    0.198140 0.385135 0.262750 0.124203
H10   H     H_    0.242429 0.337453 0.288116 0.158367
H11   H     H_    0.263303 0.336424 0.189374 0.094433
H12   H     H_    0.291491 0.368238 0.219417 0.162705
H13   H     H_    0.779584 0.019997 0.125626 0.105091
H14   H     H_    0.752395 0.415734 0.806597 0.132991
H15   H     H_    0.801862 0.385134 0.737246 0.124203
H16   H     H_    0.757571 0.337453 0.711882 0.158368
H17   H     H_    0.736699 0.336423 0.810624 0.094433
H18   H     H_    0.708509 0.368238 0.780584 0.162704
H19   H     H_    0.747607 0.915735 0.193401 0.132992
H20   H     H_    0.698140 0.885136 0.262748 0.124204
H21   H     H_    0.742429 0.837453 0.288114 0.158367
H22   H     H_    0.763303 0.836424 0.189372 0.094432
H23   H     H_    0.791492 0.868239 0.219416 0.162705
H24   H     H_    0.220416 0.019999 0.874373 0.105092
H25   H     H_    0.252394 0.915736 0.806601 0.132992
H26   H     H_    0.301861 0.885136 0.737254 0.124203
H27   H     H_    0.257571 0.837452 0.711890 0.158367
H28   H     H_    0.236698 0.836425 0.810632 0.094432
H29   H     H_    0.208509 0.868238 0.780589 0.162704
H30   H     H_    0.360185 0.519758 0.044346 0.129468
H31   H     H_    0.639815 0.519758 0.955654 0.129468
H32   H     H_    0.860185 0.019758 0.044346 0.129468
H33   H     H_    0.139815 0.019760 0.955653 0.129468
H34   H     H_    0.360556 0.480697 0.235285 0.126131
H35   H     H_    0.639444 0.480697 0.764715 0.126131
H36   H     H_    0.860556 0.980697 0.235284 0.126131
H37   H     H_    0.051104 0.448989 0.255768 0.125205
H38   H     H_    0.139444 0.980695 0.764716 0.126130
H39   H     H_    0.280025 0.480789 0.315859 0.139736
H40   H     H_    0.719975 0.480789 0.684141 0.139736
H41   H     H_    0.780025 0.980788 0.315859 0.139737
H42   H     H_    0.219975 0.980787 0.684141 0.139735
H43   H     H_    0.930923 0.639584 0.045024 0.128464
H44   H     H_    0.069077 0.639584 0.954977 0.128465
H45   H     H_    0.430922 0.139585 0.045032 0.128465
H46   H     H_    0.569078 0.139584 0.954968 0.128465
H47   H     H_    0.515065 0.360479 0.082010 0.149849
H48   H     H_    0.448914 0.948971 0.744215 0.125215
H49   H     H_    0.484935 0.360479 0.917989 0.149852
H50   H     H_    0.015061 0.860479 0.082016 0.149849
H51   H     H_    0.984940 0.860479 0.917983 0.149854
H52   H     H_    0.066954 0.279878 0.899987 0.108330
H53   H     H_    0.933046 0.279878 0.100013 0.108331
H54   H     H_    0.566954 0.779878 0.899988 0.108331
H55   H     H_    0.433046 0.779878 0.100012 0.108330
H56   H     H_    0.067137 0.360406 0.900031 0.127361
H57   H     H_    0.932863 0.360406 0.099969 0.127361
H58   H     H_    0.567137 0.860406 0.900032 0.127361
H59   H     H_    0.551109 0.948995 0.255763 0.125202
H60   H     H_    0.432863 0.860406 0.099968 0.127361
H61   H     H_    0.948512 0.449472 0.858364 0.128387
H62   H     H_    0.051488 0.449472 0.141636 0.128387
H63   H     H_    0.448530 0.949455 0.858347 0.128379
H64   H     H_    0.551494 0.949478 0.141631 0.128390
H65   H     H_    0.931202 0.720191 0.044619 0.126037
H66   H     H_    0.068799 0.720190 0.955381 0.126037
H67   H     H_    0.431200 0.220191 0.044627 0.126037
H68   H     H_    0.568800 0.220191 0.955372 0.126036
H69   H     H_    0.476147 0.719998 0.117338 0.108321
H70   H     H_    0.220229 0.567954 0.252777 0.118912
H71   H     H_    0.523853 0.719998 0.882661 0.108321
H72   H     H_    0.976148 0.219998 0.117338 0.108321
H73   H     H_    0.023852 0.219998 0.882662 0.108321
H74   H     H_    0.476305 0.639472 0.117438 0.126812
H75   H     H_    0.523695 0.639472 0.882562 0.126812
H76   H     H_    0.976306 0.139472 0.117437 0.126812
H77   H     H_    0.023694 0.139472 0.882563 0.126812
H78   H     H_    0.049449 0.591292 0.757635 0.116323
H79   H     H_    0.950550 0.591292 0.242365 0.116324
H80   H     H_    0.549419 0.091309 0.757668 0.116322
H81   H     H_    0.779771 0.567954 0.747223 0.118913
H82   H     H_    0.450539 0.091286 0.242376 0.116325
H83   H     H_    0.092946 0.547448 0.713201 0.144412
H84   H     H_    0.907053 0.547447 0.286799 0.144412
H85   H     H_    0.592929 0.047479 0.713220 0.144412
H86   H     H_    0.407048 0.047436 0.286805 0.144413
H87   H     H_    0.049264 0.592768 0.644802 0.152230
H88   H     H_    0.950735 0.592768 0.355198 0.152230
H89   H     H_    0.549234 0.092785 0.644833 0.152231
H90   H     H_    0.450724 0.092762 0.355210 0.152230
H91   H     H_    0.139225 0.431601 0.388605 0.138797
H92   H     H_    0.720228 0.067954 0.252777 0.118913
H93   H     H_    0.860775 0.431601 0.611395 0.138796
H94   H     H_    0.639225 0.931601 0.388604 0.138797
H95   H     H_    0.360775 0.931601 0.611398 0.138797
H96   H     H_    0.139741 0.568229 0.333083 0.138967
H97   H     H_    0.860259 0.568230 0.666917 0.138967
H98   H     H_    0.639741 0.068229 0.333083 0.138969
H99   H     H_    0.360259 0.068230 0.666914 0.138966
H100  H     H_    0.451092 0.253812 0.162234 0.126219
H101  H     H_    0.464976 0.302252 0.193558 0.127184
H102  H     H_    0.510667 0.255554 0.217147 0.159726
H103  H     H_    0.279771 0.067954 0.747220 0.118912
H104  H     H_    0.454395 0.236369 0.269767 0.089414
H105  H     H_    0.496955 0.207547 0.185334 0.160127
H106  H     H_    0.548906 0.253806 0.837773 0.126219
H107  H     H_    0.535029 0.302246 0.806439 0.127186
H108  H     H_    0.489336 0.255551 0.782850 0.159724
H109  H     H_    0.545606 0.236360 0.730238 0.089414
H110  H     H_    0.503042 0.207543 0.814673 0.160124
H111  H     H_    0.951087 0.753815 0.162236 0.126218
H112  H     H_    0.964972 0.802253 0.193563 0.127184
H113  H     H_    0.010660 0.755552 0.217154 0.159727
H114  H     H_    0.279584 0.519997 0.125626 0.105091
H115  H     H_    0.954386 0.736370 0.269773 0.089414
H116  H     H_    0.996945 0.707546 0.185341 0.160124
H117  H     H_    0.048912 0.753803 0.837775 0.126219
H118  H     H_    0.035039 0.802245 0.806435 0.127186
H119  H     H_    0.989351 0.755552 0.782834 0.159724
H120  H     H_    0.045620 0.736358 0.730233 0.089413
H121  H     H_    0.003051 0.707543 0.814665 0.160126
H122  H     H_    0.111032 0.515198 0.596180 0.241238
H123  H     H_    0.126216 0.567569 0.567343 0.228964
H124  H     H_    0.888968 0.515197 0.403820 0.241238
N1    N     N_3   0.101265 0.544516 0.584619 -0.617887
N2    N     N_3   0.898734 0.544515 0.415381 -0.617887
N3    N     N_3   0.601250 0.044549 0.584637 -0.617879
N4    N     N_3   0.398729 0.044503 0.415386 -0.617889
O1    O     O_R   0.064270 0.537170 0.435740 -0.505385
O2    O     O_R   0.564300 0.499990 0.987900 -0.511851
O3    O     O_R   0.935700 0.999990 0.012100 -0.511850
O4    O     O_R   0.064300 0.999990 0.987900 -0.511851
O5    O     O_R   0.500010 0.564260 0.052180 -0.512419
O6    O     O_R   0.499990 0.564260 0.947820 -0.512418
O7    O     O_R   0.000010 0.064260 0.052180 -0.512419
O8    O     O_R   0.999990 0.064260 0.947820 -0.512418
O9    O     O_R   0.064230 0.462780 0.435770 -0.519038
O10   O     O_R   0.935770 0.462780 0.564230 -0.519037
O11   O     O_R   0.564230 0.962780 0.435770 -0.519038
O12   O     O_R   0.935730 0.537170 0.564260 -0.505385
O13   O     O_R   0.435770 0.962780 0.564230 -0.519036
O14   O     O_R   0.000000 0.537170 0.590170 -0.505536
O15   O     O_R   0.000000 0.537170 0.409830 -0.505536
O16   O     O_R   0.500000 0.037170 0.590170 -0.505528
O17   O     O_R   0.500000 0.037170 0.409830 -0.505539
O18   O     O_R   0.999960 0.462780 0.590210 -0.512272
O19   O     O_R   0.000040 0.462780 0.409790 -0.512272
O20   O     O_R   0.499960 0.962780 0.590210 -0.512278
O21   O     O_R   0.500040 0.962780 0.409790 -0.512269
O22   O     O_R   0.962790 0.435650 0.037200 -0.514183
O23   O     O_R   0.564270 0.037170 0.435740 -0.505380
O24   O     O_R   0.037210 0.435650 0.962800 -0.514183
O25   O     O_R   0.462790 0.935650 0.037200 -0.514183
O26   O     O_R   0.537210 0.935650 0.962800 -0.514182
O27   O     O_R   0.962770 0.499920 0.947050 -0.511575
O28   O     O_R   0.037230 0.499920 0.052950 -0.511574
O29   O     O_R   0.462770 0.999920 0.947050 -0.511571
O30   O     O_R   0.537230 0.999920 0.052950 -0.511575
O31   O     O_R   0.037170 0.499970 0.872660 -0.508367
O32   O     O_R   0.962830 0.499970 0.127340 -0.508367
O33   O     O_R   0.537170 0.999970 0.872660 -0.508366
O34   O     O_R   0.435730 0.037170 0.564260 -0.505388
O35   O     O_R   0.462830 0.999970 0.127340 -0.508367
O36   O     O_R   0.962770 0.564180 0.037230 -0.514336
O37   O     O_R   0.037230 0.564180 0.962770 -0.514337
O38   O     O_R   0.462770 0.064180 0.037230 -0.514337
O39   O     O_R   0.537230 0.064180 0.962770 -0.514337
O40   O     O_R   0.499950 0.435720 0.052230 -0.511082
O41   O     O_R   0.500050 0.435720 0.947770 -0.511082
O42   O     O_R   0.999950 0.935720 0.052230 -0.511082
O43   O     O_R   0.000050 0.935720 0.947770 -0.511082
O44   O     O_3   0.516719 0.274724 0.092215 -0.558643
O45   O     O_R   0.435710 0.499990 0.116480 -0.513416
O46   O     O_3   0.483282 0.274724 0.907784 -0.558643
O47   O     O_3   0.016714 0.774724 0.092220 -0.558644
O48   O     O_3   0.983288 0.774724 0.907777 -0.558643
O49   O     O_3   0.224958 0.423094 0.306403 -0.564864
O50   O     O_3   0.775042 0.423094 0.693597 -0.564864
O51   O     O_3   0.724958 0.923094 0.306402 -0.564864
O52   O     O_3   0.275042 0.923093 0.693600 -0.564865
O53   O     O_R   0.564290 0.499990 0.883520 -0.513416
O54   O     O_R   0.935710 0.999990 0.116480 -0.513416
O55   O     O_R   0.064290 0.999990 0.883520 -0.513416
O56   O     O_R   0.435700 0.499990 0.012100 -0.511851

loop_
_geom_bond_atom_site_label_1
_geom_bond_atom_site_label_2
_ccdc_geom_bond_type
C87   C91   A    
C14   C17   A    
C155  O29   A    
C43   C158  A    
C168  H47   S    
C90   C95   A    
H123  N1    S    
Cu4   O3    S    
C28   C145  A    
Cu1   O14   S    
C41   C143  A    
C72   H14   S    
C46   C79   S    
C95   C99   A    
Cu6   O18   S    
C22   C38   A    
C29   C33   A    
Cu3   O4    S    
C8    C23   A    
C89   C94   A    
C27   H71   S    
C19   C37   A    
C91   C96   A    
Cu2   O56   S    
Cu7   O13   S    
C1    O9    A    
Cu1   Cu6   S    
C5    H51   S    
C29   H73   S    
C71   H12   S    
C164  O56   A    
C63   H107  S    
Cu2   O6    S    
Cu1   O15   S    
C130  C134  A    
C72   O50   S    
C161  C163  S    
C75   H22   S    
C76   H26   S    
C11   H55   S    
C86   C108  A    
C27   C31   A    
C28   C32   A    
C20   O46   S    
C126  C167  S    
C86   C90   A    
C132  C137  A    
C98   C102  A    
Cu10  O38   S    
C83   C105  A    
C5    C161  A    
C26   H69   S    
C66   H116  S    
C92   C94   S    
C40   C150  A    
C109  O18   A    
C129  C133  A    
C151  H45   S    
C74   H20   S    
C67   H118  S    
H3    N2    S    
C156  O30   A    
C80   N3    S    
Cu8   O22   S    
C44   C79   S    
C154  O28   A    
C84   C88   A    
C72   C73   S    
C14   H57   S    
C53   C58   A    
C165  O53   A    
C41   C151  A    
C119  C123  A    
C35   C78   S    
C167  O4    A    
C159  O38   A    
C129  H36   S    
C17   C146  S    
C13   C45   A    
C6    O5    A    
C45   C50   A    
C156  O35   A    
C49   C53   A    
C45   C80   S    
C51   C55   A    
C160  C168  A    
C71   H10   S    
C127  C131  A    
C35   C158  S    
Cu10  O25   S    
C48   C52   A    
C113  C135  A    
C163  O42   A    
C33   H77   S    
C42   C143  A    
C126  C130  A    
C4    C161  A    
C120  H32   S    
C15   C18   A    
Cu9   O28   S    
C111  O16   A    
C33   C36   A    
C68   H82   S    
Cu10  Cu11  S    
Cu11  O26   S    
C42   H68   S    
C69   H121  S    
C32   C36   A    
C77   H27   S    
C104  H103  S    
C13   C57   S    
C11   C25   A    
C7    O8    A    
C122  C164  S    
C64   H110  S    
C118  C122  A    
C122  C127  A    
C130  H38   S    
C97   H97   S    
C99   H99   S    
C141  C159  S    
C21   C38   A    
C115  C137  A    
Cu10  O29   S    
C2    C44   A    
C134  H42   S    
C69   H120  S    
Cu2   O41   S    
C83   O49   S    
C70   H8    S    
C105  C135  S    
H124  N2    S    
C57   C80   S    
C148  O25   A    
C95   C103  S    
C54   C59   A    
Cu5   Cu7   S    
C53   H37   S    
C30   C34   A    
Cu3   O42   S    
C134  C139  A    
C155  O33   A    
C136  C155  S    
C75   H23   S    
C9    C23   A    
C106  C137  S    
C19   O44   S    
C116  C120  A    
C132  H40   S    
C160  C162  S    
C88   H93   S    
C84   C106  A    
Cu3   O7    S    
C8    C12   A    
C73   H18   S    
C79   H88   S    
C31   C34   A    
C102  C107  A    
C112  O21   A    
C65   H112  S    
C26   C30   A    
C115  C119  A    
C96   H96   S    
C73   H16   S    
C25   C144  S    
Cu6   O9    S    
C93   C97   A    
C115  H2    S    
C125  C154  S    
C10   C25   A    
C82   N4    S    
C101  C106  A    
C150  H44   S    
C24   C147  A    
C108  C139  S    
C78   N1    S    
C39   C149  A    
C119  H31   S    
C85   O51   S    
C31   H75   S    
C68   C82   S    
C78   H87   S    
C109  O14   A    
C20   C37   A    
Cu1   O1    S    
Cu6   O19   S    
Cu10  O35   S    
C96   C100  A    
C50   C111  S    
C159  O39   A    
C61   C62   S    
Cu12  O40   S    
C63   C64   S    
C2    C125  A    
C112  O17   A    
C16   H60   S    
C1    C91   S    
H5    N3    S    
C154  O32   A    
C153  O31   A    
C64   H108  S    
C140  C149  A    
C141  C152  A    
C49   C110  S    
C83   C87   A    
C51   C112  S    
C163  O43   A    
C7    C36   S    
C35   H78   S    
C56   H61   S    
C3    H49   S    
C75   H21   S    
C117  C139  A    
C43   C78   S    
C50   C54   A    
C102  H92   S    
C67   O48   S    
Cu4   O8    S    
H7    N4    S    
C62   H104  S    
C101  H81   S    
C29   C145  A    
C81   O10   A    
Cu12  O5    S    
C94   C98   A    
C80   H89   S    
C35   H83   S    
C114  C158  A    
C12   C17   A    
C133  H41   S    
C30   H74   S    
C70   C71   S    
C111  O20   A    
C117  H24   S    
C68   H86   S    
C99   C104  A    
C133  C138  A    
C55   C60   A    
C67   H117  S    
C103  O34   A    
Cu8   O27   S    
Cu5   O34   S    
Cu7   O11   S    
C10   H54   S    
C60   H64   S    
Cu12  O45   S    
C52   H1    S    
C98   H98   S    
C85   C89   A    
C47   C51   A    
Cu11  O39   S    
C9    H53   S    
Cu3   O54   S    
C6    C34   S    
C74   O51   S    
C9    C14   A    
Cu8   O36   S    
C84   O50   S    
C11   C16   A    
C6    O6    A    
H122  N1    S    
C39   C142  A    
C86   O52   S    
C32   H76   S    
C27   C144  A    
C61   O44   S    
C3    C20   A    
C147  C156  S    
C54   H48   S    
C152  H46   S    
Cu12  O2    S    
C63   O46   S    
C89   H94   S    
Cu11  O33   S    
C19   C168  A    
C104  C108  A    
C76   H25   S    
Cu7   O21   S    
C46   H79   S    
C1    O1    A    
C37   C143  S    
C62   H102  S    
C166  O54   A    
C40   H66   S    
C81   O12   A    
C100  H70   S    
C118  H30   S    
C79   N2    S    
C92   O23   A    
C66   H115  S    
C165  O2    A    
C7    O7    A    
C124  C129  A    
C62   H105  S    
C22   O48   S    
C24   C68   S    
C74   H19   S    
C65   O47   S    
C69   H119  S    
C146  O24   A    
C70   H9    S    
C121  H33   S    
C44   C49   A    
Cu3   Cu4   S    
C40   C142  A    
C59   C136  A    
C148  O26   A    
Cu5   O23   S    
Cu9   O31   S    
C72   H15   S    
C28   H72   S    
Cu4   O43   S    
C2    C46   S    
C23   C145  S    
C15   H58   S    
C100  C105  A    
C131  H39   S    
C18   C148  S    
C10   C15   A    
C55   H59   S    
Cu2   O53   S    
C162  O40   A    
Cu7   O20   S    
C46   H84   S    
C59   H63   S    
C47   C82   S    
C110  O15   A    
C117  C121  A    
C63   H106  S    
C87   H91   S    
C39   H65   S    
C5    C22   A    
C73   H17   S    
C90   H95   S    
C60   C147  A    
C42   C152  A    
C43   C48   A    
C114  C153  S    
Cu1   O12   S    
C162  O41   A    
C77   H29   S    
C65   H111  S    
C157  O37   A    
C48   C109  S    
C57   H85   S    
C41   H67   S    
C167  O55   A    
C38   C142  S    
Cu6   O10   S    
C26   C144  A    
C128  C132  A    
C116  C138  A    
C70   O49   S    
C74   C75   S    
C76   C77   S    
C77   H28   S    
C157  O36   A    
C66   H113  S    
C166  O3    A    
Cu2   Cu12  S    
C64   H109  S    
C67   C69   S    
H4    N3    S    
C4    H50   S    
C76   O52   S    
C164  O45   A    
C140  C157  S    
C81   C93   S    
C131  C135  A    
C92   O11   A    
C146  O22   A    
C124  C166  S    
C116  H13   S    
Cu8   Cu9   S    
C3    C160  A    
C21   O47   S    
C13   C136  A    
Cu5   O17   S    
C140  C150  A    
C141  C151  A    
C113  H114  S    
C12   H56   S    
C88   C93   A    
C103  O13   A    
C24   C47   A    
Cu8   O32   S    
H6    N4    S    
C127  H34   S    
Cu4   O55   S    
C57   H80   S    
C107  C138  S    
C82   H90   S    
C71   H11   S    
Cu5   O16   S    
C110  O19   A    
Cu9   O24   S    
C121  C126  A    
C85   C107  A    
C4    C21   A    
C8    H52   S    
Cu11  O30   S    
C58   H62   S    
C123  C128  A    
C61   H100  S    
C128  H35   S    
C113  C118  A    
C123  C165  S    
C52   C56   A    
C58   C125  A    
C16   C18   A    
C65   C66   S    
C56   C114  A    
C149  H43   S    
C61   H101  S    
C153  O27   A    
C97   C101  A    
C120  C124  A    
Cu9   O37   S    
