data_mof_unit_27856.cif
_audit_creation_date              2012-12-10T20:26:24-0500
_audit_creation_method            fapswitch 2.2
_symmetry_space_group_name_H-M    P1
_symmetry_Int_Tables_number       1
_space_group_crystal_system       triclinic
_cell_length_a                    10.667248
_cell_length_b                    10.73607
_cell_length_c                    9.884821
_cell_angle_alpha                 89.041705
_cell_angle_beta                  92.878241
_cell_angle_gamma                 90.677253
_cell_volume                      1130.39785284

loop_
_atom_site_label
_atom_site_type_symbol
_atom_type_description
_atom_site_fract_x
_atom_site_fract_y
_atom_site_fract_z
_atom_type_partial_charge
C1    C     C_R   0.496383 0.259913 0.500566 0.882597
C2    C     C_R   0.500634 0.127486 0.501237 -0.012082
C3    C     C_R   0.556761 0.067439 0.394589 -0.222906
C4    C     C_R   0.561286 0.938553 0.393854 -0.183249
C5    C     C_R   0.511617 0.870960 0.500995 -0.056605
C6    C     C_R   0.470875 0.931657 0.613361 -0.113544
C7    C     C_3   0.353023 0.910761 0.688271 0.872467
C8    C     C_3   0.339410 0.052646 0.683060 0.232139
C9    C     C_R   0.407486 0.439134 0.068063 0.028205
C10   C     C_R   0.584014 0.570291 0.074939 0.643562
C11   C     C_R   0.584447 0.569559 0.931164 -0.204158
C12   C     C_R   0.262702 0.498245 0.495521 0.904690
C13   C     C_R   0.408230 0.438340 0.925537 0.123775
C14   C     C_3   0.384878 0.301652 0.925603 0.430361
C15   C     C_3   0.379346 0.303680 0.077999 -0.516165
C16   C     C_R   0.503257 0.739490 0.499369 0.943369
C17   C     C_R   0.738235 0.505635 0.504300 0.794720
C18   C     C_2   0.930473 0.573887 0.411396 -0.301285
C19   C     C_2   0.871357 0.530283 0.518767 0.344131
C20   C     C_2   0.066052 0.582166 0.421082 0.516303
C21   C     C_2   0.130552 0.486745 0.478320 0.287155
C22   C     C_R   0.462051 0.058557 0.612860 -0.021676
H1    H     H_    0.881609 0.595820 0.315055 0.198040
H2    H     H_    0.345886 0.094350 0.784402 0.114254
H3    H     H_    0.654281 0.623619 0.879568 0.161075
H4    H     H_    0.294651 0.276350 0.872490 0.037757
H5    H     H_    0.283752 0.284942 0.113926 0.153304
H6    H     H_    0.455623 0.250077 0.131962 0.241396
H7    H     H_    0.594124 0.119552 0.310588 0.166184
H8    H     H_    0.599584 0.892269 0.308784 0.188367
N1    N     N_R   0.499170 0.499140 0.142800 -0.133730
N2    N     N_R   0.499170 0.499180 0.857150 -0.102859
O1    O     O_R   0.500020 0.316790 0.614690 -0.560954
O2    O     O_R   0.500000 0.316760 0.385350 -0.647024
O3    O     O_R   0.319080 0.500020 0.614640 -0.626539
O4    O     O_R   0.319070 0.499980 0.385300 -0.613057
O5    O     O_R   0.500000 0.683240 0.614650 -0.614993
O6    O     O_R   0.499980 0.683210 0.385310 -0.576590
O7    O     O_R   0.680930 0.500020 0.614700 -0.617001
O8    O     O_R   0.680920 0.499980 0.385360 -0.590271
Zn1   Zn    Zn3+2 0.500010 0.500020 0.653130 1.009203
Zn2   Zn    Zn3+2 0.499990 0.499980 0.346870 1.018895
F1    F     F_    0.670055 0.640650 0.145369 -0.683055
F2    F     F_    0.489157 0.238486 0.886169 -0.676865
O9    O     O_3   0.934342 0.530936 0.646606 -0.627056
C23   C     C_3   0.912282 0.420529 0.722479 -0.171996
H9    H     H_    0.999833 0.396828 0.782188 0.159035
H10   H     H_    0.886168 0.338496 0.658912 0.154655
H11   H     H_    0.839081 0.436703 0.795976 0.182642
F3    F     F_    0.124578 0.686551 0.374332 -0.652341
O10   O     O_3   0.075314 0.370450 0.496343 -0.660821
C24   C     C_3   0.088992 0.300179 0.378501 -0.320580
H12   H     H_    0.188324 0.272141 0.370159 0.204558
H13   H     H_    0.054925 0.351259 0.284984 0.149673
H14   H     H_    0.031269 0.213999 0.385584 0.210057
O11   O     O_3   0.260465 0.847976 0.605066 -0.580973
C25   C     C_3   0.161190 0.800378 0.680776 -0.049870
H15   H     H_    0.133878 0.864235 0.761210 0.125296
H16   H     H_    0.187355 0.708467 0.726427 0.180284
H17   H     H_    0.077347 0.786612 0.611614 0.192474
O12   O     O_3   0.369047 0.857095 0.822212 -0.657531
C26   C     C_3   0.485549 0.884682 0.890659 -0.347737
H18   H     H_    0.503807 0.986369 0.897156 0.198027
H19   H     H_    0.563724 0.838104 0.842241 0.184906
H20   H     H_    0.483128 0.847477 0.995877 0.222905
O13   O     O_3   0.237714 0.092127 0.595891 -0.574510
C27   C     C_3   0.137841 0.131348 0.672917 -0.249567
H21   H     H_    0.126936 0.075700 0.767651 0.114733
H22   H     H_    0.048735 0.121632 0.611196 0.203058
H23   H     H_    0.151226 0.230850 0.698490 0.193334

loop_
_geom_bond_atom_site_label_1
_geom_bond_atom_site_label_2
_ccdc_geom_bond_type
C2    C22   A    
C8    C22   S    
N2    Zn1   S    
C19   O9    S    
C8    O13   S    
C6    C7    S    
N1    Zn2   S    
C12   O4    A    
C13   N2    A    
C15   H5    S    
C18   H1    S    
O2    Zn2   S    
C24   H14   S    
C16   O5    A    
C27   H23   S    
O1    Zn1   S    
C14   H4    S    
O8    Zn2   S    
C2    C3    A    
C15   H6    S    
C1    O1    A    
C7    C8    S    
O7    Zn1   S    
C13   C14   S    
C24   H12   S    
C12   O3    A    
C23   H11   S    
C3    H7    S    
C25   H15   S    
C26   H18   S    
C7    O11   S    
C20   F3    S    
C5    C6    A    
C1    C2    S    
C17   C19   S    
C24   H13   S    
C1    O2    A    
O13   C27   S    
C18   C20   S    
O5    Zn1   S    
O12   C26   S    
O3    Zn1   S    
C23   H10   S    
C25   H16   S    
C10   C11   A    
C9    N1    A    
C27   H21   S    
C6    C22   A    
O6    Zn2   S    
O9    C23   S    
C21   O10   S    
C20   C21   D    
C14   F2    S    
C18   C19   D    
C17   O7    A    
C25   H17   S    
C27   H22   S    
O11   C25   S    
C9    C13   A    
C23   H9    S    
C7    O12   S    
C5    C16   S    
C26   H19   S    
C26   H20   S    
C8    H2    S    
C10   F1    S    
C14   C15   S    
O4    Zn2   S    
C12   C21   S    
C11   H3    S    
C4    H8    S    
C3    C4    A    
O10   C24   S    
C9    C15   S    
C16   O6    A    
C4    C5    A    
C11   N2    A    
C17   O8    A    
C10   N1    A    
