data_mof_unit_9453.cif
_audit_creation_date              2013-03-05T15:52:55-0500
_audit_creation_method            fapswitch 2.2
_symmetry_space_group_name_H-M    P1
_symmetry_Int_Tables_number       1
_space_group_crystal_system       triclinic
_cell_length_a                    10.735663
_cell_length_b                    10.754931
_cell_length_c                    17.112378
_cell_angle_alpha                 100.079501
_cell_angle_beta                  99.617718
_cell_angle_gamma                 60.738417
_cell_volume                      1689.43202095

loop_
_atom_site_label
_atom_site_type_symbol
_atom_site_description
_atom_site_fract_x
_atom_site_fract_y
_atom_site_fract_z
_atom_type_partial_charge
O1    O     O_R   0.749810 0.499790 0.438040 -0.467409
O2    O     O_R   0.477660 0.726260 0.439290 -0.527993
C1    C     C_R   0.353912 0.778737 0.402182 0.578785
O3    O     O_R   0.260150 0.743000 0.412270 -0.423112
O4    O     O_R   0.297740 0.466550 0.394720 -0.418577
C2    C     C_R   0.369997 0.346177 0.357450 0.604978
O5    O     O_R   0.488080 0.253500 0.386430 -0.541947
O6    O     O_R   0.722670 0.303800 0.421940 -0.521075
C3    C     C_R   0.776027 0.374083 0.403053 0.606611
O7    O     O_R   0.751130 0.502220 0.613520 -0.499653
O8    O     O_R   0.478890 0.728510 0.601960 -0.487007
C4    C     C_R   0.380891 0.715239 0.631170 0.524373
O9    O     O_R   0.261470 0.745430 0.587750 -0.496163
O10   O     O_R   0.298970 0.468800 0.557390 -0.471068
C5    C     C_R   0.406331 0.375064 0.599980 0.521164
O11   O     O_R   0.489400 0.255930 0.561910 -0.503483
O12   O     O_R   0.723890 0.306050 0.584610 -0.528823
C6    C     C_R   0.772849 0.381140 0.629907 0.552652
Cr1   Cr    Cr6+3 0.608100 0.610860 0.522250 1.044155
Cr2   Cr    Cr6+3 0.288890 0.599990 0.488420 1.140770
Cr3   Cr    Cr6+3 0.603040 0.289190 0.489390 1.022355
O13   O     O_3   0.500010 0.500010 0.500020 -0.322079
C7    C     C_1   0.343257 0.335682 0.274203 -0.013441
C8    C     C_1   0.330783 0.326658 0.203504 -0.031055
C9    C     C_R   0.856027 0.326904 0.167806 -0.036442
C10   C     C_R   0.793238 0.249239 0.186065 -0.011526
C11   C     C_R   0.793044 0.237448 0.266709 -0.006093
C12   C     C_R   0.916085 0.383745 0.307714 0.173999
C13   C     C_R   0.920575 0.388949 0.228310 -0.141311
C14   C     C_R   0.737342 0.177097 0.125337 -0.089434
C15   C     C_R   0.699760 0.080199 0.143461 -0.089669
C16   C     C_R   0.699229 0.067161 0.222127 -0.092386
C17   C     C_R   0.747336 0.141590 0.282943 -0.016806
C18   C     C_R   0.839715 0.320811 0.327246 0.027793
H1    H     H_    0.724097 0.192552 0.063158 0.136724
H2    H     H_    0.982293 0.435482 0.213733 0.175001
H3    H     H_    0.668394 0.016868 0.096241 0.140284
H4    H     H_    0.661805 0.998788 0.236493 0.139260
H5    H     H_    0.759351 0.109752 0.341061 0.203275
C19   C     C_R   0.317758 0.861181 0.169090 -0.034737
C20   C     C_R   0.450889 0.820593 0.214519 0.003882
C21   C     C_R   0.455021 0.832698 0.298405 -0.015074
C22   C     C_R   0.200849 0.898886 0.287365 0.190997
C23   C     C_R   0.194243 0.902474 0.206944 -0.130528
C24   C     C_R   0.579784 0.767168 0.179096 -0.106014
C25   C     C_R   0.707251 0.741525 0.226321 -0.127528
C26   C     C_R   0.705974 0.776518 0.308559 -0.096058
C27   C     C_R   0.581412 0.821779 0.344509 -0.072309
C28   C     C_R   0.333439 0.852604 0.332933 -0.004123
H6    H     H_    0.583389 0.743803 0.115174 0.132201
H7    H     H_    0.088726 0.940937 0.174451 0.177816
H8    H     H_    0.805049 0.703594 0.198711 0.153853
H9    H     H_    0.800797 0.771090 0.344660 0.198536
H10   H     H_    0.584264 0.851749 0.408222 0.149581
H11   H     H_    0.172142 0.543720 0.681555 0.147809
C29   C     C_R   0.298438 0.275957 0.799278 -0.002709
C30   C     C_R   0.424017 0.175741 0.761907 0.039756
C31   C     C_R   0.476170 0.224594 0.711352 0.036430
C32   C     C_R   0.246459 0.444245 0.706409 -0.137801
C33   C     C_R   0.209026 0.408791 0.769830 -0.140296
C34   C     C_R   0.503226 0.030093 0.776585 -0.077730
C35   C     C_R   0.641620 0.943700 0.753998 -0.108181
C36   C     C_R   0.703618 0.001386 0.716675 -0.110630
C37   C     C_R   0.622008 0.140537 0.695622 -0.087033
C38   C     C_R   0.379082 0.352527 0.675999 -0.007928
H12   H     H_    0.459472 0.982689 0.806205 0.151151
H13   H     H_    0.110816 0.485617 0.796110 0.145628
H14   H     H_    0.701929 0.833602 0.767606 0.121579
H15   H     H_    0.813506 0.937357 0.702103 0.126167
H16   H     H_    0.673908 0.180512 0.666426 0.152960
C39   C     C_1   0.818146 0.342358 0.709026 -0.058453
C40   C     C_1   0.845688 0.313260 0.776460 -0.051009
C41   C     C_1   0.358125 0.764620 0.713437 -0.055697
C42   C     C_1   0.325672 0.811215 0.780499 -0.060114
O14   O     O_R   0.171100 0.914680 0.053100 -0.517975
O15   O     O_R   0.941680 0.184840 0.050710 -0.504930
C43   C     C_R   0.896005 0.309346 0.088827 0.538088
O16   O     O_R   0.922080 0.403420 0.072610 -0.526960
O17   O     O_R   0.196880 0.369150 0.083850 -0.488048
C44   C     C_R   0.318721 0.299987 0.120214 0.564431
O18   O     O_R   0.411730 0.181020 0.091530 -0.525880
O19   O     O_R   0.365010 0.944360 0.063320 -0.505282
C45   C     C_R   0.291772 0.895299 0.087142 0.545008
O20   O     O_R   0.159380 0.906670 0.876210 -0.497860
O21   O     O_R   0.930820 0.177420 0.886730 -0.493542
C46   C     C_R   0.887046 0.296849 0.858784 0.546134
O22   O     O_R   0.910360 0.395420 0.895720 -0.522585
O23   O     O_R   0.186010 0.361730 0.919870 -0.494713
C47   C     C_R   0.279164 0.252465 0.877198 0.545726
O24   O     O_R   0.400000 0.173010 0.914630 -0.521397
O25   O     O_R   0.354140 0.936940 0.899340 -0.535016
C48   C     C_R   0.281030 0.880753 0.857750 0.541138
Cr4   Cr    Cr6+3 0.053960 0.052250 0.967380 1.020241
Cr5   Cr    Cr6+3 0.059890 0.373160 0.992710 1.023374
Cr6   Cr    Cr6+3 0.373370 0.061690 0.991710 0.989691
O26   O     O_3   0.162410 0.162370 0.983930 -0.266898
N1    N     N_R   0.991934 0.439678 0.368078 0.073123
O27   O     O_R   0.048629 0.380834 0.434186 -0.299980
O28   O     O_R   0.019651 0.537769 0.353382 -0.355873
N2    N     N_R   0.073093 0.932466 0.321028 0.074638
O29   O     O_R   0.042091 0.012888 0.388648 -0.339158
O30   O     O_R   0.002684 0.862258 0.291539 -0.365514

loop_
_geom_bond_atom_site_label_1
_geom_bond_atom_site_label_2
_geom_bond_distance
_ccdc_geom_bond_type
C12   N1    1.439529 S    
O11   Cr3   2.060177 S    
H11   C32   1.083262 S    
C41   C42   1.204616 T    
Cr6   O26   1.967692 S    
N1    O27   1.301815 A    
C1    C28   1.468159 S    
O24   Cr6   2.065989 S    
O4    Cr2   1.936949 S    
C43   O16   1.257033 A    
C11   C17   1.421683 A    
C27   H10   1.081216 S    
C4    O9    1.288554 A    
C13   H2    1.083879 S    
O8    Cr1   1.923034 S    
C10   C11   1.408197 A    
C17   H5    1.075250 S    
C14   H1    1.080868 S    
C9    C43   1.439363 S    
C12   C13   1.379444 A    
O7    C6    1.279802 A    
C36   H15   1.082654 S    
C14   C15   1.382390 A    
O18   Cr6   2.061252 S    
C5    O11   1.283083 A    
C5    C38   1.464053 S    
O22   Cr5   2.064486 S    
C25   H8    1.082397 S    
C29   C30   1.419343 A    
C20   C21   1.413679 A    
C42   C48   1.432396 S    
O21   Cr4   1.940489 S    
C34   H12   1.068457 S    
C8    C44   1.400728 S    
C15   C16   1.378871 A    
C33   H13   1.083199 S    
O6    C3    1.254836 A    
C7    C8    1.186813 T    
C16   H4    1.071300 S    
C26   H9    1.079692 S    
C12   C18   1.398331 A    
C32   C33   1.387485 A    
C4    C41   1.431801 S    
C9    C13   1.402833 A    
C19   C45   1.458881 S    
N1    O28   1.299800 A    
O12   C6    1.260562 A    
C11   C18   1.438271 A    
C31   C37   1.418797 A    
O23   Cr5   1.936400 S    
O1    Cr1   2.042411 S    
O10   Cr2   1.945861 S    
Cr1   O13   1.989666 S    
O1    C3    1.290924 A    
C22   N2    1.431915 S    
O17   Cr5   1.947378 S    
O25   C48   1.270516 A    
C46   O22   1.248202 A    
C22   C28   1.397966 A    
C9    C10   1.400662 A    
C24   C25   1.393317 A    
O12   Cr3   1.947146 S    
C36   C37   1.392310 A    
C22   C23   1.372490 A    
C35   C36   1.385744 A    
O15   Cr4   1.924075 S    
C31   C38   1.422743 A    
C26   C27   1.391895 A    
O7    Cr1   2.060548 S    
N2    O30   1.301260 A    
O6    Cr3   1.939711 S    
C21   C27   1.412922 A    
O15   C43   1.272097 A    
Cr5   O26   1.967273 S    
O21   C46   1.284204 A    
C23   H7    1.084196 S    
C19   C20   1.405428 A    
Cr2   O13   1.968389 S    
C10   C14   1.416532 A    
Cr4   O26   1.989679 S    
C37   H16   1.071117 S    
C3    C18   1.460079 S    
C1    O3    1.284630 A    
O14   Cr4   2.060730 S    
C6    C39   1.422286 S    
C25   C26   1.392222 A    
C29   C47   1.464857 S    
O19   Cr6   1.946988 S    
O9    Cr2   2.051585 S    
O2    Cr1   1.941684 S    
C44   O18   1.253006 A    
C40   C46   1.419249 S    
O8    C4    1.313238 A    
C30   C34   1.415662 A    
C2    O5    1.254662 A    
C35   H14   1.082667 S    
C16   C17   1.386904 A    
O2    C1    1.263833 A    
C39   C40   1.199555 T    
O5    Cr3   2.067506 S    
C32   C38   1.402116 A    
O14   C45   1.259934 A    
C30   C31   1.395162 A    
O4    C2    1.256602 A    
C24   H6    1.081478 S    
O16   Cr5   2.052733 S    
C2    C7    1.401155 S    
N2    O29   1.301845 A    
O20   Cr4   2.041816 S    
C34   C35   1.391696 A    
C21   C28   1.427902 A    
O25   Cr6   1.939241 S    
O17   C44   1.261097 A    
O3    Cr2   2.064508 S    
C15   H3    1.082085 S    
C19   C23   1.409175 A    
C29   C33   1.402159 A    
O23   C47   1.307318 A    
O19   C45   1.284821 A    
C20   C24   1.411913 A    
O10   C5    1.310157 A    
O20   C48   1.278389 A    
C47   O24   1.285939 A    
Cr3   O13   1.966870 S    
