data_mof_unit_67482.cif
_audit_creation_date              2012-10-26T21:06:54-0400
_audit_creation_method            fapswitch 2.2
_symmetry_space_group_name_H-M    P1
_symmetry_Int_Tables_number       1
_space_group_crystal_system       triclinic
_cell_length_a                    10.86042
_cell_length_b                    8.736591
_cell_length_c                    7.593559
_cell_angle_alpha                 102.693837
_cell_angle_beta                  95.35612
_cell_angle_gamma                 93.92963
_cell_volume                      696.873782034

loop_
_atom_site_label
_atom_site_type_symbol
_atom_type_description
_atom_site_fract_x
_atom_site_fract_y
_atom_site_fract_z
_atom_type_partial_charge
Br1   Br    Br    0.813894 0.304358 0.105940 -0.362389
Br2   Br    Br    0.173772 0.793233 0.396384 -0.340520
Br3   Br    Br    0.879113 0.768850 0.341174 -0.249506
Br4   Br    Br    0.614301 0.738726 0.086329 -0.221351
Br5   Br    Br    0.115507 0.198557 0.643433 -0.353419
Br6   Br    Br    0.903023 0.827439 0.732042 -0.293938
Br7   Br    Br    0.119513 0.203152 0.200757 -0.286628
C1    C     C_R   0.495374 0.200741 0.454784 0.547302
C2    C     C_3   0.079328 0.417978 0.668656 0.047835
C3    C     C_3   0.935162 0.428511 0.672473 -0.193327
C4    C     C_3   0.088381 0.664389 0.539785 0.002514
C5    C     C_3   0.052689 0.399274 0.317825 0.054881
C6    C     C_3   0.123629 0.490261 0.506041 -0.058473
C7    C     C_1   0.148763 0.498306 0.847780 0.275449
C8    C     C_1   0.531772 0.052054 0.766769 0.304296
C9    C     C_1   0.905308 0.519916 0.845977 0.305851
C10   C     C_3   0.878746 0.492987 0.505863 -0.071381
C11   C     C_3   0.943839 0.667444 0.525465 0.262989
C12   C     C_3   0.915659 0.366749 0.339594 0.014446
C13   C     C_2   0.491090 0.033306 0.434567 -0.081377
C14   C     C_2   0.508785 0.966745 0.577386 -0.030546
C15   C     C_R   0.260769 0.491620 0.500401 0.596812
C16   C     C_R   0.504434 0.799152 0.546824 0.563078
C17   C     C_R   0.739539 0.494967 0.499903 0.578515
Cu1   Cu    Cu3+1 0.514070 0.517380 0.684380 1.139697
Cu2   Cu    Cu3+1 0.485930 0.482620 0.315620 1.179005
H1    H     H_    0.471374 0.962160 0.297104 0.182946
H2    H     H_    0.413158 0.363258 0.949474 0.235319
H3    H     H_    0.888723 0.309085 0.663931 0.178418
H4    H     H_    0.127565 0.724520 0.680245 0.177172
H5    H     H_    0.058243 0.475539 0.219219 0.208355
H6    H     H_    0.905751 0.249162 0.373295 0.212068
N1    N     N_2   0.464720 0.456420 0.038520 -0.193217
N2    N     N_2   0.535280 0.543580 0.961480 0.000975
N3    N     N_1   0.202590 0.561867 0.986131 -0.203630
N4    N     N_1   0.549553 0.116866 0.918157 -0.188580
N5    N     N_1   0.881558 0.595359 0.980161 -0.091595
O1    O     O_R   0.509140 0.286130 0.619770 -0.534241
O2    O     O_R   0.485380 0.256770 0.308360 -0.473697
O3    O     O_R   0.329570 0.514650 0.655700 -0.523918
O4    O     O_R   0.305810 0.485300 0.344290 -0.456262
O5    O     O_R   0.514620 0.743230 0.691640 -0.475476
O6    O     O_R   0.490860 0.713870 0.380230 -0.470106
O7    O     O_R   0.694190 0.514700 0.655710 -0.490268
O8    O     O_R   0.670430 0.485350 0.344300 -0.424076

loop_
_geom_bond_atom_site_label_1
_geom_bond_atom_site_label_2
_ccdc_geom_bond_type
Cu1   O5    S    
Cu2   O6    S    
C2    C7    S    
C4    C11   S    
Br5   C2    S    
C1    O2    A    
Cu1   O1    S    
C2    C3    S    
Cu1   N2    S    
Cu2   N1    S    
C9    N5    T    
C15   O3    A    
C10   C11   S    
Cu1   O3    S    
C3    C9    S    
C5    C6    S    
C4    C6    S    
C3    H3    S    
C1    C13   S    
C16   O5    A    
C1    O1    A    
C6    C15   S    
Br6   C11   S    
C12   H6    S    
Cu1   O7    S    
C13   H1    S    
H2    N1    S    
N1    N2    D    
C14   C16   S    
C5    H5    S    
Br7   C5    S    
C17   O7    A    
Br4   N2    S    
Cu2   O2    S    
Br1   C12   S    
C10   C17   S    
C17   O8    A    
C3    C10   S    
C15   O4    A    
C8    N4    T    
C8    C14   S    
C16   O6    A    
C13   C14   D    
C5    C12   S    
Br3   C11   S    
C7    N3    T    
C2    C6    S    
Br2   C4    S    
Cu2   O8    S    
C10   C12   S    
Cu1   Cu2   S    
Cu2   O4    S    
C4    H4    S    
