data_mof_unit_19495.cif
_audit_creation_date              2012-12-10T16:49:23-0500
_audit_creation_method            fapswitch 2.2
_symmetry_space_group_name_H-M    P1
_symmetry_Int_Tables_number       1
_space_group_crystal_system       triclinic
_cell_length_a                    19.318415
_cell_length_b                    8.703165
_cell_length_c                    7.550474
_cell_angle_alpha                 103.575328
_cell_angle_beta                  94.59549
_cell_angle_gamma                 93.844097
_cell_volume                      1225.20062969

loop_
_atom_site_label
_atom_site_type_symbol
_atom_type_description
_atom_site_fract_x
_atom_site_fract_y
_atom_site_fract_z
_atom_type_partial_charge
C1    C     C_R   0.497832 0.199798 0.452850 0.874840
C2    C     C_R   0.502168 0.800202 0.547150 0.874839
C3    C     C_2   0.496952 0.031202 0.427286 -0.372704
C4    C     C_2   0.503048 0.968798 0.572714 -0.372704
C5    C     C_R   0.367736 0.499848 0.501305 0.771618
C6    C     C_R   0.632264 0.500153 0.498695 0.771617
C7    C     C_R   0.261848 0.551717 0.667097 -0.199618
C8    C     C_R   0.738152 0.448281 0.332904 -0.199620
C9    C     C_R   0.189725 0.551464 0.666849 -0.156039
C10   C     C_R   0.810275 0.448542 0.333152 -0.156037
C11   C     C_R   0.146372 0.500005 0.501885 0.058089
C12   C     C_R   0.853629 0.500017 0.498117 0.058090
C13   C     C_R   0.176485 0.448978 0.337338 -0.155267
C14   C     C_R   0.823515 0.551053 0.662664 -0.155267
C15   C     C_R   0.248501 0.449005 0.337738 -0.187465
C16   C     C_R   0.751500 0.551019 0.662263 -0.187464
C17   C     C_R   0.291789 0.499848 0.502666 -0.022176
C18   C     C_R   0.708212 0.500159 0.497335 -0.022174
C19   C     C_R   0.929819 0.500030 0.498995 0.410718
C20   C     C_R   0.070182 0.499996 0.501008 0.410718
Cu1   Cu    Cu3+1 0.507710 0.517380 0.684380 0.940588
Cu2   Cu    Cu3+1 0.492290 0.482620 0.315620 0.940588
H1    H     H_    0.294011 0.594730 0.795580 0.142048
H2    H     H_    0.705989 0.405257 0.204421 0.142048
H3    H     H_    0.168087 0.592332 0.795851 0.153905
H4    H     H_    0.831914 0.407666 0.204151 0.153906
H5    H     H_    0.144532 0.408801 0.207892 0.156684
H6    H     H_    0.855470 0.591244 0.792109 0.156684
H7    H     H_    0.270183 0.408366 0.208688 0.143313
H8    H     H_    0.729818 0.591666 0.791312 0.143311
H9    H     H_    0.491338 0.958168 0.287861 0.180048
H10   H     H_    0.508662 0.041832 0.712139 0.180048
N1    N     N_R   0.028285 0.452547 0.341479 -0.233390
N2    N     N_R   0.971715 0.547479 0.658524 -0.233390
N3    N     N_R   0.959450 0.452553 0.340467 -0.236132
N4    N     N_R   0.040551 0.547474 0.659536 -0.236132
N5    N     N_2   0.480680 0.456420 0.038530 -0.052028
N6    N     N_2   0.519320 0.543580 0.961470 -0.052028
O1    O     O_R   0.505010 0.286130 0.619770 -0.584014
O2    O     O_R   0.494990 0.713870 0.380230 -0.584015
O3    O     O_R   0.491990 0.256780 0.308370 -0.582786
O4    O     O_R   0.508010 0.743220 0.691630 -0.582786
O5    O     O_R   0.406650 0.514660 0.655750 -0.601152
O6    O     O_R   0.593350 0.485340 0.344250 -0.601152
O7    O     O_R   0.393640 0.485310 0.344340 -0.590849
O8    O     O_R   0.606360 0.514690 0.655660 -0.590848
C21   C     C_3   0.413526 0.384981 0.949596 -0.362729
H11   H     H_    0.392076 0.304271 0.029411 0.154610
H12   H     H_    0.376889 0.477577 0.950247 0.162661
H13   H     H_    0.416862 0.308429 0.812771 0.187226
C22   C     C_3   0.586474 0.615018 0.050404 -0.362727
H14   H     H_    0.607924 0.695728 0.970588 0.154609
H15   H     H_    0.583138 0.691572 0.187228 0.187225
H16   H     H_    0.623110 0.522422 0.049755 0.162664

loop_
_geom_bond_atom_site_label_1
_geom_bond_atom_site_label_2
_ccdc_geom_bond_type
C2    C4    S    
C15   C17   A    
N5    N6    D    
C8    H2    S    
N5    C21   S    
C11   C13   A    
C21   H11   S    
Cu1   O1    S    
C22   H16   S    
Cu2   O2    S    
C10   H4    S    
C8    C18   A    
C5    O5    A    
C9    H3    S    
C21   H12   S    
C19   N3    A    
Cu1   Cu2   S    
C3    H9    S    
C9    C11   A    
C4    H10   S    
C10   C12   A    
C2    O4    A    
C7    H1    S    
C20   N1    A    
C12   C19   S    
C1    O3    A    
N1    N3    A    
C12   C14   A    
C15   H7    S    
C21   H13   S    
N2    N4    A    
C13   C15   A    
C6    C18   S    
C14   C16   A    
C11   C20   S    
Cu2   O3    S    
C5    C17   S    
C1    O1    A    
C16   H8    S    
C22   H14   S    
C20   N4    A    
C2    O2    A    
Cu2   O7    S    
C3    C4    D    
C16   C18   A    
Cu1   O8    S    
C1    C3    S    
C7    C9    A    
C13   H5    S    
C6    O6    A    
N6    C22   S    
C6    O8    A    
C14   H6    S    
Cu1   O5    S    
Cu2   N5    S    
C5    O7    A    
C8    C10   A    
Cu2   O6    S    
Cu1   N6    S    
Cu1   O4    S    
C22   H15   S    
C19   N2    A    
C7    C17   A    
