data_mof_unit_31780.cif
_audit_creation_date              2012-12-11T14:39:24-0500
_audit_creation_method            fapswitch 2.2
_symmetry_space_group_name_H-M    P1
_symmetry_Int_Tables_number       1
_space_group_crystal_system       triclinic
_cell_length_a                    7.237274
_cell_length_b                    13.914092
_cell_length_c                    16.653958
_cell_angle_alpha                 89.997957
_cell_angle_beta                  97.112745
_cell_angle_gamma                 90.001111
_cell_volume                      1664.14925887

loop_
_atom_site_label
_atom_site_type_symbol
_atom_type_description
_atom_site_fract_x
_atom_site_fract_y
_atom_site_fract_z
_atom_type_partial_charge
O1    O     O_R   0.525340 0.338340 0.164530 -0.541862
O2    O     O_R   0.474660 0.661660 0.835470 -0.544797
O3    O     O_R   0.974660 0.838340 0.835470 -0.541705
O4    O     O_R   0.025340 0.161660 0.164530 -0.544797
O5    O     O_R   0.253520 0.352000 0.336710 -0.540637
O6    O     O_R   0.746480 0.648000 0.663290 -0.539735
O7    O     O_R   0.246480 0.852000 0.663290 -0.540628
O8    O     O_R   0.753520 0.148000 0.336710 -0.539719
O9    O     O_R   0.083330 0.168380 0.337300 -0.536014
O10   O     O_R   0.916670 0.831620 0.662700 -0.533679
O11   O     O_R   0.416670 0.668380 0.662700 -0.536009
O12   O     O_R   0.583330 0.331620 0.337300 -0.533490
C1    C     C_R   0.432269 0.373958 0.360054 0.697755
C2    C     C_R   0.567831 0.625318 0.640581 0.694407
C3    C     C_R   0.067735 0.873973 0.639961 0.697673
C4    C     C_R   0.932166 0.125304 0.359409 0.694359
O13   O     O_R   0.195840 0.349670 0.165140 -0.543486
O14   O     O_R   0.804160 0.650330 0.834860 -0.540852
O15   O     O_R   0.304160 0.849670 0.834860 -0.543528
O16   O     O_R   0.695840 0.150330 0.165140 -0.540850
C5    C     C_R   0.356147 0.368896 0.135523 0.734934
C6    C     C_R   0.643389 0.631430 0.864603 0.742375
C7    C     C_R   0.143857 0.868886 0.864483 0.735243
C8    C     C_R   0.856616 0.131417 0.135404 0.742290
O17   O     O_3   0.387830 0.193120 0.250910 -0.375948
O18   O     O_3   0.612170 0.806880 0.749090 -0.377860
O19   O     O_3   0.112170 0.693120 0.749090 -0.375947
O20   O     O_3   0.887830 0.306880 0.250910 -0.377774
V1    V     V_3+5 0.113010 0.264540 0.250910 1.413064
V2    V     V_3+5 0.886990 0.735460 0.749090 1.397572
V3    V     V_3+5 0.386990 0.764540 0.749090 1.412960
V4    V     V_3+5 0.613010 0.235460 0.250910 1.397746
C9    C     C_R   0.003214 0.202568 0.512588 -0.186641
C10   C     C_R   0.017329 0.796595 0.486581 -0.186553
C11   C     C_R   0.496718 0.702574 0.487391 -0.186684
C12   C     C_R   0.482558 0.296605 0.513455 -0.186499
C13   C     C_R   0.036475 0.249641 0.585124 -0.157794
C14   C     C_R   0.999937 0.749320 0.414017 -0.150709
C15   C     C_R   0.463418 0.749643 0.414851 -0.157721
C16   C     C_R   0.499933 0.249343 0.586031 -0.150763
C17   C     C_R   0.062578 0.199125 0.657018 0.079678
C18   C     C_R   0.973602 0.799455 0.341940 0.081440
C19   C     C_R   0.437352 0.699128 0.342956 0.079871
C20   C     C_R   0.526340 0.299492 0.658098 0.081401
C21   C     C_R   0.057585 0.096541 0.656145 0.107171
C22   C     C_R   0.961489 0.902102 0.342719 0.102241
C23   C     C_R   0.442467 0.596545 0.343838 0.107268
C24   C     C_R   0.538480 0.402134 0.657298 0.102225
C25   C     C_R   0.031969 0.044854 0.579257 0.018616
C26   C     C_R   0.978761 0.954072 0.419573 0.019054
C27   C     C_R   0.468048 0.544857 0.420734 0.018483
C28   C     C_R   0.521215 0.454090 0.580434 0.019090
C29   C     C_R   0.001716 0.100849 0.506773 0.035157
C30   C     C_R   0.009388 0.898168 0.492185 0.034716
C31   C     C_R   0.498264 0.600856 0.493214 0.035174
C32   C     C_R   0.490571 0.398176 0.507830 0.034683
C33   C     C_R   0.033368 0.941645 0.570428 -0.138925
C34   C     C_R   0.969452 0.057277 0.428610 -0.137595
C35   C     C_R   0.466640 0.441643 0.429578 -0.138981
C36   C     C_R   0.530537 0.557291 0.571383 -0.137597
H1    H     H_    0.979475 0.249554 0.460697 0.139811
H2    H     H_    0.039076 0.749889 0.538735 0.138011
H3    H     H_    0.520424 0.749562 0.539280 0.139797
H4    H     H_    0.460773 0.249893 0.461309 0.137949
H5    H     H_    0.036412 0.327599 0.584829 0.163990
H6    H     H_    0.007367 0.671465 0.414643 0.164729
H7    H     H_    0.463412 0.827601 0.415145 0.164027
H8    H     H_    0.492457 0.171489 0.585427 0.164685
H9    H     H_    0.142230 0.060181 0.061159 0.160127
H10   H     H_    0.865572 0.929677 0.947732 0.153701
H11   H     H_    0.357803 0.560252 0.938894 0.160095
H12   H     H_    0.634494 0.429797 0.052357 0.153617
C37   C     C_2   0.152047 0.937871 0.933467 -0.324994
C38   C     C_2   0.850814 0.063065 0.066046 -0.339360
C39   C     C_2   0.347976 0.437913 0.066563 -0.324943
C40   C     C_2   0.649208 0.563107 0.933982 -0.339396
C41   C     C_2   0.999489 0.961975 0.968838 -0.140464
C42   C     C_2   0.006701 0.032882 0.035977 -0.111206
C43   C     C_2   0.500561 0.462067 0.031232 -0.140219
C44   C     C_2   0.493333 0.532954 0.964076 -0.111236
H13   H     H_    0.716049 0.035960 0.039622 0.126978
H14   H     H_    0.285590 0.970120 0.955309 0.133823
H15   H     H_    0.783975 0.536000 0.960403 0.126971
H16   H     H_    0.214419 0.470133 0.044698 0.133792
C45   C     C_2   0.958970 0.740612 0.266357 0.320920
H17   H     H_    0.885981 0.765953 0.209710 0.054731
O21   O     O_2   0.029569 0.660854 0.266532 -0.555108
C46   C     C_2   0.088086 0.257633 0.732451 0.330617
H18   H     H_    0.039113 0.233172 0.787790 0.044652
O22   O     O_2   0.160823 0.336887 0.733080 -0.553436
C47   C     C_2   0.541036 0.240675 0.733700 0.320786
H19   H     H_    0.614308 0.265987 0.790304 0.054826
O23   O     O_2   0.470192 0.160980 0.733590 -0.555098
C48   C     C_2   0.411713 0.757642 0.267519 0.330405
H20   H     H_    0.460474 0.733170 0.212136 0.044587
O24   O     O_2   0.339097 0.836929 0.266932 -0.553516
C49   C     C_3   0.059191 0.048538 0.737850 -0.393574
C50   C     C_3   0.859387 0.035162 0.755753 -0.679930
H21   H     H_    0.794734 0.106523 0.757787 0.222619
H22   H     H_    0.777439 0.991103 0.708554 0.244973
H23   H     H_    0.853919 0.002426 0.815526 0.226302
H24   H     H_    0.143475 0.983966 0.744296 0.184813
H25   H     H_    0.136446 0.090218 0.787613 0.184711
C51   C     C_3   0.921237 0.949009 0.260333 -0.393259
C52   C     C_3   0.711675 0.947652 0.233861 -0.689327
H26   H     H_    0.661779 0.873470 0.236219 0.210119
H27   H     H_    0.635839 0.992648 0.273843 0.258052
H28   H     H_    0.676670 0.970026 0.170420 0.211101
H29   H     H_    0.985229 0.019207 0.256232 0.183016
H30   H     H_    0.992529 0.910977 0.214490 0.197588
C53   C     C_3   0.441082 0.548545 0.262147 -0.393726
C54   C     C_3   0.640946 0.535351 0.244273 -0.678626
H31   H     H_    0.704636 0.606863 0.241314 0.222152
H32   H     H_    0.723560 0.492181 0.291938 0.244603
H33   H     H_    0.646649 0.501695 0.184871 0.226400
H34   H     H_    0.357052 0.483895 0.255704 0.184668
H35   H     H_    0.363677 0.590138 0.212368 0.184477
C55   C     C_3   0.578726 0.449053 0.739678 -0.393239
C56   C     C_3   0.788295 0.447732 0.766144 -0.689396
H36   H     H_    0.838252 0.373574 0.763730 0.210146
H37   H     H_    0.864100 0.492787 0.726192 0.258078
H38   H     H_    0.823288 0.470036 0.829603 0.211095
H39   H     H_    0.514672 0.519237 0.743774 0.183065
H40   H     H_    0.507479 0.411003 0.785532 0.197577

loop_
_geom_bond_atom_site_label_1
_geom_bond_atom_site_label_2
_ccdc_geom_bond_type
O1    C5    A    
O13   V1    S    
O3    C7    A    
C53   C54   S    
C6    C40   S    
O15   V3    S    
C54   H32   S    
C49   C50   S    
C45   H17   S    
C52   H27   S    
C26   C30   A    
O20   V1    S    
O9    C4    A    
C14   C18   A    
H12   C43   S    
O10   C3    A    
C24   C55   S    
C11   C15   A    
O4    C8    A    
O11   C2    A    
C23   C53   S    
C39   H16   S    
C47   O23   D    
C10   H2    S    
C19   C48   S    
C25   C33   A    
C18   C22   A    
C55   C56   S    
H11   C44   S    
C28   C36   A    
C23   C27   A    
C14   H6    S    
C13   H5    S    
O2    C6    A    
C40   C44   D    
C53   H34   S    
O14   V2    S    
C16   C20   A    
O5    C1    A    
C49   H24   S    
O9    V1    S    
O17   V4    S    
O7    C3    A    
O11   V3    S    
O18   V3    S    
O8    C4    A    
O14   C6    A    
C31   C36   A    
O12   V4    S    
O19   V2    S    
C3    C33   S    
H9    C42   S    
C7    C37   S    
C40   H15   S    
C54   H31   S    
O5    V1    S    
C56   H37   S    
C9    C29   A    
C52   H28   S    
O7    V3    S    
C45   O21   D    
C11   C31   A    
C26   C34   A    
O16   C8    A    
C12   C16   A    
C47   H19   S    
C4    C34   S    
C41   C42   S    
C22   C51   S    
O1    V4    S    
O13   C5    A    
O2    V3    S    
O8    V4    S    
O3    V2    S    
O15   C7    A    
C12   C32   A    
O6    C2    A    
O10   V2    S    
C21   C25   A    
C56   H36   S    
C18   C45   S    
C55   H40   S    
O12   C1    A    
C48   O24   D    
C49   H25   S    
C20   C47   S    
O6    V2    S    
C46   O22   D    
C10   C30   A    
C50   H22   S    
C16   H8    S    
C27   C35   A    
C38   H13   S    
C37   H14   S    
O16   V4    S    
C56   H38   S    
C17   C46   S    
C5    C39   S    
C37   C41   D    
C10   C14   A    
C15   H7    S    
O4    V1    S    
C51   C52   S    
C15   C19   A    
C29   C34   A    
C1    C35   S    
C50   H23   S    
C2    C36   S    
C52   H26   S    
C22   C26   A    
C32   C35   A    
C53   H35   S    
C21   C49   S    
C51   H30   S    
C8    C38   S    
C51   H29   S    
C19   C23   A    
C25   C29   A    
C27   C31   A    
C55   H39   S    
C13   C17   A    
C48   H20   S    
C9    C13   A    
C43   C44   S    
C28   C32   A    
C24   C28   A    
C46   H18   S    
C9    H1    S    
C50   H21   S    
C38   C42   D    
C17   C21   A    
C11   H3    S    
C12   H4    S    
C39   C43   D    
C54   H33   S    
C20   C24   A    
H10   C41   S    
C30   C33   A    
