data_mof_unit_35002.cif
_audit_creation_date              2012-10-26T19:03:54-0400
_audit_creation_method            fapswitch 2.2
_symmetry_space_group_name_H-M    P1
_symmetry_Int_Tables_number       1
_space_group_crystal_system       triclinic
_cell_length_a                    15.885402
_cell_length_b                    13.018772
_cell_length_c                    11.742229
_cell_angle_alpha                 99.816259
_cell_angle_beta                  92.825952
_cell_angle_gamma                 91.985436
_cell_volume                      2387.64158107

loop_
_atom_site_label
_atom_site_type_symbol
_atom_type_description
_atom_site_fract_x
_atom_site_fract_y
_atom_site_fract_z
_atom_type_partial_charge
C1    C     C_R   0.498585 0.298988 0.478255 0.572440
C2    C     C_R   0.497626 0.184881 0.464749 0.032833
C3    C     C_R   0.490302 0.012576 0.346734 -0.128514
C4    C     C_R   0.340333 0.499837 0.501005 0.549836
C5    C     C_R   0.490715 0.120899 0.354258 0.237889
C6    C     C_R   0.503771 0.139769 0.564857 -0.178737
C7    C     C_R   0.503350 0.031611 0.557655 0.048157
C8    C     C_R   0.496532 0.968185 0.446782 0.001440
C9    C     C_R   0.495899 0.860465 0.436321 -0.138014
C10   C     C_R   0.508895 0.876109 0.645099 -0.112352
C11   C     C_R   0.509544 0.984886 0.658038 0.005083
C12   C     C_3   0.953560 0.467936 0.617377 0.221542
C13   C     C_R   0.421140 0.399681 0.023454 -0.178274
C14   C     C_R   0.428545 0.409641 0.144995 0.060856
C15   C     C_R   0.535546 0.544374 0.154869 0.156678
C16   C     C_R   0.501292 0.700708 0.521545 0.536187
C17   C     C_R   0.528991 0.536937 0.032013 0.027328
C18   C     C_R   0.471350 0.463474 0.966096 -0.005816
C19   C     C_R   0.465759 0.455979 0.843942 0.047027
C20   C     C_R   0.571054 0.590901 0.852707 0.044246
C21   C     C_R   0.578938 0.601093 0.972859 -0.170259
C22   C     C_R   0.659652 0.500103 0.498993 0.543608
C23   C     C_3   0.917111 0.499052 0.500938 0.136066
C24   C     C_3   0.052285 0.468748 0.616342 -0.180539
C25   C     C_3   0.042316 0.417462 0.395991 -0.095818
C26   C     C_3   0.944413 0.417342 0.398232 -0.156060
C27   C     C_1   0.749128 0.499762 0.497182 -0.029743
C28   C     C_3   0.082892 0.496500 0.501554 0.021355
C29   C     C_3   0.926740 0.542712 0.725823 -0.372985
C30   C     C_3   0.516799 0.048401 0.778615 -0.408830
C31   C     C_3   0.600860 0.623881 0.219658 -0.332757
C32   C     C_3   0.073556 0.305795 0.387981 -0.423398
C33   C     C_3   0.954961 0.608152 0.486162 0.085359
C34   C     C_3   0.052716 0.606887 0.491669 -0.170892
C35   C     C_1   0.824635 0.499464 0.497899 -0.031290
C36   C     C_1   0.175265 0.498210 0.502843 -0.079314
C37   C     C_1   0.250798 0.499236 0.502848 -0.033174
C38   C     C_R   0.502088 0.814093 0.534752 -0.011528
Cu1   Cu    Cu3+1 0.506190 0.507730 0.615930 0.932502
Cu2   Cu    Cu3+1 0.493810 0.492270 0.384070 0.964193
H1    H     H_    0.081782 0.526145 0.689982 0.092061
H2    H     H_    0.624451 0.659765 0.017219 0.091598
H3    H     H_    0.389277 0.359902 0.187479 0.147567
H4    H     H_    0.060596 0.444968 0.315461 0.147138
H5    H     H_    0.917252 0.338683 0.404659 0.164095
H6    H     H_    0.917770 0.435113 0.314648 0.138935
H7    H     H_    0.078712 0.664414 0.567558 0.084272
H8    H     H_    0.077779 0.632132 0.413422 0.170256
H9    H     H_    0.935789 0.669677 0.557030 0.103019
H10   H     H_    0.946172 0.345835 0.695019 0.320681
H11   H     H_    0.953560 0.623126 0.730093 0.084340
H12   H     H_    0.490413 0.812699 0.350861 0.126222
H13   H     H_    0.857013 0.544946 0.727313 0.153019
H14   H     H_    0.950117 0.515442 0.805809 0.121263
H15   H     H_    0.869924 0.662765 0.389944 0.321159
H16   H     H_    0.520882 0.998177 0.846095 0.123999
H17   H     H_    0.574622 0.100315 0.789395 0.140061
H18   H     H_    0.460507 0.096105 0.793610 0.128771
H19   H     H_    0.480021 0.108936 0.186072 0.311359
H20   H     H_    0.608825 0.630325 0.312637 0.193279
H21   H     H_    0.664150 0.605243 0.187672 0.099969
H22   H     H_    0.585042 0.703080 0.204577 0.081439
H23   H     H_    0.513701 0.839721 0.721437 0.128170
H24   H     H_    0.054999 0.270271 0.462956 0.164933
H25   H     H_    0.045449 0.256107 0.307855 0.125857
H26   H     H_    0.143162 0.305279 0.383481 0.141800
H27   H     H_    0.485089 0.962745 0.262449 0.088402
H28   H     H_    0.508951 0.189787 0.648682 0.135912
H29   H     H_    0.421700 0.399639 0.791771 0.113165
H30   H     H_    0.076053 0.392029 0.629270 0.128169
H31   H     H_    0.609590 0.640499 0.809069 0.122588
H32   H     H_    0.376201 0.342294 0.974606 0.088771
N1    N     N_R   0.515490 0.519350 0.790130 -0.228336
N2    N     N_R   0.484510 0.480650 0.209890 -0.217458
O1    O     O_R   0.504390 0.354460 0.582000 -0.526810
O2    O     O_3   0.926578 0.633825 0.379434 -0.723276
O3    O     O_3   0.484393 0.164916 0.255175 -0.689716
O4    O     O_R   0.493940 0.341410 0.386200 -0.430214
O5    O     O_R   0.384660 0.506540 0.597940 -0.499092
O6    O     O_R   0.374210 0.493480 0.402140 -0.502379
O7    O     O_R   0.506060 0.658590 0.613800 -0.511312
O8    O     O_R   0.495610 0.645540 0.418000 -0.524992
O9    O     O_R   0.625790 0.506520 0.597860 -0.495224
O10   O     O_R   0.615340 0.493460 0.402060 -0.511656
O11   O     O_3   0.921906 0.366314 0.622992 -0.708133

loop_
_geom_bond_atom_site_label_1
_geom_bond_atom_site_label_2
_ccdc_geom_bond_type
C24   H1    S    
C12   C29   S    
C31   H21   S    
C10   H23   S    
H19   O3    S    
C24   H30   S    
C7    C8    A    
C25   C28   S    
C7    C11   A    
C12   C23   S    
C12   O11   S    
C14   N2    A    
C36   C37   T    
C4    O6    A    
C29   H14   S    
C33   H9    S    
C30   H17   S    
C1    C2    S    
C23   C26   S    
Cu2   O10   S    
C16   O7    A    
C26   H5    S    
C11   C30   S    
C8    C9    A    
C23   C33   S    
Cu2   O6    S    
C20   H31   S    
Cu1   O1    S    
H10   O11   S    
C25   C32   S    
C6    H28   S    
C28   C34   S    
C13   C14   A    
C1    O4    A    
C31   H22   S    
C2    C6    A    
C9    H12   S    
C25   H4    S    
C33   C34   S    
C1    O1    A    
Cu2   O8    S    
C19   N1    A    
C32   H24   S    
C4    O5    A    
C3    C8    A    
Cu1   Cu2   S    
C18   C19   A    
C27   C35   T    
C25   C26   S    
C30   H16   S    
C17   C21   A    
Cu1   O5    S    
C31   H20   S    
C33   O2    S    
C16   O8    A    
C17   C18   A    
C4    C37   S    
Cu1   O7    S    
H15   O2    S    
C13   C18   A    
C23   C35   S    
C22   C27   S    
Cu2   O4    S    
C19   H29   S    
C2    C5    A    
C34   H8    S    
C5    O3    S    
C32   H26   S    
C29   H11   S    
C15   C17   A    
C3    H27   S    
C24   C28   S    
C3    C5    A    
C15   C31   S    
C6    C7    A    
C13   H32   S    
C12   C24   S    
C10   C38   A    
C22   O9    A    
Cu1   O9    S    
C29   H13   S    
C30   H18   S    
C9    C38   A    
Cu2   N2    S    
C20   N1    A    
Cu1   N1    S    
C10   C11   A    
C26   H6    S    
C21   H2    S    
C15   N2    A    
C20   C21   A    
C28   C36   S    
C16   C38   S    
C14   H3    S    
C34   H7    S    
C22   O10   A    
C32   H25   S    
