data_mof_unit_30845.cif
_audit_creation_date              2012-12-11T15:23:34-0500
_audit_creation_method            fapswitch 2.2
_symmetry_space_group_name_H-M    P1
_symmetry_Int_Tables_number       1
_space_group_crystal_system       triclinic
_cell_length_a                    6.928486
_cell_length_b                    17.488624
_cell_length_c                    19.354448
_cell_angle_alpha                 109.575888
_cell_angle_beta                  90.232182
_cell_angle_gamma                 90.491351
_cell_volume                      2209.47706038

loop_
_atom_site_label
_atom_site_type_symbol
_atom_type_description
_atom_site_fract_x
_atom_site_fract_y
_atom_site_fract_z
_atom_type_partial_charge
O1    O     O_R   0.505810 0.439670 0.562310 -0.538201
O2    O     O_R   0.169070 0.404920 0.411210 -0.542872
O3    O     O_R   0.005550 0.560330 0.437690 -0.544272
C1    C     C_R   0.338596 0.381926 0.382659 0.674326
O4    O     O_R   0.175650 0.430000 0.560110 -0.535742
O5    O     O_R   0.012170 0.585580 0.587650 -0.532395
C2    C     C_R   0.344785 0.412505 0.579615 0.714162
O6    O     O_R   0.499180 0.414420 0.412350 -0.538637
O7    O     O_3   0.341430 0.551020 0.508860 -0.371582
V1    V     V_3+5 0.063930 0.490540 0.498360 1.389909
O8    O     O_R   0.682850 0.595080 0.588790 -0.543959
C3    C     C_R   0.852750 0.617749 0.617414 0.690660
O9    O     O_R   0.676280 0.570000 0.439890 -0.538255
C4    C     C_R   0.845638 0.585996 0.419231 0.740252
V2    V     V_3+5 0.564760 0.509460 0.501640 1.387890
O10   O     O_3   0.837130 0.448980 0.491140 -0.366082
C5    C     C_R   0.056959 0.886172 0.195624 0.093816
C6    C     C_R   0.918797 0.873944 0.137975 -0.118321
C7    C     C_R   0.767888 0.817612 0.130445 -0.250866
C8    C     C_R   0.754027 0.771121 0.176752 0.051248
C9    C     C_R   0.896209 0.778072 0.230467 0.033398
C10   C     C_R   0.051686 0.833657 0.238348 0.092923
C11   C     C_R   0.597238 0.718488 0.170221 -0.194709
C12   C     C_R   0.580148 0.670183 0.215012 0.169961
C13   C     C_R   0.730226 0.671836 0.266582 0.062924
C14   C     C_R   0.881943 0.730065 0.276945 -0.043358
C15   C     C_R   0.020071 0.740946 0.333771 0.070102
C16   C     C_R   0.183102 0.790208 0.335614 -0.179181
C17   C     C_R   0.198956 0.834984 0.288836 -0.186046
C18   C     C_R   0.737447 0.617574 0.307630 0.080705
C19   C     C_R   0.857430 0.636632 0.370949 -0.113222
C20   C     C_R   0.992362 0.702055 0.386643 0.052444
H1    H     H_    0.659881 0.809749 0.087809 0.134532
H2    H     H_    0.484249 0.716201 0.130566 0.127795
H3    H     H_    0.306375 0.792309 0.370435 0.122369
H4    H     H_    0.329147 0.870805 0.293377 0.144540
C21   C     C_3   0.712162 0.782362 0.770957 -0.108496
C22   C     C_3   0.816347 0.776109 0.698698 -0.189525
H5    H     H_    0.753431 0.798961 0.656696 0.118602
H6    H     H_    0.571035 0.812084 0.787934 0.118345
C23   C     C_3   0.868295 0.687435 0.688576 -0.008958
C24   C     C_3   0.764013 0.692985 0.760314 -0.174717
C25   C     C_3   0.954427 0.722386 0.804014 -0.151254
C26   C     C_3   0.056915 0.716484 0.731900 0.212402
C27   C     C_3   0.007652 0.805456 0.742013 -0.146895
C28   C     C_3   0.902957 0.810751 0.813385 -0.035361
H7    H     H_    0.665116 0.646053 0.767606 0.108280
H8    H     H_    0.012809 0.700637 0.847543 0.103195
H9    H     H_    0.109367 0.851467 0.734623 0.099257
C29   C     C_3   0.556940 0.281001 0.278309 -0.101030
C30   C     C_3   0.487680 0.192512 0.263638 -0.148191
H10   H     H_    0.573366 0.144597 0.274919 0.101736
H11   H     H_    0.699763 0.305957 0.301895 0.113407
C31   C     C_3   0.413236 0.189509 0.187752 -0.005980
C32   C     C_3   0.481852 0.277340 0.201764 -0.146737
C33   C     C_3   0.283183 0.309075 0.235745 -0.148657
C34   C     C_3   0.213950 0.220554 0.221010 -0.098923
C35   C     C_3   0.289000 0.224325 0.297561 -0.151672
C36   C     C_3   0.357744 0.311946 0.311535 -0.007151
H12   H     H_    0.562768 0.299131 0.162464 0.101348
H13   H     H_    0.197596 0.357075 0.224566 0.101688
H14   H     H_    0.071106 0.195545 0.197499 0.113853
H15   H     H_    0.206866 0.204463 0.337745 0.105169
C37   C     C_R   0.266681 0.116965 0.815153 -0.211164
C38   C     C_R   0.415510 0.132871 0.867685 -0.090624
C39   C     C_R   0.549949 0.194777 0.872176 -0.215209
C40   C     C_R   0.534651 0.241283 0.825546 0.084210
C41   C     C_R   0.388546 0.223483 0.771160 0.018855
C42   C     C_R   0.252542 0.160741 0.765859 0.091200
C43   C     C_R   0.660887 0.306707 0.834095 -0.214910
C44   C     C_R   0.645224 0.355600 0.789715 0.152398
C45   C     C_R   0.506746 0.335067 0.731660 0.078839
C46   C     C_R   0.377962 0.268884 0.722667 -0.034963
C47   C     C_R   0.236816 0.248579 0.665944 0.051008
C48   C     C_R   0.100396 0.187063 0.662555 -0.177704
C49   C     C_R   0.104925 0.143943 0.711948 0.150825
C50   C     C_R   0.490714 0.380015 0.683581 -0.267761
C51   C     C_R   0.355175 0.359719 0.626062 -0.087915
C52   C     C_R   0.232259 0.291148 0.614769 0.126951
H16   H     H_    0.164351 0.068908 0.812347 0.132636
H17   H     H_    0.663357 0.208235 0.913420 0.121490
H18   H     H_    0.769877 0.321131 0.877059 0.122259
H19   H     H_    0.583676 0.431926 0.690107 0.140676
H20   H     H_    0.985135 0.173125 0.622269 0.143037
O11   O     O_R   0.271890 0.085690 0.087580 -0.544543
O12   O     O_R   0.595690 0.070020 0.939870 -0.541176
O13   O     O_R   0.758900 0.914390 0.912370 -0.538439
C53   C     C_R   0.426754 0.084956 0.918053 0.709413
O14   O     O_R   0.602020 0.095100 0.088770 -0.540795
O15   O     O_R   0.765280 0.939660 0.062330 -0.537685
C54   C     C_R   0.432400 0.118735 0.116987 0.671296
O16   O     O_R   0.265520 0.060430 0.937620 -0.538513
O17   O     O_3   0.429560 0.949050 0.991100 -0.368156
V3    V     V_3+5 0.707160 0.009450 0.001650 1.396372
O18   O     O_R   0.094540 0.929890 0.060190 -0.548475
C55   C     C_R   0.926791 0.918966 0.085050 0.705254
O19   O     O_R   0.088200 0.904800 0.911290 -0.541956
C56   C     C_R   0.918190 0.881277 0.883480 0.692460
V4    V     V_3+5 0.206300 0.990390 0.998440 1.389353
O20   O     O_3   0.934030 0.050940 0.008900 -0.368694
C57   C     C_3   0.198486 0.958196 0.216260 -0.355256
C58   C     C_3   0.152803 0.020249 0.291360 -0.789998
H21   H     H_    0.018732 0.053177 0.287787 0.221497
H22   H     H_    0.133483 0.992022 0.334295 0.238326
H23   H     H_    0.274005 0.064429 0.308798 0.216179
H24   H     H_    0.349038 0.936564 0.214894 0.169390
H25   H     H_    0.196185 0.993001 0.178251 0.197124
C59   C     C_3   0.255059 0.679045 0.713153 -0.765696
H26   H     H_    0.351651 0.705745 0.760875 0.190078
H27   H     H_    0.245843 0.612596 0.702021 0.201266
H28   H     H_    0.313454 0.691285 0.664525 0.219129
C60   C     C_3   0.773393 0.430702 0.808257 -0.378089
C61   C     C_3   0.951100 0.415889 0.759555 -0.728994
H29   H     H_    0.044004 0.370581 0.771661 0.235265
H30   H     H_    0.910190 0.393502 0.700607 0.232200
H31   H     H_    0.034935 0.473284 0.771190 0.207449
H32   H     H_    0.691356 0.483390 0.804400 0.165493
H33   H     H_    0.823498 0.448975 0.866250 0.176056
C62   C     C_3   0.104620 0.260432 0.546905 -0.781794
H34   H     H_    0.147260 0.284565 0.503042 0.204182
H35   H     H_    0.117942 0.193607 0.521573 0.195336
H36   H     H_    0.951893 0.276114 0.561871 0.211271
C63   C     C_3   0.950025 0.080671 0.706024 -0.796220
H37   H     H_    0.869084 0.096408 0.758272 0.217051
H38   H     H_    0.844283 0.076562 0.661597 0.210150
H39   H     H_    0.016476 0.020062 0.693903 0.200398
C64   C     C_3   0.389356 0.626323 0.211422 -0.770836
H40   H     H_    0.342785 0.629212 0.266946 0.218413
H41   H     H_    0.272834 0.655411 0.189695 0.209203
H42   H     H_    0.398134 0.562653 0.174120 0.201734
C65   C     C_3   0.645453 0.533591 0.278500 -0.753374
H43   H     H_    0.733074 0.488191 0.292950 0.182263
H44   H     H_    0.498920 0.533524 0.301359 0.210068
H45   H     H_    0.642343 0.510857 0.217757 0.204189
C66   C     C_3   0.094205 0.733618 0.461549 -0.344820
C67   C     C_3   0.951202 0.770894 0.523146 -0.770163
H46   H     H_    0.871832 0.820980 0.512823 0.228465
H47   H     H_    0.845811 0.725232 0.528342 0.208064
H48   H     H_    0.031457 0.796107 0.575823 0.212071
H49   H     H_    0.177966 0.685265 0.472521 0.201559
H50   H     H_    0.200476 0.782427 0.466456 0.171531

loop_
_geom_bond_atom_site_label_1
_geom_bond_atom_site_label_2
_ccdc_geom_bond_type
C57   H25   S    
C9    C14   A    
O17   V3    S    
C10   C17   A    
C6    C55   S    
C23   C24   S    
O18   C55   A    
C4    C19   S    
C1    O6    A    
C65   H45   S    
O19   C56   A    
O11   C54   A    
C66   C67   S    
C18   C65   S    
C50   C51   A    
C33   C34   S    
C17   H4    S    
C14   C15   A    
C57   C58   S    
C58   H23   S    
C29   C36   S    
C16   C17   A    
C21   C22   S    
C21   H6    S    
O5    C3    A    
C60   H32   S    
O12   C53   A    
C48   H20   S    
C63   H38   S    
C50   H19   S    
V2    O10   S    
O13   V3    S    
C21   C24   S    
C59   H26   S    
C42   C49   A    
C5    C6    A    
C6    C7    A    
C46   C47   A    
O14   V3    S    
C5    C57   S    
C22   C27   S    
O12   V3    S    
O8    V2    S    
C53   O16   A    
C16   H3    S    
C41   C42   A    
C52   C62   S    
C12   C64   S    
C11   C12   A    
C43   C44   A    
O1    V2    S    
C27   H9    S    
O14   C54   A    
C25   H8    S    
O17   V4    S    
C61   H31   S    
C32   H12   S    
C26   C59   S    
C39   C40   A    
C28   C56   S    
O9    C4    A    
C37   H16   S    
C67   H48   S    
C60   C61   S    
O19   V4    S    
O15   V3    S    
C62   H35   S    
C66   H49   S    
O13   C56   A    
C29   H11   S    
C47   C48   A    
C66   H50   S    
C30   H10   S    
C63   H37   S    
C22   H5    S    
C12   C13   A    
C22   C23   S    
C67   H47   S    
C7    H1    S    
O4    C2    A    
C51   C52   A    
C13   C18   A    
C63   H39   S    
C34   H14   S    
C41   C46   A    
C27   C28   S    
C40   C41   A    
O2    C1    A    
C48   C49   A    
C64   H41   S    
C45   C50   A    
O11   V4    S    
V4    O20   S    
C8    C11   A    
V3    O20   S    
C62   H34   S    
C11   H2    S    
C44   C60   S    
C32   C33   S    
C29   C30   S    
C30   C35   S    
C37   C42   A    
C58   H22   S    
O3    C4    A    
C2    C51   S    
O6    V2    S    
C47   C52   A    
O9    V2    S    
C25   C26   S    
C23   C26   S    
C35   C36   S    
C24   C25   S    
C65   H43   S    
O2    V1    S    
C57   H24   S    
C26   C27   S    
C38   C53   S    
C61   H29   S    
O7    V1    S    
C62   H36   S    
C35   H15   S    
C31   C32   S    
C15   C20   A    
O1    C2    A    
C49   C63   S    
C19   C20   A    
C29   C32   S    
C45   C46   A    
C65   H44   S    
O5    V1    S    
C20   C66   S    
O8    C3    A    
C33   C36   S    
O15   C55   A    
C3    C23   S    
C5    C10   A    
C59   H28   S    
C30   C31   S    
C37   C38   A    
C40   C43   A    
C7    C8    A    
C13   C14   A    
C64   H42   S    
C31   C54   S    
O3    V1    S    
V1    O10   S    
C39   H17   S    
C60   H33   S    
C34   C35   S    
C18   C19   A    
C1    C36   S    
C59   H27   S    
O18   V4    S    
C24   H7    S    
O7    V2    S    
C58   H21   S    
C43   H18   S    
C25   C28   S    
O4    V1    S    
C44   C45   A    
C8    C9    A    
C38   C39   A    
C15   C16   A    
C33   H13   S    
C67   H46   S    
C21   C28   S    
C9    C10   A    
C64   H40   S    
O16   V4    S    
C61   H30   S    
C31   C34   S    
