data_mof_unit_52062.cif
_audit_creation_date              2012-12-11T14:58:32-0500
_audit_creation_method            fapswitch 2.2
_symmetry_space_group_name_H-M    P1
_symmetry_Int_Tables_number       1
_space_group_crystal_system       triclinic
_cell_length_a                    10.911925
_cell_length_b                    10.877549
_cell_length_c                    18.74843
_cell_angle_alpha                 90.174637
_cell_angle_beta                  90.357616
_cell_angle_gamma                 60.208572
_cell_volume                      1931.20522265

loop_
_atom_site_label
_atom_site_type_symbol
_atom_type_description
_atom_site_fract_x
_atom_site_fract_y
_atom_site_fract_z
_atom_type_partial_charge
C1    C     C_R   0.357954 0.774868 0.397690 0.531898
C2    C     C_R   0.616310 0.125867 0.164130 0.059933
C3    C     C_R   0.360205 0.333138 0.161890 -0.002804
C4    C     C_R   0.483008 0.242944 0.273066 -0.148228
C5    C     C_R   0.485054 0.237867 0.199285 -0.023736
C6    C     C_R   0.064392 0.705772 0.284971 -0.089464
C7    C     C_R   0.946446 0.816537 0.317956 -0.116759
C8    C     C_R   0.683411 0.985321 0.189394 -0.104319
C9    C     C_R   0.799427 0.878096 0.153522 -0.127123
C10   C     C_R   0.246168 0.441859 0.198830 -0.152053
C11   C     C_R   0.245172 0.448275 0.273045 -0.035027
C12   C     C_R   0.386687 0.355121 0.387166 0.524725
C13   C     C_R   0.880921 0.788358 0.374190 -0.119312
C14   C     C_R   0.932551 0.649173 0.397166 -0.100311
C15   C     C_R   0.048400 0.537554 0.363247 -0.049078
C16   C     C_R   0.117688 0.565047 0.307783 0.056596
C17   C     C_R   0.364676 0.344108 0.310907 -0.000798
C18   C     C_R   0.904833 0.324919 0.308011 -0.120126
C19   C     C_R   0.950624 0.305422 0.238165 -0.139780
C20   C     C_R   0.853162 0.341985 0.182363 0.037275
C21   C     C_R   0.708448 0.406904 0.195978 -0.134671
C22   C     C_R   0.661911 0.430091 0.266277 -0.149498
C23   C     C_R   0.712584 0.416127 0.394659 0.556867
C24   C     C_R   0.760576 0.387916 0.321996 0.036197
C25   C     C_R   0.454665 0.824015 0.288525 -0.145906
C26   C     C_R   0.434966 0.866324 0.217218 -0.135588
C27   C     C_R   0.298452 0.935265 0.188173 0.024307
C28   C     C_R   0.182067 0.969716 0.231983 -0.154314
C29   C     C_R   0.201281 0.930762 0.303083 -0.142130
C30   C     C_R   0.337675 0.850853 0.330732 0.027137
C31   C     C_R   0.373386 0.202031 0.693118 -0.194547
C32   C     C_R   0.362054 0.187271 0.765132 -0.151038
C33   C     C_R   0.298809 0.307402 0.809367 0.006214
C34   C     C_R   0.344587 0.770775 0.604297 0.561886
C35   C     C_R   0.235908 0.442787 0.780892 -0.057368
C36   C     C_R   0.240947 0.459191 0.707989 0.269707
C37   C     C_R   0.319583 0.337141 0.664753 0.021248
C38   C     C_R   0.898091 0.402583 0.707101 -0.113483
C39   C     C_R   0.923981 0.395014 0.779480 0.261313
C40   C     C_R   0.915237 0.290823 0.820525 0.030749
C41   C     C_R   0.874755 0.200089 0.787884 -0.191666
C42   C     C_R   0.836959 0.217545 0.715930 -0.161255
C43   C     C_R   0.843896 0.323009 0.676229 -0.017972
C44   C     C_R   0.191773 0.866103 0.709072 -0.084050
C45   C     C_R   0.368816 0.351307 0.595719 0.560102
C46   C     C_R   0.181178 0.872705 0.782472 -0.116209
C47   C     C_R   0.298255 0.846986 0.824391 0.029136
C48   C     C_R   0.427259 0.810316 0.792194 -0.148994
C49   C     C_R   0.439484 0.798163 0.718812 -0.146118
C50   C     C_R   0.322248 0.823105 0.676944 0.039141
C51   C     C_R   0.906553 0.317789 0.110695 0.536157
C52   C     C_R   0.329804 0.295543 0.091728 0.531686
C53   C     C_R   0.271660 0.963736 0.111986 0.567757
C54   C     C_R   0.946810 0.281938 0.896710 0.591941
C55   C     C_R   0.293428 0.285598 0.884351 0.547019
C56   C     C_R   0.769423 0.373023 0.608732 0.560289
C57   C     C_R   0.275249 0.893803 0.897806 0.545644
C58   C     C_R   0.850756 0.909712 0.092440 -0.107742
C59   C     C_R   0.786010 0.048631 0.067114 -0.079523
C60   C     C_R   0.671138 0.156762 0.103297 -0.053359
Cr1   Cr    Cr6+3 0.601770 0.606860 0.505860 0.983056
Cr2   Cr    Cr6+3 0.291380 0.601660 0.495070 1.029684
Cr3   Cr    Cr6+3 0.606880 0.291510 0.499120 1.002629
Cr4   Cr    Cr6+3 0.062440 0.063090 0.008210 0.972901
Cr5   Cr    Cr6+3 0.062880 0.375170 0.998920 1.018621
Cr6   Cr    Cr6+3 0.374700 0.061720 0.992470 1.008341
H1    H     H_    0.578980 0.169417 0.301007 0.142467
H2    H     H_    0.790622 0.874438 0.400192 0.107600
H3    H     H_    0.883747 0.628219 0.441924 0.133395
H4    H     H_    0.087254 0.430344 0.381819 0.095522
H5    H     H_    0.981112 0.292478 0.351120 0.118456
H6    H     H_    0.062182 0.261311 0.227448 0.113899
H7    H     H_    0.632441 0.440907 0.152714 0.107065
H8    H     H_    0.549787 0.481860 0.277268 0.111029
H9    H     H_    0.561400 0.761488 0.308908 0.134763
H10   H     H_    0.526110 0.836683 0.183920 0.137560
H11   H     H_    0.075897 0.021326 0.210223 0.140060
H12   H     H_    0.848596 0.770073 0.172703 0.123523
H13   H     H_    0.109968 0.954920 0.335230 0.133803
H14   H     H_    0.430878 0.108234 0.660424 0.130476
H15   H     H_    0.406549 0.081264 0.786611 0.151251
H16   H     H_    0.184997 0.535254 0.815049 0.147379
H17   H     H_    0.906699 0.482034 0.676601 0.120160
H18   H     H_    0.864689 0.121555 0.818643 0.130643
H19   H     H_    0.099549 0.888086 0.677688 0.131131
H20   H     H_    0.906296 0.924497 0.300160 0.112847
H21   H     H_    0.079807 0.903515 0.806135 0.122373
H22   H     H_    0.541849 0.764199 0.695312 0.127854
H23   H     H_    0.939933 0.826408 0.064399 0.111920
H24   H     H_    0.824015 0.072305 0.018910 0.146370
H25   H     H_    0.621247 0.263341 0.082122 0.095208
H26   H     H_    0.114977 0.729950 0.242044 0.118682
H27   H     H_    0.644293 0.957719 0.236042 0.102365
O1    O     O_R   0.748800 0.497470 0.428000 -0.537750
O2    O     O_R   0.300070 0.471040 0.567100 -0.459727
O3    O     O_R   0.491670 0.258900 0.574910 -0.527930
O4    O     O_R   0.718780 0.304180 0.577850 -0.494066
O5    O     O_3   0.500010 0.500010 0.500020 -0.261480
O6    O     O_R   0.186690 0.923650 0.086970 -0.517969
O7    O     O_R   0.957250 0.194250 0.084630 -0.527526
O8    O     O_R   0.934970 0.407490 0.085330 -0.513039
O9    O     O_R   0.203780 0.365190 0.067090 -0.511801
O10   O     O_R   0.417600 0.174890 0.067840 -0.510850
O11   O     O_R   0.375320 0.946260 0.070860 -0.493587
O12   O     O_R   0.476420 0.724060 0.429470 -0.525357
O13   O     O_R   0.160600 0.919630 0.926660 -0.534180
O14   O     O_R   0.933060 0.190520 0.936020 -0.537396
O15   O     O_R   0.908880 0.403460 0.925020 -0.480721
O16   O     O_R   0.179600 0.361450 0.918490 -0.482220
O17   O     O_R   0.391510 0.170860 0.907530 -0.530964
O18   O     O_R   0.351130 0.942530 0.922260 -0.505754
O19   O     O_3   0.166667 0.166667 0.999870 -0.288478
O20   O     O_R   0.264580 0.744340 0.416750 -0.510693
O21   O     O_R   0.309380 0.472470 0.418200 -0.499119
O22   O     O_R   0.501710 0.260430 0.414300 -0.539036
O23   O     O_R   0.728090 0.305600 0.428960 -0.503232
O24   O     O_R   0.738760 0.495930 0.588610 -0.534578
O25   O     O_R   0.467110 0.722640 0.578360 -0.512273
O26   O     O_R   0.254530 0.742800 0.577360 -0.489317
O27   O     O_3   0.187732 0.594737 0.681652 -0.543162
C61   C     C_3   0.047801 0.644304 0.658473 -0.096865
H28   H     H_    0.010476 0.745285 0.629292 0.126360
H29   H     H_    0.977306 0.666686 0.704795 0.117094
H30   H     H_    0.039643 0.569465 0.620662 0.106942
O28   O     O_3   0.957729 0.490494 0.809922 -0.562397
C62   C     C_3   0.833742 0.623982 0.815628 -0.112356
H31   H     H_    0.753813 0.618045 0.849676 0.145698
H32   H     H_    0.786445 0.668196 0.762614 0.076008
H33   H     H_    0.861477 0.699059 0.841233 0.126773
H34   H     H_    0.795000 0.154715 0.692691 0.137537
H35   H     H_    0.517177 0.794924 0.823703 0.107297
H36   H     H_    0.151585 0.516271 0.170080 0.136503

loop_
_geom_bond_atom_site_label_1
_geom_bond_atom_site_label_2
_ccdc_geom_bond_type
C34   O25   A    
C52   O10   A    
C33   C55   S    
C62   H31   S    
C39   O28   S    
C38   H17   S    
C41   C42   A    
C19   C20   A    
Cr5   O8    S    
C28   C29   A    
C31   H14   S    
C53   O6    A    
C32   H15   S    
C52   O9    A    
C26   C27   A    
C54   O14   A    
C18   C24   A    
C56   O4    A    
C36   C37   A    
Cr2   O21   S    
C20   C51   S    
C38   C39   A    
C2    C60   A    
Cr4   O19   S    
C7    H20   S    
C53   O11   A    
C15   C16   A    
C21   H7    S    
C34   O26   A    
C18   C19   A    
C56   O24   A    
C61   H30   S    
C23   O23   A    
Cr2   O5    S    
Cr4   O6    S    
C11   C17   A    
C47   C48   A    
Cr2   O2    S    
C8    C9    A    
C12   C17   S    
C26   H10   S    
C23   C24   S    
C48   H35   S    
Cr6   O18   S    
Cr1   O12   S    
Cr5   O15   S    
C12   O22   A    
Cr3   O22   S    
C57   O13   A    
C59   C60   A    
C13   C14   A    
C55   O16   A    
C49   H22   S    
C19   H6    S    
C1    O20   A    
Cr5   O9    S    
C35   H16   S    
C44   C46   A    
C12   O21   A    
C34   C50   S    
Cr1   O24   S    
Cr6   O11   S    
Cr2   O20   S    
C39   C40   A    
Cr1   O1    S    
C62   H33   S    
C58   C59   A    
C41   H18   S    
Cr3   O3    S    
C31   C37   A    
C25   H9    S    
C35   C36   A    
Cr5   O19   S    
C29   C30   A    
C18   H5    S    
C47   C57   S    
C11   C16   S    
C31   C32   A    
C29   H13   S    
C7    C13   A    
Cr2   O26   S    
C42   H34   S    
Cr6   O17   S    
C28   H11   S    
Cr5   O16   S    
C61   H28   S    
Cr3   O23   S    
C48   C49   A    
C40   C54   S    
C55   O17   A    
O28   C62   S    
C14   H3    S    
C22   C24   A    
C2    C5    S    
C51   O8    A    
C42   C43   A    
C4    C17   A    
C37   C45   S    
C44   H19   S    
C45   O2    A    
O27   C61   S    
Cr4   O14   S    
C46   H21   S    
C60   H25   S    
C44   C50   A    
C25   C30   A    
C15   H4    S    
C46   C47   A    
C9    C58   A    
C62   H32   S    
Cr1   O25   S    
Cr6   O10   S    
C2    C8    A    
C8    H27   S    
C4    C5    A    
C3    C5    A    
C4    H1    S    
C3    C52   S    
C27   C53   S    
Cr4   O13   S    
C6    C7    A    
Cr3   O5    S    
C23   O1    A    
C54   O15   A    
C51   O7    A    
C32   C33   A    
C25   C26   A    
C38   C43   A    
Cr3   O4    S    
C3    C10   A    
Cr1   O5    S    
C57   O18   A    
C6    H26   S    
C1    C30   S    
C33   C35   A    
C9    H12   S    
C36   O27   S    
C58   H23   S    
C10   H36   S    
C61   H29   S    
C10   C11   A    
C6    C16   A    
C43   C56   S    
Cr4   O7    S    
C20   C21   A    
C49   C50   A    
C27   C28   A    
C22   H8    S    
C14   C15   A    
C40   C41   A    
Cr6   O19   S    
C21   C22   A    
C45   O3    A    
C59   H24   S    
C1    O12   A    
C13   H2    S    
