data_mof_unit_8922.cif
_audit_creation_date              2012-12-10T18:35:46-0500
_audit_creation_method            fapswitch 2.2
_symmetry_space_group_name_H-M    P1
_symmetry_Int_Tables_number       1
_space_group_crystal_system       triclinic
_cell_length_a                    13.463426
_cell_length_b                    13.85193
_cell_length_c                    15.087059
_cell_angle_alpha                 89.745712
_cell_angle_beta                  89.490698
_cell_angle_gamma                 72.10295
_cell_volume                      2677.39044548

loop_
_atom_site_label
_atom_site_type_symbol
_atom_type_description
_atom_site_fract_x
_atom_site_fract_y
_atom_site_fract_z
_atom_type_partial_charge
C1    C     C_R   0.502313 0.499086 0.670077 0.787361
C2    C     C_R   0.980187 0.453165 0.491202 0.044549
C3    C     C_R   0.873323 0.476419 0.468336 0.080463
C4    C     C_R   0.032389 0.526814 0.473951 0.087374
C5    C     C_R   0.979057 0.617987 0.429477 0.140426
C6    C     C_R   0.878448 0.633459 0.398474 -0.235947
C7    C     C_R   0.827004 0.563244 0.416422 -0.190924
C8    C     C_R   0.135186 0.513756 0.500788 -0.285311
C9    C     C_R   0.128179 0.680964 0.444427 0.080863
C10   C     C_R   0.815478 0.412133 0.497681 -0.151934
C11   C     C_R   0.557367 0.419953 0.908991 -0.203580
C12   C     C_R   0.700444 0.445626 0.496982 0.789669
C13   C     C_R   0.567289 0.417499 0.816570 0.086882
C14   C     C_R   0.501681 0.498908 0.766752 -0.050280
C15   C     C_R   0.431884 0.581996 0.810226 -0.227777
C16   C     C_R   0.424478 0.583877 0.902109 -0.160669
C17   C     C_R   0.485747 0.502032 0.951312 0.087163
C18   C     C_R   0.562277 0.528128 0.090689 -0.194126
C19   C     C_R   0.568181 0.527466 0.182487 0.131533
C20   C     C_R   0.490383 0.503466 0.233062 -0.074997
C21   C     C_R   0.405463 0.481847 0.191111 0.101463
C22   C     C_R   0.401569 0.481004 0.096952 0.115662
C23   C     C_R   0.497874 0.500828 0.329936 0.827533
C24   C     C_R   0.481288 0.504704 0.048077 -0.020800
C25   C     C_R   0.460346 0.904670 0.428184 -0.301439
C26   C     C_R   0.459582 0.803284 0.430020 0.062036
C27   C     C_R   0.543265 0.777502 0.568833 0.093488
C28   C     C_R   0.544938 0.878605 0.569873 -0.284400
C29   C     C_R   0.502563 0.944672 0.499116 0.135072
C30   C     C_R   0.583894 0.082898 0.537101 -0.282332
C31   C     C_R   0.581568 0.185218 0.536310 0.072776
C32   C     C_R   0.419831 0.232747 0.462549 0.077908
C33   C     C_R   0.419131 0.131388 0.461778 -0.287531
C34   C     C_R   0.299422 0.554826 0.497234 0.790340
C35   C     C_R   0.501909 0.054009 0.499401 0.131846
C36   C     C_R   0.026058 0.693904 0.416560 -0.226505
C37   C     C_R   0.185402 0.586859 0.483373 -0.086974
C38   C     C_R   0.867291 0.318733 0.537321 -0.196692
C39   C     C_R   0.974387 0.290635 0.552381 0.241515
C40   C     C_R   0.029931 0.357826 0.530919 -0.205448
Cu1   Cu    Cu3+1 0.500000 0.403570 0.500010 0.930040
Cu2   Cu    Cu3+1 0.500000 0.596430 0.499990 0.921587
H1    H     H_    0.382247 0.645202 0.772805 0.145499
H2    H     H_    0.371699 0.649290 0.934856 0.128545
H3    H     H_    0.622378 0.545643 0.051314 0.152522
H4    H     H_    0.428291 0.951125 0.371177 0.131879
H5    H     H_    0.426011 0.774643 0.375107 0.119014
H6    H     H_    0.576986 0.728076 0.623602 0.125774
H7    H     H_    0.838528 0.701020 0.360997 0.144296
H8    H     H_    0.577979 0.904996 0.626514 0.127017
H9    H     H_    0.650506 0.026755 0.565756 0.131452
H10   H     H_    0.645577 0.205831 0.564528 0.123902
H11   H     H_    0.355676 0.290515 0.432709 0.121052
H12   H     H_    0.353258 0.114221 0.432812 0.129203
H13   H     H_    0.981925 0.764580 0.385297 0.129569
H14   H     H_    0.178962 0.446493 0.535672 0.154142
H15   H     H_    0.823688 0.268819 0.559140 0.142802
H16   H     H_    0.112197 0.332114 0.544984 0.134740
H17   H     H_    0.750571 0.578342 0.388279 0.173618
H18   H     H_    0.607267 0.358807 0.948463 0.137680
N1    N     N_R   0.500000 0.741310 0.499980 -0.167888
N2    N     N_R   0.500060 0.258650 0.499980 -0.168592
O1    O     O_R   0.499990 0.418570 0.628550 -0.576670
O2    O     O_R   0.499990 0.581440 0.628540 -0.590679
O3    O     O_R   0.650980 0.378820 0.499990 -0.591649
O4    O     O_R   0.650980 0.541690 0.499970 -0.578888
O5    O     O_R   0.500010 0.418560 0.371460 -0.573026
O6    O     O_R   0.500010 0.581430 0.371450 -0.598642
O7    O     O_R   0.349020 0.458310 0.500030 -0.589390
O8    O     O_R   0.349020 0.621180 0.500010 -0.586152
C41   C     C_3   0.169167 0.770821 0.433788 -0.389336
C42   C     C_3   0.165339 0.824960 0.523034 -0.306595
C43   C     C_3   0.183086 0.927791 0.511346 -0.873341
H19   H     H_    0.257788 0.919339 0.476298 0.264640
H20   H     H_    0.118464 0.979529 0.472637 0.250738
H21   H     H_    0.185785 0.961919 0.577376 0.247257
H22   H     H_    0.087546 0.837519 0.554857 0.213692
H23   H     H_    0.225242 0.777674 0.568520 0.234582
H24   H     H_    0.248413 0.748146 0.403874 0.201703
H25   H     H_    0.119963 0.826090 0.385922 0.184145
C44   C     C_3   0.653684 0.331580 0.775478 -0.409886
C45   C     C_3   0.625557 0.232348 0.775907 -0.319696
C46   C     C_3   0.719926 0.142179 0.751315 -0.880380
H26   H     H_    0.755153 0.156106 0.687633 0.243280
H27   H     H_    0.779884 0.128874 0.803905 0.255961
H28   H     H_    0.695406 0.073005 0.744667 0.240060
H29   H     H_    0.597449 0.218139 0.842740 0.213449
H30   H     H_    0.561827 0.238281 0.727915 0.232769
H31   H     H_    0.672292 0.349609 0.706738 0.192845
H32   H     H_    0.726247 0.321414 0.814069 0.195893
C47   C     C_3   0.659787 0.549468 0.225031 -0.873363
H33   H     H_    0.632085 0.620569 0.264040 0.240625
H34   H     H_    0.701068 0.485337 0.268854 0.219544
H35   H     H_    0.716975 0.559497 0.175104 0.227187
C48   C     C_3   0.320752 0.461076 0.248443 -0.865965
H36   H     H_    0.352741 0.387567 0.283389 0.241542
H37   H     H_    0.292012 0.522652 0.297956 0.216757
H38   H     H_    0.251309 0.457426 0.212008 0.232590
C49   C     C_3   0.316922 0.450573 0.048586 -0.391757
C50   C     C_3   0.216893 0.540634 0.039120 -0.343849
C51   C     C_3   0.129279 0.507346 0.998608 -0.854270
H39   H     H_    0.152872 0.473913 0.931968 0.256103
H40   H     H_    0.110017 0.450459 0.041963 0.252371
H41   H     H_    0.058448 0.574017 0.991638 0.241282
H42   H     H_    0.190297 0.576219 0.104450 0.223691
H43   H     H_    0.232335 0.599370 0.995756 0.214424
H44   H     H_    0.343720 0.420606 0.981484 0.199250
H45   H     H_    0.300901 0.385867 0.083044 0.196622
C52   C     C_3   0.030051 0.190374 0.594375 -0.909016
H46   H     H_    0.977062 0.143774 0.605650 0.231312
H47   H     H_    0.095001 0.147701 0.550365 0.236367
H48   H     H_    0.062586 0.203035 0.659108 0.235757

loop_
_geom_bond_atom_site_label_1
_geom_bond_atom_site_label_2
_ccdc_geom_bond_type
C27   H6    S    
C30   H9    S    
C1    O2    A    
C51   H39   S    
C34   C37   S    
Cu1   Cu2   S    
C19   C20   A    
C3    C10   A    
C31   H10   S    
C4    C8    A    
C8    H14   S    
C41   H24   S    
C44   C45   S    
C48   H38   S    
Cu1   O5    S    
C49   H45   S    
C50   H42   S    
C30   C35   A    
C18   C24   A    
C28   C29   A    
C26   N1    A    
C3    C7    A    
C52   H47   S    
C5    C6    A    
C15   C16   A    
C5    C36   A    
C13   C44   S    
Cu2   O8    S    
C18   C19   A    
C43   H19   S    
C23   O5    A    
C42   H23   S    
C27   N1    A    
C28   H8    S    
C49   C50   S    
C16   C17   A    
C9    C36   A    
C34   O8    A    
C44   H31   S    
C51   H40   S    
C21   C22   A    
Cu2   O6    S    
C43   H20   S    
C31   N2    A    
Cu1   N2    S    
C1    O1    A    
C7    H17   S    
C41   H25   S    
C25   C29   A    
C38   C39   A    
C17   C24   S    
C40   H16   S    
C52   H48   S    
C39   C40   A    
C42   C43   S    
Cu1   O3    S    
C21   C48   S    
C25   C26   A    
C12   O4    A    
C23   O6    A    
C2    C4    A    
C42   H22   S    
C47   H34   S    
C38   H15   S    
C46   H26   S    
C34   O7    A    
C20   C23   S    
C9    C37   A    
Cu2   N1    S    
C10   C12   S    
C26   H5    S    
C44   H32   S    
C46   H27   S    
C51   H41   S    
C43   H21   S    
C22   C24   A    
C8    C37   A    
Cu1   O1    S    
C11   H18   S    
C18   H3    S    
Cu2   O2    S    
C32   H11   S    
C47   H33   S    
Cu1   O7    S    
C33   H12   S    
C16   H2    S    
C11   C17   A    
C22   C49   S    
C9    C41   S    
C4    C5    A    
C48   H37   S    
C6    C7    A    
C49   H44   S    
C12   O3    A    
C29   C35   S    
C50   H43   S    
C10   C38   A    
C32   C33   A    
C2    C3    A    
C15   H1    S    
C41   C42   S    
C36   H13   S    
C52   H46   S    
C47   H35   S    
C11   C13   A    
C30   C31   A    
C45   H30   S    
C50   C51   S    
C33   C35   A    
C6    H7    S    
C19   C47   S    
C32   N2    A    
C2    C40   A    
C39   C52   S    
C46   H28   S    
C20   C21   A    
C45   C46   S    
C48   H36   S    
Cu2   O4    S    
C14   C15   A    
C1    C14   S    
C13   C14   A    
C25   H4    S    
C45   H29   S    
C27   C28   A    
