data_mof_unit_25118.cif
_audit_creation_date              2013-03-05T16:35:26-0500
_audit_creation_method            fapswitch 2.2
_symmetry_space_group_name_H-M    P1
_symmetry_Int_Tables_number       1
_space_group_crystal_system       triclinic
_cell_length_a                    9.133174
_cell_length_b                    7.851185
_cell_length_c                    10.713699
_cell_angle_alpha                 88.847837
_cell_angle_beta                  91.014386
_cell_angle_gamma                 89.60822
_cell_volume                      767.943476939

loop_
_atom_site_label
_atom_site_type_symbol
_atom_site_description
_atom_site_fract_x
_atom_site_fract_y
_atom_site_fract_z
_atom_type_partial_charge
O1    O     O_R   0.288390 0.642760 0.500000 -0.582017
O2    O     O_R   0.711610 0.357240 0.500000 -0.587078
O3    O     O_R   0.711610 0.642760 0.500000 -0.563614
O4    O     O_R   0.288390 0.357240 0.500000 -0.562893
C1    C     C_R   0.220212 0.500354 0.499978 0.821326
C2    C     C_R   0.779785 0.499647 0.499973 0.829098
O5    O     O_R   0.499960 0.642760 0.316850 -0.554025
O6    O     O_R   0.500040 0.357240 0.683150 -0.552493
O7    O     O_R   0.500040 0.642760 0.683150 -0.551925
O8    O     O_R   0.499960 0.357240 0.316850 -0.562033
C3    C     C_R   0.492143 0.501886 0.259522 0.893373
C4    C     C_R   0.512024 0.497952 0.740071 0.884369
Cu1   Cu    Cu3+1 0.500000 0.669080 0.500000 1.105543
Cu2   Cu    Cu3+1 0.500000 0.330920 0.500000 1.098973
C5    C     C_3   0.460258 0.654606 0.031278 0.278059
C6    C     C_3   0.546797 0.344203 0.967274 0.272380
C7    C     C_3   0.600363 0.613406 0.961435 0.238405
C8    C     C_3   0.405999 0.384939 0.037592 0.257136
C9    C     C_3   0.373065 0.534875 0.946013 -0.088515
C10   C     C_3   0.634467 0.462941 0.053485 -0.084471
C11   C     C_3   0.514865 0.493736 0.875704 -0.309208
C12   C     C_3   0.492172 0.505342 0.123865 -0.295903
C13   C     C_1   0.065341 0.500482 0.499981 -0.130545
C14   C     C_1   0.934651 0.499525 0.499986 -0.131478
N1    N     N_1   0.500000 0.076820 0.500000 0.000175
N2    N     N_1   0.500000 0.923180 0.500000 0.003242
C15   C     C_3   0.227528 0.574489 0.877911 -0.339777
C16   C     C_3   0.108419 0.626139 0.967117 -0.637604
H1    H     H_    0.102994 0.534664 0.047073 0.245391
H2    H     H_    0.127674 0.755355 0.003368 0.304274
H3    H     H_    0.002793 0.628514 0.914854 0.262112
H4    H     H_    0.243064 0.679433 0.808484 0.236820
H5    H     H_    0.192211 0.460115 0.826335 0.219758
C17   C     C_3   0.789945 0.438486 0.108735 -0.368467
C18   C     C_3   0.817404 0.272425 0.182418 -0.625729
H6    H     H_    0.720093 0.230817 0.234313 0.273607
H7    H     H_    0.851402 0.170303 0.118697 0.306426
H8    H     H_    0.908995 0.290286 0.250369 0.225361
H9    H     H_    0.866366 0.440797 0.030000 0.229511
H10   H     H_    0.814594 0.547387 0.170176 0.221229
N3    N     N_R   0.405045 0.824892 0.053394 0.183678
O9    O     O_R   0.367706 0.920404 0.957428 -0.273363
O10   O     O_R   0.369211 0.871067 0.164623 -0.289444
N4    N     N_R   0.598453 0.174194 0.940442 0.191894
O11   O     O_R   0.615968 0.066708 0.032972 -0.273452
O12   O     O_R   0.654814 0.140505 0.833091 -0.281509
N5    N     N_R   0.711353 0.736222 0.923894 0.171131
O13   O     O_R   0.793049 0.806626 0.008732 -0.332155
O14   O     O_R   0.743951 0.757213 0.807016 -0.322712
N6    N     N_R   0.293046 0.263878 0.074149 0.180700
O15   O     O_R   0.207087 0.201024 0.988997 -0.301776
O16   O     O_R   0.259911 0.242744 0.190882 -0.331788

loop_
_geom_bond_atom_site_label_1
_geom_bond_atom_site_label_2
_geom_bond_distance
_ccdc_geom_bond_type
N6    O16   1.299604 A    
C13   C14   1.193691 T    
C5    C9    1.539913 S    
C6    C11   1.537753 S    
C9    C15   1.531916 S    
N3    O9    1.299538 A    
C6    N4    1.448606 S    
C3    C12   1.453101 S    
C18   H6    1.104493 S    
C1    C13   1.414461 S    
C6    C10   1.543358 S    
O6    C4    1.277009 A    
O3    C2    1.280878 A    
C2    C14   1.414404 S    
C7    C10   1.549963 S    
C16   H2    1.107630 S    
N6    O15   1.300072 A    
N1    N2    1.206257 T    
C10   C17   1.538055 S    
N5    O14   1.299750 A    
Cu1   Cu2   2.654958 S    
C15   H5    1.110559 S    
O5    C3    1.277687 A    
N3    O10   1.299300 A    
C5    N3    1.451073 S    
O2    C2    1.283465 A    
C17   H10   1.111326 S    
C16   H1    1.108744 S    
C18   H7    1.109700 S    
C10   C12   1.551514 S    
C17   C18   1.527427 S    
C16   H3    1.106671 S    
Cu2   N1    1.994985 S    
O4    Cu2   1.942282 S    
O2    Cu2   1.945090 S    
O7    C4    1.282382 A    
O1    C1    1.283475 A    
Cu1   N2    1.994985 S    
O1    Cu1   1.945092 S    
O8    C3    1.281134 A    
C17   H9    1.104287 S    
C7    N5    1.459901 S    
O5    Cu1   1.977188 S    
C18   H8    1.110661 S    
N4    O11   1.295919 A    
C8    N6    1.460746 S    
C6    C8    1.536823 S    
C8    C9    1.541792 S    
O8    Cu2   1.968923 S    
C15   C16   1.519086 S    
C5    C7    1.529677 S    
O7    Cu1   1.968921 S    
O6    Cu2   1.977186 S    
C9    C11   1.545185 S    
C15   H4    1.110384 S    
C8    C12   1.544965 S    
C4    C11   1.452613 S    
C5    C12   1.542919 S    
C7    C11   1.534756 S    
N5    O13   1.300098 A    
N4    O12   1.299633 A    
O4    C1    1.280878 A    
O3    Cu1   1.942280 S    
