data_mof_unit_27806.cif
_audit_creation_date              2012-12-11T14:58:41-0500
_audit_creation_method            fapswitch 2.2
_symmetry_space_group_name_H-M    P1
_symmetry_Int_Tables_number       1
_space_group_crystal_system       triclinic
_cell_length_a                    11.058337
_cell_length_b                    11.093398
_cell_length_c                    18.644641
_cell_angle_alpha                 91.083905
_cell_angle_beta                  91.217101
_cell_angle_gamma                 58.834748
_cell_volume                      1956.60121224

loop_
_atom_site_label
_atom_site_type_symbol
_atom_type_description
_atom_site_fract_x
_atom_site_fract_y
_atom_site_fract_z
_atom_type_partial_charge
C1    C     C_R   0.389493 0.703056 0.390012 0.552463
C2    C     C_R   0.199370 0.375043 0.218063 -0.160238
C3    C     C_R   0.207389 0.396198 0.292144 -0.063682
C4    C     C_R   0.380300 0.347565 0.391541 0.528385
C5    C     C_R   0.936099 0.636510 0.463208 0.118042
C6    C     C_R   0.994262 0.491564 0.458077 -0.069385
C7    C     C_R   0.063670 0.418496 0.396253 -0.119685
C8    C     C_R   0.085743 0.487038 0.339564 0.005719
C9    C     C_R   0.332418 0.304050 0.327182 -0.002789
C10   C     C_R   0.807866 0.257480 0.285183 -0.109091
C11   C     C_R   0.810029 0.261242 0.210768 0.260404
C12   C     C_R   0.590040 0.045560 0.199980 0.043367
C13   C     C_R   0.842433 0.353934 0.179414 0.026275
C14   C     C_R   0.833418 0.466410 0.218706 -0.188773
C15   C     C_R   0.813362 0.472846 0.291201 -0.147162
C16   C     C_R   0.770462 0.382703 0.400813 0.538307
C17   C     C_R   0.808840 0.363706 0.325864 -0.020126
C18   C     C_R   0.479572 0.769917 0.285403 -0.144263
C19   C     C_R   0.464503 0.811332 0.214415 -0.188271
C20   C     C_R   0.370635 0.800357 0.167902 0.014706
C21   C     C_R   0.310249 0.721797 0.191049 0.276844
C22   C     C_R   0.319240 0.687479 0.263645 -0.105961
C23   C     C_R   0.318712 0.263714 0.181087 -0.056330
C24   C     C_R   0.395105 0.721588 0.312307 -0.033106
C25   C     C_R   0.374258 0.201047 0.691136 -0.154589
C26   C     C_R   0.362131 0.187385 0.763476 -0.175827
C27   C     C_R   0.295578 0.307516 0.808305 0.046223
C28   C     C_R   0.343265 0.772949 0.603350 0.577490
C29   C     C_R   0.227598 0.442728 0.779371 0.251655
C30   C     C_R   0.243050 0.455439 0.706646 -0.106249
C31   C     C_R   0.320033 0.334917 0.663218 -0.010715
C32   C     C_R   0.772069 0.469865 0.730794 -0.141709
C33   C     C_R   0.770019 0.465491 0.804077 -0.135184
C34   C     C_R   0.417293 0.168437 0.298198 0.242039
C35   C     C_R   0.802632 0.340183 0.838014 0.031801
C36   C     C_R   0.804302 0.231511 0.797727 -0.135557
C37   C     C_R   0.789097 0.243515 0.723289 -0.100491
C38   C     C_R   0.782634 0.358714 0.689281 0.042314
C39   C     C_R   0.184127 0.889988 0.705314 0.263781
C40   C     C_R   0.368360 0.350769 0.594874 0.538431
C41   C     C_R   0.172583 0.900676 0.779673 -0.090610
C42   C     C_R   0.293459 0.853137 0.823347 0.010672
C43   C     C_R   0.425483 0.801690 0.792881 -0.164129
C44   C     C_R   0.437614 0.792938 0.719349 -0.192616
C45   C     C_R   0.437557 0.156155 0.223287 -0.019353
C46   C     C_R   0.318936 0.830408 0.675503 0.042080
C47   C     C_R   0.909002 0.318953 0.110604 0.544324
C48   C     C_R   0.303216 0.254600 0.102138 0.563070
C49   C     C_R   0.311814 0.891300 0.103483 0.540837
C50   C     C_R   0.875949 0.312979 0.906991 0.534313
C51   C     C_R   0.292349 0.284961 0.883910 0.591156
C52   C     C_R   0.755596 0.381297 0.612608 0.558114
C53   C     C_R   0.274336 0.895387 0.897693 0.547817
C54   C     C_R   0.877722 0.834348 0.172345 -0.076627
C55   C     C_R   0.843329 0.918807 0.233116 -0.052817
C56   C     C_R   0.028932 0.633133 0.345316 -0.092450
C57   C     C_R   0.702310 0.019612 0.247518 -0.000278
C58   C     C_3   0.414529 0.039915 0.393071 -0.082772
C59   C     C_3   0.666179 0.246884 0.126626 -0.087176
C60   C     C_3   0.309982 0.591294 0.095516 -0.094685
C61   C     C_3   0.017632 0.631561 0.812961 -0.116260
C62   C     C_3   0.983329 0.891868 0.669566 -0.089820
C63   C     C_R   0.955753 0.707903 0.407429 0.106253
C64   C     C_R   0.632263 0.959483 0.137152 -0.117180
C65   C     C_R   0.772274 0.855270 0.124104 -0.141471
Cr1   Cr    Cr6+3 0.601770 0.606860 0.505860 1.020689
Cr2   Cr    Cr6+3 0.291380 0.601660 0.495070 1.041833
Cr3   Cr    Cr6+3 0.606880 0.291510 0.499120 1.066015
Cr4   Cr    Cr6+3 0.062440 0.063090 0.008210 1.054517
Cr5   Cr    Cr6+3 0.062880 0.375170 0.998920 0.999960
Cr6   Cr    Cr6+3 0.374700 0.061720 0.992470 0.968694
H1    H     H_    0.983525 0.435043 0.501799 0.149869
H2    H     H_    0.433247 0.107457 0.658085 0.147753
H3    H     H_    0.408423 0.082074 0.784748 0.151176
H4    H     H_    0.205952 0.559145 0.685924 0.138364
H5    H     H_    0.763286 0.562283 0.706991 0.139122
H6    H     H_    0.760631 0.554710 0.833826 0.115933
H7    H     H_    0.823867 0.135900 0.823058 0.114470
H8    H     H_    0.783992 0.163091 0.692417 0.148950
H9    H     H_    0.068760 0.954590 0.803135 0.131091
H10   H     H_    0.518193 0.772578 0.825947 0.124140
H11   H     H_    0.541103 0.751546 0.696884 0.148990
H12   H     H_    0.109412 0.305379 0.394573 0.100455
H13   H     H_    0.985369 0.752540 0.162598 0.175345
H14   H     H_    0.926678 0.909747 0.267881 0.136922
H15   H     H_    0.681289 0.080956 0.295881 0.170987
H16   H     H_    0.051719 0.685668 0.304748 0.107973
H17   H     H_    0.561508 0.957410 0.099834 0.190253
H18   H     H_    0.102670 0.446200 0.189464 0.153888
H19   H     H_    0.483199 0.945356 0.425558 0.185746
H20   H     H_    0.331137 0.026856 0.366210 0.122492
H21   H     H_    0.365741 0.129336 0.431702 0.117669
H22   H     H_    0.658654 0.174477 0.087662 0.177171
H23   H     H_    0.800704 0.176601 0.311547 0.140547
H24   H     H_    0.665323 0.330259 0.094128 0.087199
H25   H     H_    0.571946 0.294893 0.161369 0.107202
H26   H     H_    0.369966 0.487370 0.121796 0.112813
H27   H     H_    0.383132 0.614717 0.067311 0.100919
H28   H     H_    0.239783 0.585477 0.054043 0.178354
H29   H     H_    0.967952 0.726997 0.847736 0.133305
H30   H     H_    0.975770 0.564048 0.828733 0.146639
H31   H     H_    0.986158 0.666474 0.756603 0.094561
H32   H     H_    0.938617 0.909489 0.724159 0.075316
H33   H     H_    0.044256 0.778129 0.656121 0.153251
H34   H     H_    0.847584 0.546113 0.194367 0.141917
H35   H     H_    0.893043 0.941944 0.631209 0.178788
H36   H     H_    0.802673 0.563552 0.319835 0.164674
H37   H     H_    0.550681 0.784785 0.319926 0.177487
H38   H     H_    0.517812 0.861404 0.198429 0.145494
H39   H     H_    0.798410 0.788613 0.076797 0.107134
H40   H     H_    0.266620 0.635085 0.282025 0.127769
I1    I     I_    0.818695 0.739481 0.556353 -0.414327
I2    I     I_    0.897296 0.921403 0.422357 -0.323511
O1    O     O_R   0.748800 0.497470 0.428000 -0.525834
O2    O     O_R   0.417600 0.174890 0.067840 -0.557669
O3    O     O_R   0.375320 0.946260 0.070860 -0.563290
O4    O     O_R   0.476420 0.724060 0.429470 -0.518063
O5    O     O_R   0.160600 0.919630 0.926660 -0.515371
O6    O     O_R   0.933060 0.190520 0.936020 -0.508744
O7    O     O_R   0.908880 0.403460 0.925020 -0.536824
O8    O     O_R   0.179600 0.361450 0.918490 -0.467957
O9    O     O_R   0.391510 0.170860 0.907530 -0.536098
O10   O     O_R   0.351130 0.942530 0.922260 -0.515047
O11   O     O_3   0.166667 0.166667 0.999870 -0.274872
O12   O     O_R   0.300070 0.471040 0.567100 -0.512069
O13   O     O_R   0.264580 0.744340 0.416750 -0.484194
O14   O     O_R   0.309380 0.472470 0.418200 -0.517525
O15   O     O_R   0.501710 0.260430 0.414300 -0.474432
O16   O     O_R   0.728090 0.305600 0.428960 -0.485639
O17   O     O_R   0.738760 0.495930 0.588610 -0.511880
O18   O     O_R   0.467110 0.722640 0.578360 -0.505376
O19   O     O_R   0.254530 0.742800 0.577360 -0.472136
O20   O     O_3   0.499796 0.053501 0.342273 -0.573760
O21   O     O_3   0.790294 0.168877 0.168885 -0.552666
O22   O     O_3   0.225239 0.695791 0.146127 -0.581158
O23   O     O_R   0.491670 0.258900 0.574910 -0.508753
O24   O     O_3   0.165364 0.560807 0.823392 -0.562065
O25   O     O_3   0.065311 0.954241 0.661038 -0.556360
O26   O     O_R   0.718780 0.304180 0.577850 -0.486575
O27   O     O_3   0.500010 0.500010 0.500020 -0.288197
O28   O     O_R   0.186690 0.923650 0.086970 -0.440233
O29   O     O_R   0.957250 0.194250 0.084630 -0.445454
O30   O     O_R   0.934970 0.407490 0.085330 -0.558249
O31   O     O_R   0.203780 0.365190 0.067090 -0.508962

loop_
_geom_bond_atom_site_label_1
_geom_bond_atom_site_label_2
_ccdc_geom_bond_type
C25   C31   A    
C7    H12   S    
C23   C45   A    
C27   C29   A    
C41   C42   A    
Cr6   O9    S    
C35   C36   A    
C60   H28   S    
C33   H6    S    
C8    C56   A    
C41   H9    S    
C54   H13   S    
C7    C8    A    
C39   C41   A    
C54   C65   A    
C31   C40   S    
C6    H1    S    
C37   H8    S    
C47   O29   A    
C28   C46   S    
Cr5   O30   S    
C29   C30   A    
C50   O7    A    
Cr6   O10   S    
C36   C37   A    
C37   C38   A    
C62   H32   S    
C44   H11   S    
Cr2   O12   S    
C42   C53   S    
C30   C31   A    
C12   C64   A    
C38   C52   S    
C10   H23   S    
C10   C17   A    
Cr4   O28   S    
C47   O30   A    
Cr4   O5    S    
C52   O26   A    
C57   H15   S    
C48   O31   A    
C18   C19   A    
C15   H36   S    
C33   C35   A    
C14   H34   S    
Cr2   O19   S    
Cr5   O7    S    
C16   C17   S    
Cr1   O4    S    
C49   O28   A    
C18   C24   A    
C32   C38   A    
C58   H20   S    
Cr3   O15   S    
C39   O25   S    
C13   C14   A    
C59   H24   S    
C44   C46   A    
C62   H33   S    
C19   H38   S    
C58   O20   S    
C4    O15   A    
C50   O6    A    
Cr6   O11   S    
Cr3   O23   S    
C1    O13   A    
C3    C8    S    
C53   O10   A    
C11   O21   S    
C13   C47   S    
C53   O5    A    
C56   H16   S    
C34   O20   S    
Cr4   O29   S    
Cr4   O6    S    
C28   O19   A    
C55   H14   S    
C2    H18   S    
C61   H30   S    
C43   C44   A    
C20   C49   S    
C3    C9    A    
Cr2   O14   S    
C5    C63   A    
C40   O23   A    
C35   C50   S    
C26   C27   A    
C56   C63   A    
Cr6   O2    S    
C34   C45   A    
C1    O4    A    
C62   O25   S    
C16   O16   A    
C58   H19   S    
C60   O22   S    
C48   O2    A    
C12   C57   A    
Cr1   O27   S    
C60   H26   S    
C39   C46   A    
C9    C34   A    
C51   O8    A    
C22   C24   A    
Cr2   O13   S    
C61   H29   S    
C42   C43   A    
Cr1   O18   S    
C15   C17   A    
Cr2   O27   S    
C54   C55   A    
C23   C48   S    
Cr1   O1    S    
C4    O14   A    
Cr5   O31   S    
C12   C45   S    
C16   O1    A    
C32   H5    S    
C6    C7    A    
C62   H35   S    
C5    I1    S    
C29   O24   S    
C59   O21   S    
C60   H27   S    
Cr4   O11   S    
C28   O18   A    
C52   O17   A    
C64   C65   A    
C19   C20   A    
C55   C57   A    
C2    C3    A    
C25   C26   A    
C36   H7    S    
C32   C33   A    
C27   C51   S    
C11   C13   A    
Cr5   O8    S    
C61   O24   S    
C5    C6    A    
C43   H10   S    
C40   O12   A    
C26   H3    S    
C64   H17   S    
Cr6   O3    S    
C61   H31   S    
C25   H2    S    
Cr3   O16   S    
C18   H37   S    
C65   H39   S    
Cr3   O27   S    
C10   C11   A    
C63   I2    S    
Cr5   O11   S    
C49   O3    A    
C30   H4    S    
C20   C21   A    
C1    C24   S    
C22   H40   S    
C59   H25   S    
C2    C23   A    
C51   O9    A    
C14   C15   A    
Cr3   O26   S    
C59   H22   S    
C4    C9    S    
C21   C22   A    
C58   H21   S    
C21   O22   S    
Cr1   O17   S    
