data_mof_unit_61263.cif
_audit_creation_date              2012-12-10T18:39:31-0500
_audit_creation_method            fapswitch 2.2
_symmetry_space_group_name_H-M    P1
_symmetry_Int_Tables_number       1
_space_group_crystal_system       triclinic
_cell_length_a                    15.80557
_cell_length_b                    11.572949
_cell_length_c                    10.786099
_cell_angle_alpha                 90.002214
_cell_angle_beta                  89.884302
_cell_angle_gamma                 90.000524
_cell_volume                      1972.95744565

loop_
_atom_site_label
_atom_site_type_symbol
_atom_type_description
_atom_site_fract_x
_atom_site_fract_y
_atom_site_fract_z
_atom_type_partial_charge
C1    C     C_R   0.499998 0.281183 0.499998 0.901702
C2    C     C_R   0.337872 0.499980 0.500129 0.909598
C3    C     C_R   0.662129 0.499988 0.499843 0.906451
C4    C     C_1   0.499994 0.059161 0.499997 0.000420
C5    C     C_1   0.499996 0.161055 0.499995 -0.190918
C6    C     C_1   0.500000 0.500010 0.069781 0.032905
C7    C     C_1   0.500000 0.500010 0.930219 0.035289
C8    C     C_R   0.499999 0.718818 0.500002 0.912873
C9    C     C_3   0.051262 0.408885 0.612705 0.139692
C10   C     C_3   0.050221 0.436700 0.368170 0.163400
C11   C     C_3   0.949082 0.410116 0.610573 0.179603
C12   C     C_1   0.750526 0.497046 0.499115 -0.195184
C13   C     C_3   0.948307 0.433101 0.366453 0.162842
C14   C     C_1   0.499995 0.940843 0.500002 0.002872
C15   C     C_1   0.499996 0.838948 0.500005 -0.184481
C16   C     C_1   0.249481 0.497004 0.500454 -0.207058
C17   C     C_3   0.082808 0.490167 0.500357 0.120280
C18   C     C_3   0.917104 0.490116 0.494905 0.106859
C19   C     C_3   0.950097 0.623287 0.501802 0.142671
C20   C     C_3   0.050743 0.621489 0.522944 0.155313
C21   C     C_1   0.825446 0.493760 0.497332 0.009276
C22   C     C_1   0.174546 0.493688 0.500587 -0.022205
H1    H     H_    0.028712 0.644105 0.716733 0.181080
H2    H     H_    0.850921 0.288577 0.582449 0.198549
H3    H     H_    0.935401 0.278819 0.268527 0.192163
H4    H     H_    0.850155 0.313672 0.351945 0.178556
H5    H     H_    0.066649 0.239222 0.672946 0.191802
H6    H     H_    0.150863 0.290914 0.598015 0.181405
H7    H     H_    0.057266 0.252374 0.390954 0.222360
H8    H     H_    0.151219 0.317740 0.359639 0.190143
H9    H     H_    0.146702 0.512857 0.266280 0.188865
H10   H     H_    0.067589 0.467378 0.180299 0.198197
H11   H     H_    0.065500 0.393367 0.803981 0.172158
H12   H     H_    0.085795 0.747760 0.654584 0.183744
H13   H     H_    0.150601 0.448147 0.733516 0.206462
H14   H     H_    0.928376 0.452792 0.175702 0.173412
H15   H     H_    0.848069 0.499254 0.261676 0.199442
H16   H     H_    0.905394 0.385512 0.792109 0.199400
H17   H     H_    0.948091 0.513501 0.775400 0.172012
H18   H     H_    0.069630 0.787471 0.449863 0.165672
H19   H     H_    0.101450 0.685966 0.348510 0.199190
H20   H     H_    0.888415 0.648105 0.679538 0.199485
H21   H     H_    0.934630 0.768630 0.617635 0.168442
H22   H     H_    0.924977 0.774086 0.399666 0.181341
H23   H     H_    0.971044 0.673552 0.314052 0.212036
H24   H     H_    0.947728 0.233640 0.542412 0.221223
N1    N     N_1   0.500000 0.500010 0.180630 -0.080260
N2    N     N_3   0.086057 0.320285 0.343900 -0.479082
N3    N     N_3   0.080630 0.508480 0.264481 -0.474618
N4    N     N_3   0.084462 0.449612 0.733210 -0.470543
N5    N     N_3   0.914125 0.496386 0.258057 -0.452019
N6    N     N_3   0.912075 0.453141 0.728340 -0.462883
N7    N     N_1   0.500000 0.500010 0.819370 -0.079607
N8    N     N_3   0.074501 0.658755 0.649950 -0.423074
N9    N     N_3   0.096095 0.704953 0.441743 -0.458290
N10   N     N_3   0.904584 0.690129 0.598433 -0.458752
N11   N     N_3   0.927781 0.684665 0.385634 -0.424166
N12   N     N_3   0.915783 0.290318 0.600907 -0.471303
N13   N     N_3   0.916314 0.313852 0.353558 -0.505430
N14   N     N_3   0.084715 0.290494 0.597460 -0.502239
O1    O     O_R   0.500000 0.334450 0.602530 -0.610196
O2    O     O_R   0.500000 0.334450 0.397470 -0.610291
O3    O     O_R   0.377140 0.500000 0.602580 -0.610894
O4    O     O_R   0.377140 0.500000 0.397420 -0.613251
O5    O     O_R   0.622860 0.500000 0.602580 -0.605327
O6    O     O_R   0.622860 0.500000 0.397420 -0.614919
O7    O     O_R   0.500000 0.665550 0.602530 -0.607529
O8    O     O_R   0.500000 0.665550 0.397470 -0.607619
Zn1   Zn    Zn3+2 0.500000 0.500000 0.636920 0.983920
Zn2   Zn    Zn3+2 0.500000 0.500000 0.363080 0.979033

loop_
_geom_bond_atom_site_label_1
_geom_bond_atom_site_label_2
_ccdc_geom_bond_type
C19   N10   S    
H3    N13   S    
C11   C18   S    
H12   N8    S    
C6    C7    S    
C13   N13   S    
O4    Zn2   S    
C11   N12   S    
C2    C16   S    
H4    N13   S    
C11   N6    S    
C17   C22   S    
H22   N11   S    
C9    N14   S    
N7    Zn1   S    
C1    O2    A    
H18   N9    S    
H13   N4    S    
H17   N6    S    
N1    Zn2   S    
O6    Zn2   S    
H24   N12   S    
C4    C14   S    
H1    N8    S    
C9    C11   S    
C20   N8    S    
H23   N11   S    
C3    O5    A    
H14   N5    S    
C13   C18   S    
H9    N3    S    
C20   N9    S    
C1    C5    S    
H8    N2    S    
C2    O4    A    
C8    O8    A    
C8    C15   S    
H5    N14   S    
H6    N14   S    
C10   N2    S    
H15   N5    S    
O5    Zn1   S    
H10   N3    S    
C3    O6    A    
H16   N6    S    
C6    N1    T    
C7    N7    T    
H7    N2    S    
O1    Zn1   S    
C18   C21   S    
O3    Zn1   S    
H21   N10   S    
C17   C20   S    
C2    O3    A    
O2    Zn2   S    
C8    O7    A    
H2    N12   S    
C18   C19   S    
C9    C17   S    
O8    Zn2   S    
C14   C15   T    
H19   N9    S    
C16   C22   T    
C3    C12   S    
C10   C17   S    
H20   N10   S    
H11   N4    S    
C13   N5    S    
C10   N3    S    
C12   C21   T    
C19   N11   S    
C9    N4    S    
C19   C20   S    
C4    C5    T    
O7    Zn1   S    
C10   C13   S    
C1    O1    A    
