data_mof_unit_61633.cif
_audit_creation_date              2012-12-10T16:57:04-0500
_audit_creation_method            fapswitch 2.2
_symmetry_space_group_name_H-M    P1
_symmetry_Int_Tables_number       1
_space_group_crystal_system       triclinic
_cell_length_a                    20.880111
_cell_length_b                    15.963177
_cell_length_c                    13.099183
_cell_angle_alpha                 90.069971
_cell_angle_beta                  90.622747
_cell_angle_gamma                 90.048747
_cell_volume                      4365.86399494

loop_
_atom_site_label
_atom_site_type_symbol
_atom_type_description
_atom_site_fract_x
_atom_site_fract_y
_atom_site_fract_z
_atom_type_partial_charge
C1    C     C_R   0.621307 0.840340 0.468128 0.818584
C2    C     C_2   0.997088 0.453382 0.944995 0.374200
C3    C     C_R   0.379620 0.160134 0.531389 0.795062
C4    C     C_R   0.379655 0.839790 0.531410 0.801389
C5    C     C_R   0.879604 0.660124 0.531376 0.794973
C6    C     C_R   0.879655 0.339790 0.531410 0.801380
C7    C     C_R   0.529801 0.997570 0.772582 0.843802
C8    C     C_R   0.029801 0.497570 0.772582 0.843743
C9    C     C_R   0.471137 0.999934 0.227339 0.780541
C10   C     C_R   0.971137 0.499933 0.227340 0.780558
C11   C     C_2   0.331193 0.775735 0.546276 0.270434
C12   C     C_R   0.621317 0.159629 0.468194 0.821586
C13   C     C_2   0.331172 0.224155 0.546342 0.268533
C14   C     C_2   0.831193 0.275736 0.546279 0.270408
C15   C     C_2   0.831129 0.724121 0.546342 0.268383
C16   C     C_2   0.284709 0.766451 0.476009 -0.254955
C17   C     C_2   0.284349 0.232836 0.476549 -0.245258
C18   C     C_2   0.784709 0.266450 0.476014 -0.254914
C19   C     C_2   0.784456 0.733059 0.476348 -0.245485
C20   C     C_2   0.672641 0.221378 0.449054 -0.053629
C21   C     C_2   0.672541 0.778533 0.448881 -0.056978
C22   C     C_2   0.172639 0.721383 0.449062 -0.053626
C23   C     C_R   0.121298 0.340329 0.468145 0.818567
C24   C     C_2   0.172487 0.278451 0.448984 -0.057002
C25   C     C_2   0.730684 0.209024 0.492004 -0.052419
C26   C     C_2   0.730488 0.790543 0.492424 -0.055976
C27   C     C_2   0.230686 0.709019 0.491992 -0.052395
C28   C     C_2   0.230429 0.290405 0.492562 -0.056122
C29   C     C_2   0.465734 0.000198 0.115579 0.241437
C30   C     C_2   0.965734 0.500197 0.115579 0.241434
C31   C     C_R   0.121317 0.659630 0.468195 0.821568
C32   C     C_2   0.504801 0.952953 0.056704 0.001828
C33   C     C_2   0.004802 0.452954 0.056704 0.001820
C34   C     C_2   0.540214 0.991571 0.883788 0.153850
C35   C     C_2   0.040214 0.491572 0.883788 0.153838
C36   C     C_2   0.497088 0.953381 0.944995 0.374204
Cl1   Cl    Cl    0.330202 0.723917 0.665320 -0.481418
Cl2   Cl    Cl    0.910619 0.571334 0.060330 -0.473434
Cl3   Cl    Cl    0.330894 0.277092 0.664824 -0.505352
Cl4   Cl    Cl    0.830197 0.223930 0.665328 -0.481530
Cl5   Cl    Cl    0.830510 0.776548 0.665127 -0.505199
Cl6   Cl    Cl    0.430234 0.896806 0.897149 -0.458771
Cl7   Cl    Cl    0.930235 0.396805 0.897150 -0.458759
Cl8   Cl    Cl    0.610134 0.038437 0.935246 -0.503509
Cl9   Cl    Cl    0.110134 0.538439 0.935245 -0.503521
Cl10  Cl    Cl    0.410621 0.071336 0.060329 -0.473483
H1    H     H_    0.738566 0.155654 0.541920 0.215916
H2    H     H_    0.662014 0.346286 0.431206 0.203256
H3    H     H_    0.615842 0.710337 0.349653 0.224131
H4    H     H_    0.661421 0.653768 0.429776 0.204485
H5    H     H_    0.115706 0.790363 0.351327 0.230794
H6    H     H_    0.162030 0.846298 0.431266 0.203199
H7    H     H_    0.115759 0.210275 0.349752 0.224157
H8    H     H_    0.161250 0.153685 0.430005 0.204389
H9    H     H_    0.583628 0.937431 0.147517 0.201936
H10   H     H_    0.533595 0.853108 0.141916 0.227250
H11   H     H_    0.083629 0.437437 0.147516 0.201953
H12   H     H_    0.738323 0.843727 0.542831 0.216228
H13   H     H_    0.033599 0.353111 0.141917 0.227239
H14   H     H_    0.238575 0.655637 0.541885 0.215934
H15   H     H_    0.238291 0.343623 0.542902 0.216305
H16   H     H_    0.285112 0.805288 0.407826 0.165732
H17   H     H_    0.284482 0.193507 0.408662 0.167495
H18   H     H_    0.785115 0.305280 0.407826 0.165739
H19   H     H_    0.784721 0.693978 0.408265 0.167738
H20   H     H_    0.615730 0.290315 0.351242 0.230828
N1    N     N_3   0.661352 0.293092 0.384535 -0.425818
N2    N     N_3   0.661264 0.707145 0.383577 -0.429073
N3    N     N_3   0.161341 0.793115 0.384577 -0.425821
N4    N     N_3   0.161166 0.207034 0.383742 -0.429083
N5    N     N_3   0.554514 0.901038 0.099450 -0.406390
N6    N     N_3   0.054516 0.401042 0.099451 -0.406415
O1    O     O_3   0.500000 0.000000 0.500000 -0.514004
O2    O     O_R   0.880760 0.402800 0.590320 -0.590897
O3    O     O_R   0.577210 0.000000 0.711160 -0.591282
O4    O     O_R   0.077210 0.500000 0.711160 -0.591305
O5    O     O_R   0.475030 0.069050 0.275760 -0.595251
O6    O     O_R   0.475030 0.930950 0.275760 -0.664344
O7    O     O_R   0.975030 0.569050 0.275760 -0.595257
O8    O     O_R   0.975030 0.430950 0.275760 -0.664332
O9    O     O_R   0.632300 0.097230 0.527310 -0.636543
O10   O     O_R   0.632300 0.902770 0.527310 -0.638684
O11   O     O_R   0.132300 0.597230 0.527310 -0.636506
O12   O     O_3   0.000000 0.500000 0.500000 -0.514000
O13   O     O_R   0.132300 0.402770 0.527310 -0.638673
O14   O     O_R   0.419940 0.833680 0.459580 -0.644269
O15   O     O_R   0.419940 0.166320 0.459580 -0.639020
O16   O     O_R   0.919940 0.333680 0.459580 -0.644312
O17   O     O_R   0.919940 0.666320 0.459580 -0.639193
O18   O     O_R   0.472710 0.000000 0.737340 -0.590721
O19   O     O_R   0.972710 0.500000 0.737340 -0.590698
O20   O     O_R   0.566980 0.833700 0.422750 -0.644724
O21   O     O_R   0.566980 0.166300 0.422750 -0.636491
O22   O     O_R   0.066980 0.333700 0.422750 -0.644767
O23   O     O_R   0.066980 0.666300 0.422750 -0.636510
O24   O     O_R   0.380760 0.097200 0.590320 -0.602339
O25   O     O_R   0.380760 0.902800 0.590320 -0.590940
O26   O     O_R   0.880760 0.597200 0.590320 -0.602055
Zn1   Zn    Zn3+2 0.434690 0.000000 0.602700 1.096685
Zn2   Zn    Zn3+2 0.934690 0.500000 0.602700 1.096788
Zn3   Zn    Zn3+2 0.584000 0.000000 0.565300 1.046511
Zn4   Zn    Zn3+2 0.084000 0.500000 0.565300 1.046506
Zn5   Zn    Zn3+2 0.490640 0.098690 0.416020 1.028652
Zn6   Zn    Zn3+2 0.490640 0.901310 0.416020 0.991492
Zn7   Zn    Zn3+2 0.990640 0.598690 0.416020 1.028545
Zn8   Zn    Zn3+2 0.990640 0.401310 0.416020 0.991445

loop_
_geom_bond_atom_site_label_1
_geom_bond_atom_site_label_2
_ccdc_geom_bond_type
C2    C35   D    
C21   C26   D    
C1    C21   S    
O11   Zn4   S    
O12   Zn4   S    
C14   C18   D    
C20   N1    S    
C36   Cl6   S    
O14   Zn6   S    
O21   Zn5   S    
C24   N4    S    
O9    Zn3   S    
C15   C19   D    
O7    Zn7   S    
C32   C36   S    
H3    N2    S    
C29   C32   D    
C27   H14   S    
C4    O14   A    
C20   C25   D    
O24   Zn1   S    
O8    Zn8   S    
C8    O4    A    
C31   O11   A    
C30   Cl2   S    
C11   Cl1   S    
C19   C26   S    
H6    N3    S    
O23   Zn7   S    
C33   N6    S    
O1    Zn6   S    
O12   Zn8   S    
C23   C24   S    
C3    O24   A    
O19   Zn2   S    
C25   H1    S    
C22   N3    S    
C3    C13   S    
C9    C29   S    
H13   N6    S    
C28   H15   S    
C16   C27   S    
O1    Zn3   S    
H20   N1    S    
H2    N1    S    
C4    O25   A    
C18   C25   S    
C16   H16   S    
H7    N4    S    
O25   Zn1   S    
C6    O2    A    
C32   N5    S    
O4    Zn4   S    
C5    C15   S    
C22   C31   S    
C3    O15   A    
O12   Zn2   S    
C34   Cl8   S    
C15   Cl5   S    
C10   O8    A    
C7    O3    A    
C1    O10   A    
C7    O18   A    
O6    Zn6   S    
C8    C35   S    
C6    C14   S    
O16   Zn8   S    
C11   C16   D    
C10   C30   S    
H8    N4    S    
C2    Cl7   S    
H10   N5    S    
C12   C20   S    
O12   Zn7   S    
C8    O19   A    
C9    O5    A    
C4    C11   S    
C26   H12   S    
O15   Zn5   S    
C2    C33   S    
C1    O20   A    
O26   Zn2   S    
C22   C27   D    
C21   N2    S    
C7    C34   S    
C12   O21   A    
O5    Zn5   S    
C35   Cl9   S    
O18   Zn1   S    
O1    Zn1   S    
O22   Zn8   S    
C30   C33   D    
C17   C28   S    
C24   C28   D    
O2    Zn2   S    
C10   O7    A    
C23   O22   A    
C13   C17   D    
C29   Cl10  S    
C6    O16   A    
C17   H17   S    
C18   H18   S    
C31   O23   A    
O10   Zn3   S    
C12   O9    A    
C19   H19   S    
C34   C36   D    
C9    O6    A    
H11   N6    S    
C5    O17   A    
C13   Cl3   S    
O20   Zn6   S    
C14   Cl4   S    
O1    Zn5   S    
C5    O26   A    
C23   O13   A    
O17   Zn7   S    
O3    Zn3   S    
H5    N3    S    
H4    N2    S    
H9    N5    S    
O13   Zn4   S    
