data_mof_unit_68067.cif
_audit_creation_date              2012-12-11T14:39:39-0500
_audit_creation_method            fapswitch 2.2
_symmetry_space_group_name_H-M    P1
_symmetry_Int_Tables_number       1
_space_group_crystal_system       triclinic
_cell_length_a                    7.348622
_cell_length_b                    14.247133
_cell_length_c                    16.175885
_cell_angle_alpha                 90.000089
_cell_angle_beta                  97.89163
_cell_angle_gamma                 90.000231
_cell_volume                      1677.52447711

loop_
_atom_site_label
_atom_site_type_symbol
_atom_type_description
_atom_site_fract_x
_atom_site_fract_y
_atom_site_fract_z
_atom_type_partial_charge
O1    O     O_R   0.525340 0.338340 0.164530 -0.575418
O2    O     O_R   0.474660 0.661660 0.835470 -0.568795
O3    O     O_R   0.974660 0.838340 0.835470 -0.575421
O4    O     O_R   0.025340 0.161660 0.164530 -0.568797
O5    O     O_R   0.253520 0.352000 0.336710 -0.517231
O6    O     O_R   0.746480 0.648000 0.663290 -0.531016
O7    O     O_R   0.246480 0.852000 0.663290 -0.517223
O8    O     O_R   0.753520 0.148000 0.336710 -0.531012
O9    O     O_R   0.083330 0.168380 0.337300 -0.499069
O10   O     O_R   0.916670 0.831620 0.662700 -0.522268
O11   O     O_R   0.416670 0.668380 0.662700 -0.499066
O12   O     O_R   0.583330 0.331620 0.337300 -0.522263
C1    C     C_R   0.431948 0.369692 0.362373 0.985222
C2    C     C_R   0.566878 0.632448 0.635789 0.965035
C3    C     C_R   0.068052 0.869691 0.637626 0.985228
C4    C     C_R   0.933121 0.132448 0.364211 0.965035
O13   O     O_R   0.195840 0.349670 0.165140 -0.509339
O14   O     O_R   0.804160 0.650330 0.834860 -0.514253
O15   O     O_R   0.304160 0.849670 0.834860 -0.509332
O16   O     O_R   0.695840 0.150330 0.165140 -0.514253
C5    C     C_R   0.356440 0.369819 0.136478 0.697279
C6    C     C_R   0.643386 0.629840 0.863310 0.698051
C7    C     C_R   0.143560 0.869819 0.863523 0.697280
C8    C     C_R   0.856615 0.129839 0.136691 0.698052
O17   O     O_3   0.387830 0.193120 0.250910 -0.382280
O18   O     O_3   0.612170 0.806880 0.749090 -0.393590
O19   O     O_3   0.112170 0.693120 0.749090 -0.382281
O20   O     O_3   0.887830 0.306880 0.250910 -0.393590
V1    V     V_3+5 0.113010 0.264540 0.250910 1.567318
V2    V     V_3+5 0.886990 0.735460 0.749090 1.533166
V3    V     V_3+5 0.386990 0.764540 0.749090 1.567329
V4    V     V_3+5 0.613010 0.235460 0.250910 1.533176
C9    C     C_R   0.064974 0.197591 0.533177 0.561723
C10   C     C_R   0.959754 0.805798 0.468955 0.548598
C11   C     C_R   0.435023 0.697591 0.466824 0.561724
C12   C     C_R   0.540245 0.305799 0.531044 0.548599
C13   C     C_R   0.113062 0.232498 0.615154 -0.057532
C14   C     C_R   0.886787 0.772692 0.389848 -0.053640
C15   C     C_R   0.386934 0.732498 0.384847 -0.057528
C16   C     C_R   0.613208 0.272694 0.610152 -0.053635
C17   C     C_R   0.146861 0.168230 0.682538 -0.078976
C18   C     C_R   0.859454 0.835163 0.321391 -0.046363
C19   C     C_R   0.353138 0.668230 0.317463 -0.078973
C20   C     C_R   0.640534 0.335165 0.678609 -0.046367
C21   C     C_R   0.112495 0.071569 0.666570 0.497178
C22   C     C_R   0.903261 0.931010 0.336007 0.488080
C23   C     C_R   0.387512 0.571570 0.333429 0.497176
C24   C     C_R   0.596728 0.431012 0.663993 0.488079
C25   C     C_R   0.062353 0.035841 0.584112 -0.148092
C26   C     C_R   0.951511 0.967243 0.418415 -0.140080
C27   C     C_R   0.437648 0.535842 0.415887 -0.148092
C28   C     C_R   0.548484 0.467244 0.581584 -0.140079
C29   C     C_R   0.036971 0.099755 0.516320 -0.155453
C30   C     C_R   0.982072 0.903404 0.485914 -0.154145
C31   C     C_R   0.463027 0.599755 0.483679 -0.155457
C32   C     C_R   0.517926 0.403405 0.514085 -0.154146
C33   C     C_R   0.035003 0.937731 0.568435 -0.103279
C34   C     C_R   0.974398 0.065395 0.434039 -0.088944
C35   C     C_R   0.464998 0.437732 0.431564 -0.103276
C36   C     C_R   0.525599 0.565396 0.565961 -0.088942
H1    H     H_    0.137097 0.053779 0.067390 0.179147
H2    H     H_    0.864044 0.948629 0.931073 0.176830
H3    H     H_    0.362905 0.553773 0.932607 0.179142
H4    H     H_    0.635957 0.448636 0.068932 0.176831
C37   C     C_2   0.152287 0.935057 0.935884 0.422275
C38   C     C_2   0.848634 0.063653 0.064958 0.418690
C39   C     C_2   0.347714 0.435058 0.064117 0.422296
C40   C     C_2   0.651368 0.563657 0.935045 0.418696
C41   C     C_2   0.997993 0.968243 0.963384 -0.224621
C42   C     C_2   0.003125 0.032207 0.036420 -0.206616
C43   C     C_2   0.502008 0.468247 0.036619 -0.224623
C44   C     C_2   0.496877 0.532208 0.963581 -0.206640
C45   C     C_3   0.779072 0.796444 0.235584 -0.370780
C46   C     C_3   0.763210 0.861387 0.159360 -0.204344
C47   C     C_3   0.658612 0.813860 0.082252 -0.720005
H5    H     H_    0.701022 0.739659 0.076613 0.204549
H6    H     H_    0.509556 0.815587 0.086346 0.244494
H7    H     H_    0.682849 0.852006 0.025013 0.272592
H8    H     H_    0.684756 0.925558 0.171008 0.267351
H9    H     H_    0.903307 0.880156 0.146413 0.222489
H10   H     H_    0.854306 0.732797 0.220975 0.174914
H11   H     H_    0.641125 0.771747 0.241034 0.169459
C48   C     C_3   0.227475 0.206109 0.769449 -0.379647
C49   C     C_3   0.270110 0.136909 0.842185 -0.177680
C50   C     C_3   0.357882 0.186656 0.921459 -0.748238
H12   H     H_    0.488653 0.219805 0.910989 0.227898
H13   H     H_    0.265636 0.241510 0.940735 0.203736
H14   H     H_    0.386074 0.135532 0.973242 0.307196
H15   H     H_    0.139493 0.105170 0.855624 0.236149
H16   H     H_    0.366554 0.081717 0.826448 0.252060
H17   H     H_    0.354645 0.243647 0.761799 0.177831
H18   H     H_    0.139389 0.260398 0.791252 0.170702
C51   C     C_3   0.720907 0.296447 0.764417 -0.370769
C52   C     C_3   0.736767 0.361393 0.840639 -0.204360
C53   C     C_3   0.841350 0.313865 0.917750 -0.720038
H19   H     H_    0.798919 0.239667 0.923393 0.204565
H20   H     H_    0.990406 0.315582 0.913657 0.244497
H21   H     H_    0.817122 0.352017 0.974987 0.272594
H22   H     H_    0.815229 0.425560 0.828992 0.267346
H23   H     H_    0.596669 0.380165 0.853583 0.222485
H24   H     H_    0.645669 0.232801 0.779025 0.174919
H25   H     H_    0.858854 0.271749 0.758970 0.169454
C54   C     C_3   0.272514 0.706108 0.230553 -0.379649
C55   C     C_3   0.229911 0.636910 0.157813 -0.177715
C56   C     C_3   0.142099 0.686651 0.078545 -0.748176
H26   H     H_    0.011249 0.719717 0.089005 0.227927
H27   H     H_    0.234245 0.741569 0.059300 0.203727
H28   H     H_    0.114045 0.635541 0.026745 0.307145
H29   H     H_    0.360546 0.605193 0.144371 0.236125
H30   H     H_    0.133500 0.581700 0.173549 0.252091
H31   H     H_    0.145331 0.743632 0.238203 0.177837
H32   H     H_    0.360581 0.760409 0.208753 0.170693
F1    F     F_    0.043950 0.260030 0.469757 -0.716453
F2    F     F_    0.005006 0.740053 0.529103 -0.710269
F3    F     F_    0.456045 0.760030 0.530244 -0.716452
F4    F     F_    0.494997 0.240054 0.470896 -0.710269
C57   C     C_3   0.124938 0.338030 0.634767 -0.304017
C58   C     C_3   0.050098 0.408373 0.566733 -0.300105
C59   C     C_3   0.045333 0.507058 0.602854 -0.692335
H33   H     H_    0.960579 0.508126 0.654502 0.236723
H34   H     H_    0.186067 0.530349 0.627458 0.251189
H35   H     H_    0.985285 0.556618 0.553798 0.254698
H36   H     H_    0.138790 0.410242 0.516577 0.257188
H37   H     H_    0.908166 0.388409 0.540385 0.222194
H38   H     H_    0.045372 0.351602 0.686674 0.168486
H39   H     H_    0.268798 0.356154 0.657466 0.179877
C60   C     C_3   0.821019 0.671563 0.383560 -0.304919
C61   C     C_3   0.965648 0.601043 0.366840 -0.355746
C62   C     C_3   0.886598 0.502151 0.362248 -0.673696
H40   H     H_    0.829113 0.484996 0.420163 0.218321
H41   H     H_    0.777242 0.495514 0.307895 0.243237
H42   H     H_    0.996417 0.451396 0.355080 0.256049
H43   H     H_    0.010236 0.616580 0.305981 0.208123
H44   H     H_    0.082517 0.604483 0.417802 0.231806
H45   H     H_    0.773521 0.651606 0.442981 0.209906
H46   H     H_    0.703854 0.663301 0.334380 0.170521
C63   C     C_3   0.375055 0.838031 0.365235 -0.304016
C64   C     C_3   0.449896 0.908374 0.433269 -0.300104
C65   C     C_3   0.454662 0.007059 0.397149 -0.692338
H47   H     H_    0.539416 0.008127 0.345501 0.236725
H48   H     H_    0.313928 0.030350 0.372545 0.251186
H49   H     H_    0.514711 0.056619 0.446205 0.254698
H50   H     H_    0.361205 0.910243 0.483426 0.257189
H51   H     H_    0.591828 0.888410 0.459617 0.222193
H52   H     H_    0.454621 0.851605 0.313328 0.168485
H53   H     H_    0.231195 0.856153 0.342536 0.179875
C66   C     C_3   0.678979 0.171566 0.616440 -0.304924
C67   C     C_3   0.534352 0.101045 0.633161 -0.355740
C68   C     C_3   0.613404 0.002154 0.637755 -0.673697
H54   H     H_    0.670887 0.984996 0.579841 0.218320
H55   H     H_    0.722763 0.995520 0.692108 0.243228
H56   H     H_    0.503587 0.951399 0.644927 0.256054
H57   H     H_    0.489762 0.116584 0.694020 0.208123
H58   H     H_    0.417484 0.104482 0.582199 0.231803
H59   H     H_    0.726477 0.151608 0.557020 0.209908
H60   H     H_    0.796146 0.163305 0.665620 0.170517
F5    F     F_    0.119870 0.012738 0.732318 -0.764380
F6    F     F_    0.910514 0.987874 0.269729 -0.762087
F7    F     F_    0.380157 0.512741 0.267681 -0.764385
F8    F     F_    0.589469 0.487876 0.730270 -0.762088
F9    F     F_    0.680931 0.036528 0.026314 -0.662589
F10   F     F_    0.320342 0.959041 0.976329 -0.660052
F11   F     F_    0.819071 0.536541 0.973693 -0.662571
F12   F     F_    0.179659 0.459038 0.023669 -0.660048

loop_
_geom_bond_atom_site_label_1
_geom_bond_atom_site_label_2
_ccdc_geom_bond_type
H1    C42   S    
C15   C63   S    
O1    C5    A    
C51   C52   S    
C57   C58   S    
O13   V1    S    
C45   C46   S    
C56   H26   S    
O3    C7    A    
C53   H19   S    
O15   V3    S    
C61   C62   S    
C14   C60   S    
C4    C34   S    
C53   H21   S    
C23   F7    S    
C50   H12   S    
C48   H18   S    
C56   H27   S    
C26   C30   A    
C67   H58   S    
C63   H52   S    
O20   V1    S    
O9    C4    A    
C60   H45   S    
C14   C18   A    
O10   C3    A    
C68   H55   S    
C55   H29   S    
O4    C8    A    
C65   H49   S    
C25   C29   A    
C50   H14   S    
C22   F6    S    
C25   C33   A    
C54   H31   S    
C18   C22   A    
H4    C43   S    
C58   C59   S    
C20   C51   S    
C28   C36   A    
C66   C67   S    
C39   F12   S    
O16   C8    A    
C37   F10   S    
O2    C6    A    
C11   F3    S    
O14   V2    S    
C52   H23   S    
C66   H59   S    
C57   H39   S    
C40   F11   S    
C16   C20   A    
O5    C1    A    
O4    V1    S    
C8    C38   S    
C58   H36   S    
C62   H42   S    
O17   V4    S    
O7    C3    A    
O11   V3    S    
O18   V3    S    
O8    C4    A    
C46   H9    S    
C31   C36   A    
C5    C39   S    
O19   V2    S    
C3    C33   S    
C52   C53   S    
C49   H16   S    
C45   H10   S    
C55   C56   S    
O5    V1    S    
C50   H13   S    
C9    C29   A    
C56   H28   S    
O7    V3    S    
C46   C47   S    
C11   C31   A    
O8    V4    S    
C63   H53   S    
C12   C16   A    
C21   F5    S    
C49   C50   S    
C68   H56   S    
C51   H24   S    
O15   C7    A    
C15   C19   A    
C27   C31   A    
O1    V4    S    
O13   C5    A    
H2    C41   S    
O2    V3    S    
C26   C34   A    
O3    V2    S    
C11   C15   A    
C47   H5    S    
C12   C32   A    
C61   H44   S    
O6    C2    A    
C24   F8    S    
O10   V2    S    
C48   C49   S    
C21   C25   A    
C40   C44   D    
C58   H37   S    
C60   H46   S    
C59   H33   S    
C66   H60   S    
C47   H6    S    
C6    C40   S    
C59   H34   S    
O6    V2    S    
C10   C30   A    
C46   H8    S    
C27   C35   A    
C67   H57   S    
C60   C61   S    
C12   F4    S    
C45   H11   S    
C48   H17   S    
C65   H47   S    
C9    C13   A    
C62   H40   S    
O16   V4    S    
C59   H35   S    
C18   C45   S    
C16   C66   S    
C10   C14   A    
C51   H25   S    
C23   C27   A    
C29   C34   A    
C53   H20   S    
C1    C35   S    
O9    V1    S    
C10   F2    S    
C2    C36   S    
C63   C64   S    
C22   C26   A    
C9    F1    S    
C32   C35   A    
C64   H50   S    
C7    C37   S    
O14   C6    A    
C43   C44   S    
C64   H51   S    
C61   H43   S    
C55   H30   S    
C65   H48   S    
C38   C42   D    
C57   H38   S    
C52   H22   S    
C37   C41   D    
O11   C2    A    
C39   C43   D    
C67   C68   S    
C13   C17   A    
C41   C42   S    
C47   H7    S    
C19   C54   S    
C64   C65   S    
C28   C32   A    
C24   C28   A    
C13   C57   S    
H3    C44   S    
C38   F9    S    
C49   H15   S    
C54   C55   S    
C17   C21   A    
C54   H32   S    
O12   C1    A    
C68   H54   S    
C19   C23   A    
O12   V4    S    
C20   C24   A    
C62   H41   S    
C30   C33   A    
C17   C48   S    
