data_mof_unit_54855.cif
_audit_creation_date              2012-12-10T19:06:29-0500
_audit_creation_method            fapswitch 2.2
_symmetry_space_group_name_H-M    P1
_symmetry_Int_Tables_number       1
_space_group_crystal_system       triclinic
_cell_length_a                    23.522453
_cell_length_b                    10.858814
_cell_length_c                    9.630571
_cell_angle_alpha                 89.747994
_cell_angle_beta                  89.749268
_cell_angle_gamma                 90.367857
_cell_volume                      2459.7993176

loop_
_atom_site_label
_atom_site_type_symbol
_atom_type_description
_atom_site_fract_x
_atom_site_fract_y
_atom_site_fract_z
_atom_type_partial_charge
C1    C     C_R   0.499891 0.263016 0.500021 0.768730
C2    C     C_R   0.119751 0.627415 0.477062 0.664200
C3    C     C_R   0.242056 0.571038 0.384969 0.684956
C4    C     C_R   0.391178 0.500285 0.500080 0.859094
C5    C     C_R   0.301231 0.567512 0.390703 -0.351118
C6    C     C_R   0.328726 0.504853 0.498937 -0.221091
C7    C     C_R   0.296134 0.442776 0.600538 0.470997
C8    C     C_R   0.236831 0.456307 0.600926 -0.298099
C9    C     C_R   0.209358 0.517173 0.491678 0.144978
C10   C     C_R   0.761006 0.432725 0.411581 -0.249258
C11   C     C_R   0.701882 0.423370 0.417358 0.413177
C12   C     C_R   0.969406 0.297510 0.530528 -0.247717
C13   C     C_R   0.670853 0.506090 0.499697 -0.340858
C14   C     C_R   0.699782 0.591052 0.583508 0.413419
C15   C     C_R   0.759241 0.591973 0.587886 0.399167
C16   C     C_R   0.499419 0.737084 0.499705 0.813987
C17   C     C_R   0.790210 0.515355 0.497619 0.074239
C18   C     C_R   0.501642 0.061844 0.619962 -0.024602
C19   C     C_R   0.498771 0.130375 0.498493 -0.091680
C20   C     C_R   0.494308 0.065161 0.372295 -0.220197
C21   C     C_R   0.494223 0.935985 0.372304 -0.215024
C22   C     C_R   0.497715 0.869924 0.498249 -0.068863
C23   C     C_R   0.028479 0.295562 0.521685 0.646998
C24   C     C_R   0.500135 0.937760 0.619781 0.029883
C25   C     C_3   0.506683 0.926981 0.772796 0.213805
C26   C     C_3   0.509957 0.069066 0.773160 0.383647
C27   C     C_R   0.549571 0.492761 0.072478 0.029801
C28   C     C_R   0.608634 0.502760 0.499791 0.913152
C29   C     C_R   0.450934 0.483924 0.073720 0.378999
C30   C     C_R   0.450795 0.493088 0.926904 0.621626
C31   C     C_R   0.549520 0.490120 0.926144 -0.113689
C32   C     C_3   0.600883 0.570718 0.917485 0.391565
C33   C     C_3   0.600709 0.574583 0.075948 0.811692
C34   C     C_R   0.059342 0.405883 0.500939 -0.138384
C35   C     C_R   0.879884 0.625312 0.467025 0.640232
C36   C     C_R   0.880256 0.410525 0.521738 0.564303
C37   C     C_R   0.939641 0.408115 0.513984 -0.087058
C38   C     C_R   0.969707 0.518679 0.489549 -0.075210
C39   C     C_R   0.939879 0.629663 0.468172 -0.128156
C40   C     C_3   0.664329 0.231470 0.434663 0.069646
C41   C     C_3   0.645065 0.121122 0.350996 -0.752940
C42   C     C_3   0.792800 0.613374 0.806612 0.091038
C43   C     C_3   0.823582 0.699763 0.905315 -0.723468
C44   C     C_3   0.466099 0.848488 0.972804 0.112601
C45   C     C_R   0.029758 0.517886 0.487053 -0.092286
C46   C     C_3   0.410087 0.810996 0.040888 -0.716171
C47   C     C_3   0.390863 0.326624 0.126571 0.136939
C48   C     C_3   0.338426 0.288979 0.209887 -0.741810
C49   C     C_3   0.638292 0.765714 0.132891 0.183185
C50   C     C_3   0.622035 0.898402 0.103950 -0.836060
C51   C     C_3   0.947274 0.889582 0.291485 0.103198
C52   C     C_3   0.911489 0.004285 0.270438 -0.672050
C53   C     C_3   0.300888 0.243612 0.679322 0.004587
C54   C     C_3   0.345406 0.151788 0.725617 -0.590418
C55   C     C_R   0.060129 0.629128 0.471979 -0.078197
C56   C     C_R   0.030436 0.739619 0.454041 -0.221150
C57   C     C_R   0.970908 0.740516 0.447096 0.444902
C58   C     C_R   0.119047 0.407934 0.494568 0.593835
Cu1   Cu    Cu3+1 0.500000 0.499980 0.640670 1.087002
Cu2   Cu    Cu3+1 0.500000 0.500020 0.359330 1.023530
F1    F     F_    0.670553 0.674394 0.659711 -0.608628
F2    F     F_    0.464756 0.124122 0.840311 -0.661713
F3    F     F_    0.054962 0.185617 0.537005 -0.606520
F4    F     F_    0.399720 0.492284 0.863684 -0.605063
F5    F     F_    0.588885 0.682768 0.856291 -0.633305
F6    F     F_    0.647018 0.516358 0.135418 -0.688803
F7    F     F_    0.216694 0.625077 0.274264 -0.619894
H1    H     H_    0.947043 0.211481 0.549218 0.215593
H2    H     H_    0.784441 0.371926 0.343628 0.203450
H3    H     H_    0.630022 0.254583 0.509853 0.109332
H4    H     H_    0.703238 0.204422 0.493010 0.160717
H5    H     H_    0.680544 0.090618 0.283438 0.248219
H6    H     H_    0.632634 0.044407 0.421764 0.212842
H7    H     H_    0.608111 0.146312 0.285635 0.256514
H8    H     H_    0.818223 0.527502 0.797136 0.140054
H9    H     H_    0.750401 0.590742 0.852541 0.160976
H10   H     H_    0.798821 0.785698 0.918654 0.257556
H11   H     H_    0.828494 0.654561 0.008208 0.197852
H12   H     H_    0.491841 0.113026 0.273680 0.165827
H13   H     H_    0.866370 0.723171 0.863251 0.252341
H14   H     H_    0.484119 0.928210 0.030642 0.145287
H15   H     H_    0.495646 0.769175 0.979477 0.188935
H16   H     H_    0.389854 0.735186 0.981496 0.281717
H17   H     H_    0.417631 0.778547 0.148677 0.198868
H18   H     H_    0.380854 0.890877 0.043560 0.252650
H19   H     H_    0.427642 0.272918 0.166222 0.137158
H20   H     H_    0.383247 0.301610 0.016398 0.192879
H21   H     H_    0.301598 0.346591 0.179738 0.273605
H22   H     H_    0.327996 0.190852 0.189445 0.205265
H23   H     H_    0.492144 0.888450 0.274203 0.170404
H24   H     H_    0.346595 0.299511 0.322543 0.225013
H25   H     H_    0.670518 0.739073 0.053140 0.166803
H26   H     H_    0.658345 0.759773 0.236994 0.173355
H27   H     H_    0.592928 0.931870 0.186155 0.244034
H28   H     H_    0.660854 0.956816 0.100246 0.216134
H29   H     H_    0.600468 0.905416 0.002265 0.256592
H30   H     H_    0.930894 0.816605 0.220677 0.138481
H31   H     H_    0.992026 0.912544 0.262920 0.149898
H32   H     H_    0.913877 0.034209 0.160147 0.191126
H33   H     H_    0.866417 0.984370 0.297691 0.266687
H34   H     H_    0.546759 0.879689 0.800629 0.125395
H35   H     H_    0.927510 0.080000 0.337050 0.249296
H36   H     H_    0.290007 0.221125 0.569411 0.150204
H37   H     H_    0.262392 0.231108 0.745404 0.183162
H38   H     H_    0.355345 0.165465 0.836918 0.267833
H39   H     H_    0.329187 0.056426 0.711425 0.208158
H40   H     H_    0.384529 0.164234 0.662114 0.264998
H41   H     H_    0.552214 0.106948 0.802479 0.032777
H42   H     H_    0.638330 0.523467 0.872097 0.097490
H43   H     H_    0.053237 0.826225 0.444007 0.216656
H44   H     H_    0.325660 0.612299 0.309059 0.227399
H45   H     H_    0.211780 0.414191 0.683126 0.192104
N1    N     N_R   0.851469 0.517514 0.496391 -0.433414
N2    N     N_R   0.148108 0.517774 0.486445 -0.446432
N3    N     N_R   0.500360 0.500930 0.147930 -0.252539
N4    N     N_R   0.500360 0.500890 0.852020 -0.215287
O1    O     O_R   0.500000 0.319640 0.618810 -0.558681
O2    O     O_R   0.582120 0.500020 0.618760 -0.562383
O3    O     O_R   0.582120 0.500060 0.381180 -0.505322
O4    O     O_2   0.850037 0.727122 0.434998 -0.466813
O5    O     O_3   0.675048 0.331357 0.343405 -0.506712
O6    O     O_3   0.787042 0.671852 0.676279 -0.504805
O7    O     O_3   0.456132 0.879749 0.832893 -0.506691
O8    O     O_3   0.400409 0.454893 0.139378 -0.536653
O9    O     O_3   0.588613 0.691616 0.132008 -0.592766
O10   O     O_3   0.943329 0.851880 0.431785 -0.523941
O11   O     O_3   0.322490 0.364947 0.694503 -0.510441
O12   O     O_2   0.851420 0.306571 0.555140 -0.551878
O13   O     O_2   0.147979 0.301020 0.495731 -0.466254
O14   O     O_2   0.149072 0.734633 0.474439 -0.477819
O15   O     O_R   0.500010 0.319680 0.381230 -0.596665
O16   O     O_R   0.417880 0.499940 0.618820 -0.469241
O17   O     O_R   0.417880 0.499980 0.381240 -0.549969
O18   O     O_R   0.499990 0.680320 0.618770 -0.518945
O19   O     O_R   0.500000 0.680360 0.381190 -0.581619

loop_
_geom_bond_atom_site_label_1
_geom_bond_atom_site_label_2
_ccdc_geom_bond_type
C51   H30   S    
C55   C56   A    
C15   O6    S    
C30   F4    S    
C11   C13   A    
C19   C20   A    
C18   C26   S    
C16   O18   A    
C17   N1    S    
C7    C8    A    
C4    O16   A    
C36   O12   S    
C53   C54   S    
C27   C33   S    
C43   H11   S    
C40   O5    S    
C12   H1    S    
C12   C23   A    
C52   H35   S    
C42   H8    S    
C29   C30   A    
C40   H3    S    
C54   H40   S    
C18   C24   A    
C9    N2    S    
C36   C37   A    
C40   H4    S    
C44   H15   S    
C2    C55   A    
C8    H45   S    
C38   C39   A    
C50   H28   S    
C10   C17   A    
C39   C57   A    
C29   O8    S    
C56   C57   A    
Cu2   O3    S    
C18   C19   A    
C12   C37   A    
C38   C45   A    
C53   O11   S    
C44   O7    S    
C41   H7    S    
C31   C32   S    
Cu1   N4    S    
C48   H24   S    
C48   H21   S    
C13   C28   S    
C20   H12   S    
C46   H18   S    
C51   H31   S    
C23   F3    S    
C29   N3    A    
Cu1   Cu2   S    
Cu1   O1    S    
C21   C22   A    
C35   O4    S    
C11   O5    S    
C36   N1    A    
Cu2   O15   S    
C56   H43   S    
C44   C46   S    
C33   F6    S    
C21   H23   S    
Cu1   O16   S    
C1    C19   S    
C32   H42   S    
C54   H39   S    
C27   C31   A    
C51   C52   S    
C47   H19   S    
C24   C25   S    
C4    C6    S    
C44   H14   S    
C26   H41   S    
C57   O10   S    
C50   H27   S    
C30   N4    A    
C5    H44   S    
C3    C5    A    
C25   C26   S    
C14   F1    S    
C52   H33   S    
C47   H20   S    
C35   C39   A    
C37   C38   A    
C3    C9    A    
C47   C48   S    
C23   C34   A    
C33   O9    S    
C8    C9    A    
C34   C45   A    
C1    O1    A    
C25   O7    S    
Cu2   O19   S    
C41   H5    S    
C46   H17   S    
C40   C41   S    
Cu1   O2    S    
C48   H22   S    
C22   C24   A    
C42   C43   S    
C49   H25   S    
C31   N4    A    
C42   O6    S    
C58   N2    A    
C15   C17   A    
C16   C22   S    
Cu1   O18   S    
C54   H38   S    
C51   O10   S    
C58   O13   S    
C3    F7    S    
C1    O15   A    
C28   O3    A    
C6    C7    A    
C43   H10   S    
C49   O9    S    
C52   H32   S    
C42   H9    S    
C50   H29   S    
C49   H26   S    
C32   C33   S    
C43   H13   S    
C28   O2    A    
C2    N2    A    
C25   H34   S    
C47   O8    S    
C5    C6    A    
C53   H36   S    
C2    O14   S    
C35   N1    A    
C26   F2    S    
C10   C11   A    
C41   H6    S    
C46   H16   S    
C10   H2    S    
C20   C21   A    
C45   C55   A    
C49   C50   S    
C34   C58   A    
C14   C15   A    
C32   F5    S    
Cu2   N3    S    
C53   H37   S    
C7    O11   S    
C13   C14   A    
C16   O19   A    
Cu2   O17   S    
C4    O17   A    
C27   N3    A    
