data_mof_unit_39434.cif
_audit_creation_date              2012-12-10T17:31:10-0500
_audit_creation_method            fapswitch 2.2
_symmetry_space_group_name_H-M    P1
_symmetry_Int_Tables_number       1
_space_group_crystal_system       triclinic
_cell_length_a                    11.981254
_cell_length_b                    12.906272
_cell_length_c                    15.418014
_cell_angle_alpha                 87.232294
_cell_angle_beta                  115.268734
_cell_angle_gamma                 92.769968
_cell_volume                      2152.48503404

loop_
_atom_site_label
_atom_site_type_symbol
_atom_type_description
_atom_site_fract_x
_atom_site_fract_y
_atom_site_fract_z
_atom_type_partial_charge
C1    C     C_R   0.480953 0.299508 0.504793 0.936241
C2    C     C_R   0.524186 0.700059 0.506718 0.940148
C3    C     C_R   0.631493 0.389617 0.109285 -0.234637
C4    C     C_R   0.339875 0.416830 0.888198 -0.214214
C5    C     C_R   0.718253 0.385017 0.071965 -0.235059
C6    C     C_R   0.253592 0.425150 0.925425 -0.223722
C7    C     C_R   0.539924 0.810607 0.516691 -0.215008
C8    C     C_R   0.473215 0.188249 0.514767 -0.208338
C9    C     C_R   0.348969 0.032247 0.501697 0.551877
C10   C     C_R   0.653087 0.967845 0.510836 0.553962
C11   C     C_R   0.359084 0.139396 0.496495 -0.320705
C12   C     C_R   0.638578 0.861242 0.505161 -0.318258
C13   C     C_R   0.578727 0.129839 0.538759 0.153992
C14   C     C_R   0.453004 0.866579 0.533029 0.155574
C15   C     C_R   0.562903 0.024345 0.522788 -0.109096
C16   C     C_R   0.453491 0.973696 0.519036 -0.109909
C17   C     C_R   0.989949 0.568225 0.388766 -0.330803
C18   C     C_R   0.010845 0.434482 0.612278 -0.307955
C19   C     C_R   0.113757 0.565934 0.402653 0.030930
C20   C     C_R   0.887579 0.438386 0.599183 0.058453
C21   C     C_R   0.168746 0.475755 0.552023 -0.019650
C22   C     C_R   0.830899 0.523094 0.447334 -0.058216
C23   C     C_R   0.575650 0.492231 0.680579 0.887613
C24   C     C_R   0.423622 0.502048 0.319439 0.870468
C25   C     C_R   0.045437 0.477143 0.541573 0.086005
C26   C     C_R   0.954599 0.523027 0.458297 0.093727
C27   C     C_R   0.618256 0.468649 0.783175 -0.055876
C28   C     C_R   0.375447 0.484572 0.216704 -0.059751
C29   C     C_R   0.774279 0.415778 0.938874 -0.196068
C30   C     C_R   0.207792 0.461380 0.059510 -0.195274
C31   C     C_R   0.741065 0.445121 0.842883 -0.177764
C32   C     C_R   0.248789 0.483480 0.156213 -0.200844
C33   C     C_R   0.529407 0.460233 0.819225 -0.248768
C34   C     C_R   0.459602 0.460187 0.180868 -0.263529
C35   C     C_R   0.559053 0.425995 0.913251 0.093275
C36   C     C_R   0.420626 0.434299 0.085494 0.090574
C37   C     C_R   0.684403 0.407940 0.974921 0.177654
C38   C     C_R   0.293171 0.439242 0.023255 0.176442
C39   C     C_R   0.468052 0.417704 0.948967 0.073000
C40   C     C_R   0.507034 0.412773 0.049156 0.069500
H1    H     H_    0.813094 0.368408 0.119962 0.145279
H2    H     H_    0.156245 0.425887 0.876929 0.144633
H3    H     H_    0.863106 0.409335 0.655859 0.146059
H4    H     H_    0.139856 0.599844 0.348191 0.123576
H5    H     H_    0.922466 0.604596 0.323993 0.144166
H6    H     H_    0.078753 0.399912 0.677874 0.145988
H7    H     H_    0.556798 0.465624 0.227731 0.156195
H8    H     H_    0.437018 0.484019 0.773543 0.162254
H9    H     H_    0.182029 0.500320 0.183336 0.150250
H10   H     H_    0.810888 0.449562 0.815622 0.152470
H11   H     H_    0.870060 0.400310 0.985057 0.131737
H12   H     H_    0.109916 0.463480 0.012799 0.132221
H13   H     H_    0.663415 0.372949 0.185278 0.147399
H14   H     H_    0.304151 0.408061 0.811650 0.138695
H15   H     H_    0.705492 0.818250 0.492562 0.191610
H16   H     H_    0.277652 0.184098 0.479347 0.188745
H17   H     H_    0.760715 0.559327 0.384060 0.125867
H18   H     H_    0.238576 0.438387 0.614737 0.118949
N1    N     N_R   0.799120 0.480200 0.517090 -0.097618
N2    N     N_R   0.200880 0.519800 0.482910 -0.091567
O1    O     O_R   0.580150 0.341050 0.504560 -0.593324
O2    O     O_R   0.419850 0.658950 0.495440 -0.593041
O3    O     O_R   0.388090 0.353760 0.493600 -0.626375
O4    O     O_R   0.611910 0.646240 0.506400 -0.619557
O5    O     O_R   0.650890 0.490020 0.640860 -0.624170
O6    O     O_R   0.349110 0.509980 0.359140 -0.627839
O7    O     O_R   0.458830 0.502730 0.629890 -0.618252
O8    O     O_R   0.541170 0.497270 0.370110 -0.627721
Zn1   Zn    Zn3+2 0.628240 0.491510 0.507320 0.957025
Zn2   Zn    Zn3+2 0.371760 0.508490 0.492680 0.958368
I1    I     I_    0.350542 0.797331 0.608570 -0.276346
I2    I     I_    0.760202 0.187844 0.631525 -0.327387
O9    O     O_3   0.234825 0.986781 0.484786 -0.611909
C41   C     C_3   0.173966 0.955070 0.388530 0.104396
H19   H     H_    0.120409 0.882263 0.388314 0.183296
H20   H     H_    0.238018 0.936295 0.356360 0.109445
C42   C     C_3   0.084001 0.037611 0.326318 -0.379379
H21   H     H_    0.022317 0.057075 0.359937 0.244169
H22   H     H_    0.136474 0.109153 0.321172 0.213450
C43   C     C_3   0.005448 0.999630 0.225357 -0.942200
H23   H     H_    0.065251 0.980993 0.189899 0.268153
H24   H     H_    0.941856 0.061288 0.182004 0.271586
H25   H     H_    0.949606 0.929392 0.228220 0.264592
O10   O     O_3   0.753391 0.015088 0.500800 -0.609612
C44   C     C_3   0.715855 0.060645 0.407503 0.109820
H26   H     H_    0.774986 0.131489 0.413763 0.185583
H27   H     H_    0.618500 0.086656 0.374596 0.112637
C45   C     C_3   0.735287 0.985972 0.341283 -0.385715
H28   H     H_    0.832292 0.960284 0.374703 0.245605
H29   H     H_    0.672990 0.916497 0.330981 0.213146
C46   C     C_3   0.708360 0.037604 0.243504 -0.937705
H30   H     H_    0.611453 0.063273 0.208460 0.268983
H31   H     H_    0.721785 0.981334 0.196800 0.272876
H32   H     H_    0.771958 0.105736 0.251541 0.264503

loop_
_geom_bond_atom_site_label_1
_geom_bond_atom_site_label_2
_ccdc_geom_bond_type
C8    C13   A    
C5    C37   A    
C1    C8    S    
O9    C41   S    
C2    C7    S    
C22   H17   S    
C44   H26   S    
C27   C33   A    
C30   C38   A    
C41   H20   S    
C17   C26   A    
C35   C37   A    
C9    C16   A    
C17   H5    S    
C10   C15   A    
C44   C45   S    
C15   C16   A    
C1    O3    A    
O2    Zn2   S    
C14   I1    S    
C23   O7    A    
C36   C40   A    
C21   C25   A    
C33   C35   A    
C7    C14   A    
O8    Zn1   S    
C41   C42   S    
C6    C38   A    
C23   C27   S    
C34   C36   A    
C24   O6    A    
C42   H22   S    
C28   C34   A    
C22   N1    A    
C18   C25   A    
C9    O9    S    
C43   H25   S    
C18   H6    S    
C2    O4    A    
C44   H27   S    
C7    C12   A    
C41   H19   S    
O3    Zn2   S    
C27   C31   A    
C28   C32   A    
O10   C44   S    
C21   N2    A    
C4    C6    A    
C46   H30   S    
C25   C26   A    
C42   H21   S    
C35   C39   A    
C46   H31   S    
C4    C39   A    
N2    Zn2   S    
O4    Zn1   S    
C20   N1    A    
C9    C11   A    
C10   C12   A    
N1    Zn1   S    
C43   H24   S    
C45   H29   S    
C3    C40   A    
C13   C15   A    
C6    H2    S    
C14   C16   A    
C31   H10   S    
C39   C40   A    
C20   H3    S    
C19   H4    S    
C29   H11   S    
C42   C43   S    
O1    Zn1   S    
C5    H1    S    
C4    H14   S    
C24   C28   S    
C43   H23   S    
C3    C5    A    
C1    O1    A    
C13   I2    S    
C19   N2    A    
O7    Zn2   S    
C23   O5    A    
C36   C38   A    
C21   H18   S    
C29   C31   A    
C46   H32   S    
C30   C32   A    
C3    H13   S    
O6    Zn2   S    
C45   C46   S    
C30   H12   S    
C8    C11   A    
O5    Zn1   S    
C10   O10   S    
C17   C19   A    
C18   C20   A    
C32   H9    S    
C12   H15   S    
C24   O8    A    
C45   H28   S    
C22   C26   A    
C29   C37   A    
C33   H8    S    
C34   H7    S    
C11   H16   S    
C2    O2    A    
