data_mof_unit_26226.cif
_audit_creation_date              2012-12-10T17:35:42-0500
_audit_creation_method            fapswitch 2.2
_symmetry_space_group_name_H-M    P1
_symmetry_Int_Tables_number       1
_space_group_crystal_system       triclinic
_cell_length_a                    10.491417
_cell_length_b                    12.066697
_cell_length_c                    12.83667
_cell_angle_alpha                 93.72769
_cell_angle_beta                  90.741444
_cell_angle_gamma                 86.712631
_cell_volume                      1618.90488658

loop_
_atom_site_label
_atom_site_type_symbol
_atom_type_description
_atom_site_fract_x
_atom_site_fract_y
_atom_site_fract_z
_atom_type_partial_charge
C1    C     C_R   0.498045 0.522227 0.700290 0.875656
C2    C     C_R   0.619991 0.162857 0.578593 0.586323
C3    C     C_R   0.555871 0.858304 0.539624 0.559268
C4    C     C_R   0.438484 0.141477 0.466741 0.560386
C5    C     C_R   0.548715 0.975657 0.531265 -0.139783
C6    C     C_R   0.453926 0.023494 0.467507 -0.143047
C7    C     C_R   0.742273 0.500376 0.499817 0.929379
C8    C     C_R   0.257586 0.499912 0.501055 0.934559
C9    C     C_3   0.965130 0.393968 0.489027 -0.310323
C10   C     C_3   0.034247 0.607496 0.513134 -0.282617
C11   C     C_3   0.045795 0.441845 0.581527 -0.351474
C12   C     C_R   0.500574 0.477708 0.299755 0.885899
C13   C     C_3   0.953563 0.559675 0.420672 -0.334667
C14   C     C_3   0.122500 0.500747 0.502444 -0.126740
C15   C     C_3   0.877035 0.500537 0.499570 -0.098104
C16   C     C_3   0.042948 0.454196 0.411757 0.606333
C17   C     C_3   0.956271 0.547388 0.590269 0.649660
C18   C     C_R   0.502270 0.463725 0.188297 -0.036942
C19   C     C_R   0.492860 0.535625 0.811782 -0.036127
C20   C     C_R   0.415547 0.634838 0.968910 -0.214969
C21   C     C_R   0.575945 0.363156 0.030827 -0.231568
C22   C     C_R   0.429546 0.629254 0.861572 -0.247876
C23   C     C_R   0.543431 0.448312 0.868231 -0.264152
C24   C     C_R   0.562708 0.368875 0.138181 -0.201639
C25   C     C_3   0.005347 0.367894 0.250420 -0.325568
C26   C     C_3   0.992854 0.631848 0.752574 -0.329017
C27   C     C_3   0.224855 0.184149 0.466956 -0.258140
C28   C     C_3   0.602181 0.824323 0.709008 -0.233190
C29   C     C_3   0.753153 0.199671 0.722511 -0.372608
C30   C     C_3   0.188651 0.801895 0.343116 -0.343311
C31   C     C_R   0.450407 0.550771 0.132025 -0.258649
C32   C     C_R   0.528361 0.452194 0.974621 0.179180
C33   C     C_R   0.464047 0.546304 0.025389 0.174941
C34   C     C_R   0.378320 0.952732 0.404752 -0.398146
C35   C     C_R   0.634858 0.045594 0.583297 -0.402397
C36   C     C_R   0.388302 0.836358 0.413882 0.585193
H1    H     H_    0.087850 0.395537 0.646815 0.153088
H2    H     H_    0.715350 0.008816 0.624470 0.197671
H3    H     H_    0.936372 0.436382 0.229068 0.155650
H4    H     H_    0.954463 0.300271 0.283882 0.148442
H5    H     H_    0.051623 0.332570 0.177480 0.201273
H6    H     H_    0.048790 0.696784 0.719821 0.154224
H7    H     H_    0.057362 0.561137 0.775866 0.156642
H8    H     H_    0.945750 0.669654 0.824257 0.192298
H9    H     H_    0.401709 0.623138 0.171472 0.194695
H10   H     H_    0.592523 0.376178 0.829074 0.166906
H11   H     H_    0.146397 0.225864 0.423431 0.217383
H12   H     H_    0.911468 0.605982 0.355390 0.155869
H13   H     H_    0.230332 0.226124 0.546528 0.158758
H14   H     H_    0.198102 0.097302 0.473702 0.120242
H15   H     H_    0.649392 0.758503 0.754885 0.212785
H16   H     H_    0.497058 0.818655 0.716232 0.126939
H17   H     H_    0.630001 0.905420 0.745236 0.127009
H18   H     H_    0.833661 0.136562 0.709923 0.164105
H19   H     H_    0.677288 0.168223 0.770893 0.144417
H20   H     H_    0.792158 0.272139 0.767166 0.197616
H21   H     H_    0.176178 0.860336 0.279951 0.159298
H22   H     H_    0.150261 0.840879 0.418205 0.143919
H23   H     H_    0.932043 0.308163 0.478342 0.175996
H24   H     H_    0.131098 0.729560 0.321026 0.207444
H25   H     H_    0.066095 0.693539 0.525062 0.162014
H26   H     H_    0.603213 0.301478 0.182117 0.158804
H27   H     H_    0.387472 0.695762 0.817489 0.142785
H28   H     H_    0.365728 0.707052 0.007397 0.142982
H29   H     H_    0.624708 0.290522 0.992112 0.132285
H30   H     H_    0.313364 0.987619 0.347873 0.202706
N1    N     N_R   0.523490 0.207800 0.519350 -0.185192
N2    N     N_R   0.476510 0.792200 0.480650 -0.183525
O1    O     O_R   0.506270 0.421700 0.658830 -0.605739
O2    O     O_3   0.897792 0.595587 0.681976 -0.594690
O3    O     O_3   0.339355 0.190750 0.411224 -0.564661
O4    O     O_3   0.644785 0.808440 0.604776 -0.567977
O5    O     O_3   0.705294 0.234980 0.626135 -0.558938
O6    O     O_3   0.317817 0.763496 0.351458 -0.570585
O7    O     O_R   0.493730 0.578300 0.341170 -0.592287
O8    O     O_R   0.491200 0.609310 0.646410 -0.622182
O9    O     O_R   0.508800 0.390690 0.353590 -0.600837
O10   O     O_R   0.693580 0.406210 0.506230 -0.586423
O11   O     O_R   0.306420 0.593790 0.493770 -0.603727
O12   O     O_R   0.678510 0.593830 0.493810 -0.574636
O13   O     O_R   0.321490 0.406170 0.506190 -0.591574
O14   O     O_3   0.100652 0.407205 0.319263 -0.593541
Zn1   Zn    Zn3+2 0.510060 0.374730 0.508290 1.019926
Zn2   Zn    Zn3+2 0.489940 0.625270 0.491710 1.016620

loop_
_geom_bond_atom_site_label_1
_geom_bond_atom_site_label_2
_ccdc_geom_bond_type
C2    C35   A    
N1    Zn1   S    
C3    N2    A    
O12   Zn2   S    
O8    Zn2   S    
C26   H8    S    
C18   C24   A    
C9    C16   S    
C25   H4    S    
C5    C6    A    
C30   O6    S    
C28   H15   S    
O7    Zn2   S    
C29   O5    S    
C29   H18   S    
O9    Zn1   S    
C10   C17   S    
C30   H21   S    
C5    C35   A    
C11   H1    S    
C22   H27   S    
O10   Zn1   S    
C30   H24   S    
C8    O11   A    
C8    C14   S    
C31   C33   A    
C27   H14   S    
C7    C15   S    
C17   O2    S    
C23   H10   S    
C34   H30   S    
C28   O4    S    
O13   Zn1   S    
C26   H7    S    
C21   C32   A    
C1    C19   S    
C8    O13   A    
N2    Zn2   S    
C19   C22   A    
C4    C6    A    
C2    N1    A    
C10   C14   S    
C25   H5    S    
C29   H19   S    
C1    O1    A    
C6    C34   A    
C32   C33   A    
C9    H23   S    
C20   H28   S    
C19   C23   A    
O1    Zn1   S    
C4    N1    A    
C12   O9    A    
C35   H2    S    
C16   O14   S    
C9    C11   S    
C2    O5    S    
C36   O6    S    
C7    O10   A    
C20   C33   A    
C20   C22   A    
C13   C15   S    
C25   O14   S    
C26   O2    S    
C14   C16   S    
C13   C16   S    
C10   H25   S    
C27   O3    S    
C26   H6    S    
C27   H11   S    
C15   C17   S    
C11   C17   S    
C24   H26   S    
C21   H29   S    
C1    O8    A    
C3    C5    A    
C10   C13   S    
C13   H12   S    
C28   H17   S    
C36   N2    A    
C29   H20   S    
C23   C32   A    
C3    O4    S    
C9    C15   S    
C25   H3    S    
C28   H16   S    
O11   Zn2   S    
C30   H22   S    
C11   C14   S    
C34   C36   A    
C12   O7    A    
C31   H9    S    
C21   C24   A    
C12   C18   S    
C18   C31   A    
C4    O3    S    
C27   H13   S    
C7    O12   A    
