data_mof_unit_11762.cif
_audit_creation_date              2012-12-11T15:42:47-0500
_audit_creation_method            fapswitch 2.2
_symmetry_space_group_name_H-M    P1
_symmetry_Int_Tables_number       1
_space_group_crystal_system       triclinic
_cell_length_a                    6.925457
_cell_length_b                    14.605956
_cell_length_c                    16.172358
_cell_angle_alpha                 90.537366
_cell_angle_beta                  89.707166
_cell_angle_gamma                 90.231983
_cell_volume                      1635.77483269

loop_
_atom_site_label
_atom_site_type_symbol
_atom_type_description
_atom_site_fract_x
_atom_site_fract_y
_atom_site_fract_z
_atom_type_partial_charge
O1    O     O_R   0.505810 0.583360 0.413880 -0.540489
O2    O     O_R   0.175870 0.595480 0.585520 -0.543869
O3    O     O_R   0.005540 0.416640 0.586120 -0.541067
C1    C     C_R   0.344884 0.617671 0.614656 0.686806
O4    O     O_R   0.176100 0.594390 0.414490 -0.544179
O5    O     O_R   0.005770 0.415540 0.413870 -0.541328
C2    C     C_R   0.345847 0.615757 0.385483 0.694383
O6    O     O_R   0.505580 0.584460 0.586130 -0.540627
O7    O     O_3   0.339190 0.441320 0.500000 -0.369700
V1    V     V_3+5 0.064350 0.510890 0.500000 1.398533
O8    O     O_R   0.676050 0.404520 0.414480 -0.544783
C3    C     C_R   0.845187 0.382277 0.385519 0.684902
O9    O     O_R   0.675830 0.405610 0.585510 -0.540005
C4    C     C_R   0.844723 0.383652 0.613750 0.746595
V2    V     V_3+5 0.564340 0.489110 0.500000 1.402141
O10   O     O_3   0.839370 0.558680 0.500000 -0.371313
C5    C     C_2   0.720956 0.208738 0.786374 -0.128156
C6    C     C_2   0.886518 0.181692 0.822447 -0.312862
H1    H     H_    0.584813 0.180031 0.807674 0.137326
H2    H     H_    0.024446 0.209627 0.803242 0.127725
C7    C     C_2   0.707894 0.277039 0.718449 -0.135823
C8    C     C_2   0.861150 0.315531 0.680504 -0.309643
H3    H     H_    0.563540 0.295598 0.698923 0.134588
H4    H     H_    0.006562 0.297629 0.698300 0.130083
C9    C     C_R   0.047476 0.224303 0.218085 -0.159887
H5    H     H_    0.188501 0.205027 0.194742 0.115212
C10   C     C_R   0.036357 0.287596 0.283462 -0.156566
H6    H     H_    0.169354 0.315615 0.308097 0.119921
C11   C     C_R   0.856417 0.314190 0.316565 -0.047679
C12   C     C_R   0.687877 0.275969 0.282251 -0.157138
H7    H     H_    0.546872 0.294821 0.305907 0.117102
C13   C     C_R   0.698974 0.212715 0.216849 -0.159254
H8    H     H_    0.566036 0.184321 0.192497 0.117784
C14   C     C_R   0.878955 0.185811 0.184007 -0.038740
C15   C     C_R   0.188175 0.723718 0.718995 -0.156895
H9    H     H_    0.047224 0.705670 0.695044 0.115967
C16   C     C_R   0.199596 0.785913 0.785355 -0.150321
H10   H     H_    0.066812 0.814110 0.810152 0.118657
C17   C     C_R   0.379443 0.811500 0.819016 -0.049226
C18   C     C_R   0.547534 0.773087 0.784284 -0.156495
H11   H     H_    0.688486 0.791143 0.808228 0.116216
C19   C     C_R   0.536112 0.710888 0.717926 -0.149939
H12   H     H_    0.668897 0.682696 0.693125 0.118366
C20   C     C_R   0.356264 0.685291 0.684273 -0.048012
C21   C     C_R   0.198527 0.739426 0.301836 -0.178532
H13   H     H_    0.070806 0.732715 0.340360 0.122447
C22   C     C_R   0.203125 0.806236 0.239761 0.093464
C23   C     C_R   0.373087 0.815988 0.189401 -0.065894
C24   C     C_R   0.531905 0.759145 0.206246 -0.193348
H14   H     H_    0.662614 0.763783 0.169487 0.125345
C25   C     C_R   0.524998 0.694809 0.269914 -0.159199
H15   H     H_    0.650541 0.652685 0.280761 0.123161
C26   C     C_R   0.357312 0.683900 0.317940 -0.068242
O11   O     O_R   0.230120 0.912300 0.917180 -0.539633
O12   O     O_R   0.559740 0.902430 0.088770 -0.544202
O13   O     O_R   0.729930 0.081310 0.089370 -0.542964
C27   C     C_R   0.389215 0.882552 0.119499 0.683475
O14   O     O_R   0.559840 0.901330 0.917750 -0.542476
O15   O     O_R   0.730030 0.080210 0.917120 -0.536266
C28   C     C_R   0.390821 0.879114 0.888637 0.691741
O16   O     O_R   0.230020 0.913400 0.089430 -0.542630
O17   O     O_3   0.396460 0.055470 0.003290 -0.369100
V3    V     V_3+5 0.671360 0.985960 0.003250 1.389910
O18   O     O_R   0.059740 0.091300 0.917690 -0.543996
C29   C     C_R   0.891381 0.113240 0.889409 0.748119
O19   O     O_R   0.059640 0.092400 0.088720 -0.546828
C30   C     C_R   0.890336 0.115996 0.116506 0.690366
V4    V     V_3+5 0.171350 0.007820 0.003190 1.389536
O20   O     O_3   0.896380 0.938200 0.003220 -0.373619
C31   C     C_3   0.027725 0.868293 0.236461 -0.359223
C32   C     C_3   0.069192 0.961026 0.278393 -0.305810
C33   C     C_3   0.883171 0.005752 0.309535 -0.762820
H16   H     H_    0.777177 0.011442 0.258608 0.225287
H17   H     H_    0.817917 0.964249 0.359733 0.223690
H18   H     H_    0.915573 0.075042 0.334735 0.229866
H19   H     H_    0.165790 0.951829 0.332410 0.195010
H20   H     H_    0.143427 0.007137 0.234166 0.192265
H21   H     H_    0.971428 0.876534 0.173101 0.193721
H22   H     H_    0.905107 0.835300 0.269627 0.169066

loop_
_geom_bond_atom_site_label_1
_geom_bond_atom_site_label_2
_ccdc_geom_bond_type
O19   V4    S    
C3    C11   S    
C10   C11   A    
C15   H9    S    
C1    O6    A    
C23   C27   S    
O11   C28   A    
C21   H13   S    
C6    C29   S    
C11   C12   A    
O18   V4    S    
C15   C16   A    
O5    C3    A    
C32   H19   S    
C31   H21   S    
O14   C28   A    
V2    O10   S    
O8    V2    S    
V3    O20   S    
V4    O20   S    
C24   C25   A    
O12   V3    S    
C31   C32   S    
O1    V2    S    
O7    V1    S    
C9    C14   A    
C18   C19   A    
O19   C30   A    
C21   C26   A    
C7    C8    D    
C19   C20   A    
C33   H18   S    
C21   C22   A    
C25   H15   S    
C33   H17   S    
C17   C18   A    
O4    C2    A    
C1    C20   S    
C9    H5    S    
C5    C7    S    
C25   C26   A    
C13   C14   A    
O2    C1    A    
C22   C31   S    
C16   H10   S    
C22   C23   A    
O17   V3    S    
C5    C6    D    
O13   V3    S    
O12   C27   A    
C15   C20   A    
O3    C4    A    
C23   C24   A    
O6    V2    S    
O9    V2    S    
C8    H4    S    
C19   H12   S    
C2    C26   S    
O2    V1    S    
C32   H20   S    
O14   V3    S    
C18   H11   S    
C31   H22   S    
O1    C2    A    
C33   H16   S    
C14   C30   S    
O5    V1    S    
O8    C3    A    
C27   O16   A    
C9    C10   A    
O13   C30   A    
O15   V3    S    
O17   V4    S    
O18   C29   A    
C4    C8    S    
C7    H3    S    
O7    V2    S    
O4    V1    S    
C16   C17   A    
O3    V1    S    
V1    O10   S    
C13   H8    S    
C12   C13   A    
O16   V4    S    
C12   H7    S    
C17   C28   S    
C5    H1    S    
C6    H2    S    
C32   C33   S    
O11   V4    S    
C24   H14   S    
C10   H6    S    
O9    C4    A    
O15   C29   A    
