data_mof_unit_42281.cif
_audit_creation_date              2012-12-11T15:39:20-0500
_audit_creation_method            fapswitch 2.2
_symmetry_space_group_name_H-M    P1
_symmetry_Int_Tables_number       1
_space_group_crystal_system       triclinic
_cell_length_a                    14.34336
_cell_length_b                    14.781955
_cell_length_c                    33.102652
_cell_angle_alpha                 97.635102
_cell_angle_beta                  90.261078
_cell_angle_gamma                 119.010495
_cell_volume                      6064.1947193

loop_
_atom_site_label
_atom_site_type_symbol
_atom_type_description
_atom_site_fract_x
_atom_site_fract_y
_atom_site_fract_z
_atom_type_partial_charge
C1    C     C_R   0.617721 0.909163 0.437388 0.570140
C2    C     C_R   0.712236 0.437681 0.949223 0.535672
C3    C     C_R   0.767673 0.809103 0.761723 -0.109188
C4    C     C_R   0.759465 0.828037 0.722244 -0.110386
C5    C     C_R   0.684523 0.748533 0.692520 0.035995
C6    C     C_R   0.619611 0.648255 0.702918 -0.109354
C7    C     C_R   0.628578 0.628818 0.742682 -0.110731
C8    C     C_R   0.702180 0.709592 0.772621 0.035229
C9    C     C_R   0.564807 0.743421 0.636345 -0.126246
C10   C     C_R   0.549403 0.783973 0.602851 -0.148925
C11   C     C_R   0.741847 0.886001 0.599508 0.057250
C12   C     C_2   0.874887 0.006611 0.118607 0.575046
C13   C     C_R   0.743376 0.716431 0.945848 0.564083
C14   C     C_3   0.869467 0.933907 0.325567 -0.232238
C15   C     C_3   0.912131 0.040503 0.311026 -0.274129
C16   C     C_3   0.024810 0.079348 0.297219 -0.444394
C17   C     C_2   0.837280 0.963151 0.414573 0.577883
C18   C     C_3   0.512145 0.672103 0.094128 -0.245097
C19   C     C_3   0.476120 0.721265 0.063782 -0.287552
C20   C     C_3   0.374451 0.639002 0.037953 -0.447857
C21   C     C_2   0.904178 0.414373 0.378773 0.543206
C22   C     C_3   0.099000 0.665963 0.549303 -0.256440
C23   C     C_3   0.044991 0.682375 0.512938 -0.287735
C24   C     C_R   0.830352 0.439415 0.165551 -0.112675
C25   C     C_3   0.007205 0.590775 0.477996 -0.418552
C26   C     C_2   0.838276 0.958978 0.581266 0.590598
C27   C     C_R   0.826623 0.450778 0.124462 -0.119513
C28   C     C_R   0.781758 0.358826 0.248057 -0.110278
C29   C     C_R   0.775961 0.347451 0.289261 -0.069264
C30   C     C_R   0.743309 0.406009 0.316538 0.068357
C31   C     C_R   0.720500 0.478983 0.302402 -0.103174
C32   C     C_R   0.725534 0.489812 0.261170 -0.115008
C33   C     C_R   0.753370 0.427739 0.233529 0.025842
C34   C     C_R   0.746673 0.430933 0.189380 0.030499
C35   C     C_R   0.610534 0.343842 0.367308 -0.146970
C36   C     C_R   0.594297 0.205882 0.456661 0.541290
C37   C     C_R   0.572269 0.293019 0.400904 -0.129535
C38   C     C_R   0.747590 0.315985 0.417949 -0.132825
C39   C     C_R   0.788058 0.369322 0.384574 0.055724
C40   C     C_R   0.716639 0.378278 0.357733 0.005436
C41   C     C_R   0.639177 0.274674 0.425436 -0.007835
C42   C     C_R   0.241390 0.876619 0.393949 0.018373
C43   C     C_R   0.230958 0.958721 0.381213 -0.121362
C44   C     C_R   0.205253 0.955310 0.340134 -0.117180
C45   C     C_R   0.756185 0.843432 0.632899 -0.119142
C46   C     C_R   0.188448 0.869478 0.311451 0.035369
C47   C     C_R   0.190811 0.784034 0.324238 -0.097525
C48   C     C_R   0.294778 0.892382 0.434568 0.535791
C49   C     C_R   0.216954 0.787369 0.365313 -0.112707
C50   C     C_R   0.193378 0.806554 0.163649 -0.110941
C51   C     C_R   0.167231 0.786247 0.121572 -0.125094
C52   C     C_R   0.089037 0.900160 0.129764 -0.121596
C53   C     C_R   0.114677 0.919884 0.171944 -0.107389
C54   C     C_R   0.163215 0.869884 0.189014 0.033313
C55   C     C_1   0.172089 0.873950 0.232469 -0.031335
C56   C     C_R   0.668273 0.775134 0.652451 0.007937
C57   C     C_1   0.178283 0.872767 0.268621 -0.031034
C58   C     C_R   0.110302 0.829008 0.104487 0.011779
C59   C     C_R   0.639027 0.874189 0.396213 -0.007696
C60   C     C_R   0.614330 0.904484 0.551458 0.555946
C61   C     C_R   0.550865 0.815831 0.367361 -0.159484
C62   C     C_R   0.565187 0.802589 0.326136 -0.137761
C63   C     C_R   0.667696 0.845974 0.312742 0.022734
C64   C     C_R   0.758927 0.897108 0.341058 -0.007489
C65   C     C_R   0.744321 0.911047 0.383516 0.056648
C66   C     C_R   0.775841 0.918567 0.174933 -0.125536
C67   C     C_R   0.636940 0.858070 0.584723 -0.003460
C68   C     C_R   0.785794 0.914086 0.132752 0.033650
C69   C     C_R   0.610861 0.754511 0.121195 -0.018474
C70   C     C_R   0.602987 0.762900 0.163573 -0.109361
C71   C     C_R   0.687468 0.840518 0.190142 -0.004954
C72   C     C_R   0.590023 0.200032 0.570766 0.535932
C73   C     C_1   0.681764 0.841548 0.233290 -0.034852
C74   C     C_1   0.676303 0.842404 0.269477 -0.031816
C75   C     C_R   0.709225 0.823891 0.105715 0.003396
C76   C     C_R   0.624931 0.253437 0.613337 0.014962
C77   C     C_R   0.560617 0.285965 0.635857 -0.129641
C78   C     C_R   0.052397 0.781490 0.063740 0.540470
C79   C     C_R   0.579017 0.312962 0.678266 -0.115636
C80   C     C_R   0.661881 0.308044 0.698452 0.039613
C81   C     C_R   0.731242 0.283614 0.676091 -0.112761
C82   C     C_R   0.713265 0.256888 0.633665 -0.127209
C83   C     C_R   0.764380 0.347777 0.844767 -0.117135
C84   C     C_R   0.287503 0.886077 0.548063 0.533904
C85   C     C_R   0.772519 0.371465 0.887289 -0.129925
C86   C     C_R   0.594527 0.351990 0.884551 -0.125073
C87   C     C_R   0.586587 0.328181 0.842053 -0.112763
C88   C     C_R   0.673068 0.330072 0.822134 0.042180
C89   C     C_R   0.744122 0.487405 0.066475 0.548254
C90   C     C_1   0.671286 0.322524 0.778583 -0.030541
C91   C     C_1   0.668679 0.317415 0.742067 -0.030902
C92   C     C_R   0.689735 0.378966 0.907445 0.022244
C93   C     C_R   0.058800 0.747061 0.906290 0.019046
C94   C     C_R   0.103346 0.846073 0.894134 -0.143498
C95   C     C_R   0.114139 0.855440 0.852803 -0.127800
C96   C     C_R   0.738711 0.453005 0.106617 0.021096
C97   C     C_R   0.079344 0.765729 0.823158 0.027378
C98   C     C_R   0.040355 0.667557 0.835773 -0.118224
C99   C     C_R   0.031243 0.658484 0.876983 -0.119885
C100  C     C_R   0.741006 0.790225 0.066000 0.552589
C101  C     C_R   0.106706 0.710062 0.751737 -0.109450
C102  C     C_R   0.110763 0.719258 0.710454 -0.110449
C103  C     C_R   0.089225 0.792593 0.695874 0.030886
C104  C     C_R   0.058583 0.853251 0.722804 -0.108273
C105  C     C_R   0.053908 0.843659 0.764158 -0.113067
C106  C     C_R   0.080117 0.773451 0.779148 0.033221
C107  C     C_R   0.186732 0.920100 0.649534 -0.120032
C108  C     C_R   0.652154 0.437747 0.129985 -0.122815
C109  C     C_R   0.236242 0.941512 0.613452 -0.127807
C110  C     C_R   0.135402 0.756211 0.584376 -0.000589
C111  C     C_R   0.021112 0.731689 0.947163 0.527719
C112  C     C_R   0.087371 0.735928 0.621405 -0.102962
C113  C     C_R   0.116423 0.816714 0.654484 0.017588
C114  C     C_R   0.216296 0.860037 0.581556 0.036776
C115  C     C_R   0.727499 0.701047 0.900952 0.016857
C116  C     C_R   0.627585 0.638409 0.878744 -0.123444
C117  C     C_R   0.618717 0.635994 0.836230 -0.115696
C118  C     C_R   0.710076 0.694135 0.815657 0.033031
C119  C     C_R   0.810205 0.748288 0.837839 -0.113989
C120  C     C_R   0.656373 0.427277 0.171012 -0.119741
C121  C     C_R   0.818273 0.753552 0.879859 -0.124091
Cr1   Cr    Cr6+3 0.424820 0.846020 0.489780 1.010091
Cr2   Cr    Cr6+3 0.657880 0.078580 0.505700 1.071699
Cr3   Cr    Cr6+3 0.417280 0.075360 0.504550 1.019504
Cr4   Cr    Cr6+3 0.903360 0.812540 0.006510 1.038638
Cr5   Cr    Cr6+3 0.914630 0.587050 0.006280 1.006287
Cr6   Cr    Cr6+3 0.673560 0.582680 0.008540 0.994653
H1    H     H_    0.583229 0.439000 0.117191 0.127498
H2    H     H_    0.091089 0.969116 0.191382 0.133780
H3    H     H_    0.044504 0.933405 0.117480 0.170614
H4    H     H_    0.894688 0.462709 0.107269 0.130767
H5    H     H_    0.203763 0.021796 0.330474 0.104449
H6    H     H_    0.836716 0.983408 0.196119 0.148358
H7    H     H_    0.469843 0.786576 0.376279 0.140961
H8    H     H_    0.531505 0.707346 0.176130 0.106563
H9    H     H_    0.495482 0.762315 0.304355 0.118140
H10   H     H_    0.846867 0.391784 0.903988 0.124345
H11   H     H_    0.831488 0.348861 0.829485 0.104216
H12   H     H_    0.488530 0.262510 0.406141 0.135495
H13   H     H_    0.795791 0.279979 0.691581 0.114697
H14   H     H_    0.764346 0.232405 0.617205 0.152666
H15   H     H_    0.492290 0.284520 0.621078 0.128391
H16   H     H_    0.515370 0.314000 0.824641 0.104278
H17   H     H_    0.529434 0.357230 0.899064 0.127119
H18   H     H_    0.525302 0.332360 0.695458 0.102240
H19   H     H_    0.124608 0.915200 0.916331 0.117398
H20   H     H_    0.994940 0.580942 0.885524 0.125334
H21   H     H_    0.030202 0.656426 0.625209 0.104685
H22   H     H_    0.791667 0.289113 0.299465 0.115580
H23   H     H_    0.900530 0.441895 0.179159 0.112884
H24   H     H_    0.136932 0.673359 0.690343 0.103041
H25   H     H_    0.128567 0.656222 0.762405 0.100558
H26   H     H_    0.146783 0.932394 0.843958 0.106715
H27   H     H_    0.041566 0.910201 0.712032 0.102694
H28   H     H_    0.031206 0.892200 0.784408 0.087720
H29   H     H_    0.210430 0.983559 0.674781 0.110182
H30   H     H_    0.296264 0.021552 0.611730 0.132322
H31   H     H_    0.011635 0.596858 0.813705 0.104441
H32   H     H_    0.556388 0.595791 0.894306 0.121605
H33   H     H_    0.802903 0.309922 0.227200 0.110493
H34   H     H_    0.800317 0.305279 0.437933 0.168144
H35   H     H_    0.895953 0.801799 0.896202 0.139028
H36   H     H_    0.836625 0.866721 0.644663 0.116077
H37   H     H_    0.808573 0.906708 0.715541 0.103728
H38   H     H_    0.823122 0.874176 0.784155 0.098637
H39   H     H_    0.540234 0.593125 0.819931 0.101042
H40   H     H_    0.561291 0.585453 0.680443 0.102620
H41   H     H_    0.577792 0.551168 0.750043 0.098180
H42   H     H_    0.495616 0.691618 0.651008 0.111421
H43   H     H_    0.468126 0.760454 0.592250 0.137988
H44   H     H_    0.882445 0.790890 0.822953 0.111634
H45   H     H_    0.184748 0.731257 0.102846 0.122880
H46   H     H_    0.589851 0.418402 0.188677 0.106818
H47   H     H_    0.694717 0.524405 0.322992 0.112949
H48   H     H_    0.704969 0.544697 0.250621 0.110067
H49   H     H_    0.554850 0.349908 0.347092 0.114492
H50   H     H_    0.025704 0.127130 0.130176 0.334974
H51   H     H_    0.025803 0.021591 0.272283 0.153412
H52   H     H_    0.080883 0.092189 0.323340 0.159387
H53   H     H_    0.052208 0.154757 0.285671 0.152371
H54   H     H_    0.859119 0.034268 0.285013 0.159487
H55   H     H_    0.913635 0.099223 0.336125 0.221949
H56   H     H_    0.231402 0.767875 0.176627 0.108653
H57   H     H_    0.926862 0.938191 0.349344 0.176326
H58   H     H_    0.865698 0.875089 0.299935 0.140100
H59   H     H_    0.982469 0.087112 0.433492 0.341980
H60   H     H_    0.388464 0.578105 0.020130 0.153936
H61   H     H_    0.308146 0.601520 0.057795 0.148271
H62   H     H_    0.350605 0.676811 0.016293 0.152243
H63   H     H_    0.460469 0.781963 0.080858 0.165319
H64   H     H_    0.539641 0.759367 0.042973 0.183059
H65   H     H_    0.525387 0.609100 0.078077 0.177703
H66   H     H_    0.444483 0.631799 0.113155 0.121567
H67   H     H_    0.177542 0.717036 0.302172 0.122014
H68   H     H_    0.042273 0.415341 0.391890 0.336420
H69   H     H_    0.076201 0.582816 0.466845 0.174713
H70   H     H_    0.948213 0.516694 0.488287 0.155947
H71   H     H_    0.968383 0.604816 0.452267 0.173318
H72   H     H_    0.974903 0.689956 0.522996 0.185309
H73   H     H_    0.101386 0.755216 0.501236 0.180406
H74   H     H_    0.167112 0.654700 0.539756 0.171954
H75   H     H_    0.040345 0.591336 0.559428 0.129413
H76   H     H_    0.939555 0.108099 0.574023 0.335097
H77   H     H_    0.224224 0.722932 0.374119 0.137900
H78   H     H_    0.249174 0.028575 0.402463 0.131428
O1    O     O_R   0.318160 0.824460 0.443680 -0.524766
O2    O     O_R   0.668160 0.499860 0.053480 -0.521991
O3    O     O_R   0.689170 0.693840 0.050110 -0.508159
O4    O     O_R   0.525040 0.857250 0.449830 -0.507587
O5    O     O_R   0.803860 0.812940 0.962540 -0.501960
O6    O     O_R   0.982950 0.787950 0.964120 -0.526250
O7    O     O_R   0.007050 0.649970 0.960540 -0.516907
O8    O     O_R   0.807910 0.482370 0.965590 -0.503069
O9    O     O_R   0.643310 0.460980 0.963840 -0.525156
O10   O     O_R   0.666140 0.657800 0.967020 -0.503885
O11   O     O_3   0.830520 0.660760 0.007110 -0.263807
O12   O     O_R   0.645130 0.163230 0.552140 -0.500301
O13   O     O_R   0.684760 0.998800 0.456360 -0.471063
O14   O     O_R   0.647540 0.166310 0.470260 -0.500788
O15   O     O_R   0.500960 0.181750 0.467450 -0.515875
O16   O     O_R   0.331100 0.981120 0.457080 -0.498646
O17   O     O_R   0.315560 0.821140 0.532010 -0.526256
O18   O     O_R   0.522630 0.854180 0.531710 -0.507246
O19   O     O_R   0.682160 0.995480 0.544690 -0.457173
O20   O     O_2   0.861781 0.035429 0.087138 -0.494908
O21   O     O_R   0.971812 0.065003 0.142686 -0.745046
O22   O     O_2   0.836215 0.921967 0.444394 -0.489660
O23   O     O_R   0.498360 0.178430 0.555780 -0.518539
O24   O     O_R   0.924727 0.059848 0.410263 -0.711116
O25   O     O_2   0.948357 0.485088 0.358432 -0.527225
O26   O     O_R   0.964101 0.377806 0.397650 -0.714242
O27   O     O_2   0.890701 0.925829 0.561914 -0.500065
O28   O     O_R   0.871851 0.066065 0.587707 -0.689808
O29   O     O_R   0.328690 0.978040 0.538950 -0.497161
O30   O     O_3   0.499990 0.999990 0.500010 -0.246402
O31   O     O_R   0.828710 0.851830 0.052170 -0.463313
O32   O     O_R   0.005980 0.823990 0.047210 -0.498923
O33   O     O_R   0.031900 0.688850 0.050170 -0.514613
O34   O     O_R   0.830940 0.518420 0.048680 -0.494993

loop_
_geom_bond_atom_site_label_1
_geom_bond_atom_site_label_2
_ccdc_geom_bond_type
C94   H19   S    
C81   H13   S    
C66   C68   A    
C7    H41   S    
Cr3   O15   S    
Cr1   O17   S    
C93   C94   A    
C115  C121  A    
C36   C41   S    
C43   H78   S    
C27   H4    S    
C73   C74   T    
Cr1   O1    S    
C47   H67   S    
C9    H42   S    
C50   H56   S    
C24   C27   A    
C44   H5    S    
C72   C76   S    
C109  H30   S    
C36   O15   A    
C97   C98   A    
Cr4   O6    S    
C86   H17   S    
C7    C8    A    
C47   C49   A    
H59   O24   S    
C10   C67   A    
C68   C75   A    
C72   O12   A    
C12   C68   S    
C18   H65   S    
C101  C102  A    
C5    C6    A    
C35   H49   S    
C28   C29   A    
C103  C113  S    
H76   O28   S    
C69   C70   A    
C1    C59   S    
C30   C31   A    
Cr4   O11   S    
Cr6   O11   S    
C48   O16   A    
C21   O25   D    
C15   C16   S    
C21   O26   S    
C15   H55   S    
C23   H72   S    
C16   H51   S    
C28   H33   S    
C116  C117  A    
C18   C19   S    
C104  H27   S    
C62   H9    S    
C108  C120  A    
C77   H15   S    
C107  C113  A    
Cr6   O2    S    
C25   H71   S    
C5    C56   S    
H50   O21   S    
C111  O7    A    
Cr3   O30   S    
C93   C99   A    
C38   H34   S    
C98   H31   S    
C60   C67   S    
C11   C67   A    
C22   C110  S    
C4    H37   S    
C69   C75   A    
C70   C71   A    
C29   C30   A    
C9    C10   A    
C110  C114  A    
C107  H29   S    
C16   H52   S    
C102  H24   S    
C84   O17   A    
Cr3   O29   S    
C18   C69   S    
C119  C121  A    
C83   C88   A    
C96   C108  A    
C49   H77   S    
C78   O33   A    
C118  C119  A    
C18   H66   S    
C34   C120  A    
C107  C109  A    
C27   C96   A    
C102  C103  A    
Cr2   O14   S    
C82   H14   S    
Cr5   O34   S    
C60   O19   A    
C36   O14   A    
C104  C105  A    
Cr3   O23   S    
C85   C92   A    
C44   C46   A    
C61   H7    S    
C50   C51   A    
C110  C112  A    
C77   C79   A    
C100  O3    A    
C38   C39   A    
C32   H48   S    
C59   C61   A    
C22   H75   S    
C63   C64   A    
C8    C118  S    
C1    O13   A    
C30   C40   S    
C25   H70   S    
C76   C77   A    
C45   C56   A    
C38   C41   A    
C79   H18   S    
C3    C8    A    
C76   C82   A    
C20   H62   S    
C71   C73   S    
C14   H58   S    
C17   O24   S    
C86   C87   A    
C80   C81   A    
C19   H63   S    
C11   C26   S    
C26   O27   D    
C53   C54   A    
C1    O4    A    
C23   H73   S    
C24   C34   A    
C112  H21   S    
C95   H26   S    
C84   O29   A    
Cr6   O3    S    
C62   C63   A    
Cr5   O8    S    
C20   H61   S    
C66   H6    S    
C12   O21   S    
C66   C71   A    
C21   C39   S    
C117  H39   S    
C24   H23   S    
C14   C64   S    
C33   C34   S    
Cr1   O4    S    
H68   O26   S    
C94   C95   A    
C9    C56   A    
C42   C48   S    
C108  H1    S    
C2    C92   S    
C13   C115  S    
C25   H69   S    
C52   C58   A    
C109  C114  A    
C116  H32   S    
Cr2   O30   S    
C97   C106  S    
C26   O28   S    
C83   C85   A    
Cr2   O13   S    
C93   C111  S    
C28   C33   A    
C2    O9    A    
C78   O32   A    
Cr1   O18   S    
C55   C57   T    
C46   C57   S    
C37   H12   S    
C70   H8    S    
C13   O5    A    
C100  O31   A    
C119  H44   S    
C51   C58   A    
C42   C43   A    
C48   O1    A    
C3    C4    A    
Cr5   O33   S    
C60   O18   A    
C85   H10   S    
C39   C40   A    
Cr4   O32   S    
C52   C53   A    
C3    H38   S    
C105  C106  A    
C35   C37   A    
C101  C106  A    
C99   H20   S    
C46   C47   A    
C51   H45   S    
C84   C114  S    
C22   H74   S    
C105  H28   S    
C22   C23   S    
C89   O34   A    
C31   C32   A    
C2    O8    A    
C88   C90   S    
C4    C5    A    
C54   C55   S    
C14   H57   S    
Cr4   O5    S    
C95   C97   A    
Cr6   O9    S    
C6    C7    A    
C63   C74   S    
C10   H43   S    
Cr2   O19   S    
C101  H25   S    
C17   C65   S    
Cr5   O11   S    
C52   H3    S    
C32   C33   A    
C13   O10   A    
C19   C20   S    
C35   C40   A    
C45   H36   S    
C50   C54   A    
Cr4   O31   S    
C86   C92   A    
C117  C118  A    
C59   C65   A    
C20   H60   S    
C17   O22   D    
Cr6   O10   S    
C90   C91   T    
C89   O2    A    
C43   C44   A    
C80   C91   S    
C121  H35   S    
C15   H54   S    
C64   C65   A    
C75   C100  S    
Cr1   O30   S    
C112  C113  A    
C23   C25   S    
C37   C41   A    
C61   C62   A    
Cr2   O12   S    
C111  O6    A    
C11   C45   A    
C58   C78   S    
C42   C49   A    
C29   H22   S    
C79   C80   A    
C16   H53   S    
C120  H46   S    
C53   H2    S    
Cr3   O16   S    
C87   C88   A    
C81   C82   A    
C98   C99   A    
C72   O23   A    
C12   O20   D    
C103  C104  A    
C14   C15   S    
Cr5   O7    S    
C87   H16   S    
C6    H40   S    
C89   C96   S    
C83   H11   S    
C115  C116  A    
C19   H64   S    
C31   H47   S    
