data_mof_unit_30797.cif
_audit_creation_date              2012-12-11T15:08:35-0500
_audit_creation_method            fapswitch 2.2
_symmetry_space_group_name_H-M    P1
_symmetry_Int_Tables_number       1
_space_group_crystal_system       triclinic
_cell_length_a                    26.823644
_cell_length_b                    7.074262
_cell_length_c                    11.968772
_cell_angle_alpha                 89.985172
_cell_angle_beta                  103.298559
_cell_angle_gamma                 90.863526
_cell_volume                      2209.99900714

loop_
_atom_site_label
_atom_site_type_symbol
_atom_type_description
_atom_site_fract_x
_atom_site_fract_y
_atom_site_fract_z
_atom_type_partial_charge
O1    O     O_R   0.437360 0.505910 0.042120 -0.537403
O2    O     O_R   0.562640 0.005910 0.957880 -0.541768
O3    O     O_R   0.542480 0.176660 0.157100 -0.536990
O4    O     O_R   0.457520 0.676660 0.842900 -0.535322
C1    C     C_R   0.556597 0.345391 0.197934 0.752609
C2    C     C_R   0.443349 0.843722 0.802060 0.751709
O5    O     O_R   0.436520 0.176250 0.054800 -0.543719
O6    O     O_R   0.563480 0.676250 0.945200 -0.539004
O7    O     O_R   0.455920 0.005040 0.854840 -0.537709
O8    O     O_R   0.544080 0.505040 0.145160 -0.535634
C3    C     C_R   0.417283 0.343241 0.062928 0.716372
C4    C     C_R   0.582683 0.846150 0.937112 0.716529
O9    O     O_3   0.506490 0.338900 0.934520 -0.373463
O10   O     O_3   0.493510 0.838900 0.065480 -0.372128
V1    V     V_3+5 0.498800 0.064400 0.012150 1.487416
V2    V     V_3+5 0.501200 0.564400 0.987850 1.496784
C5    C     C_R   0.681697 0.940553 0.766389 -0.164768
C6    C     C_R   0.317905 0.295843 0.237435 -0.164660
H1    H     H_    0.599876 0.943828 0.730843 0.175131
H2    H     H_    0.399624 0.281651 0.273271 0.173367
H3    H     H_    0.775200 0.980806 0.731507 0.140057
H4    H     H_    0.224271 0.278420 0.273798 0.139148
H5    H     H_    0.682458 0.982360 0.679634 0.139766
H6    H     H_    0.316923 0.267476 0.325930 0.139028
C7    C     C_R   0.632254 0.860512 0.905395 -0.044394
C8    C     C_R   0.367741 0.345123 0.095177 -0.042701
C9    C     C_R   0.867990 0.807294 0.208934 -0.182655
C10   C     C_R   0.132386 0.395736 0.789081 -0.181803
C11   C     C_R   0.822174 0.782401 0.242909 -0.112158
C12   C     C_R   0.178285 0.406123 0.754171 -0.110912
C13   C     C_R   0.775450 0.800309 0.163800 -0.165602
C14   C     C_R   0.224887 0.391635 0.834090 -0.165431
C15   C     C_R   0.773402 0.844938 0.047377 0.071841
C16   C     C_R   0.226718 0.364966 0.952334 0.071992
C17   C     C_R   0.820661 0.873770 0.013608 0.066188
C18   C     C_R   0.179330 0.350195 0.987196 0.066510
C19   C     C_R   0.726151 0.862804 0.963563 0.072040
C20   C     C_R   0.273876 0.351606 0.036960 0.072242
C21   C     C_R   0.727384 0.914513 0.849305 0.134071
C22   C     C_R   0.272384 0.317711 0.153349 0.134868
C23   C     C_R   0.774102 0.942079 0.818590 -0.206810
C24   C     C_R   0.225554 0.303549 0.185113 -0.207161
C25   C     C_R   0.819995 0.920981 0.899017 -0.209399
C26   C     C_R   0.179784 0.320794 0.103741 -0.210456
C27   C     C_R   0.677552 0.832801 0.988931 -0.231989
C28   C     C_R   0.322618 0.368947 0.010437 -0.232556
C29   C     C_R   0.634557 0.916867 0.794908 -0.157926
C30   C     C_R   0.365123 0.305842 0.208008 -0.155883
C31   C     C_R   0.867804 0.853222 0.095264 -0.077394
C32   C     C_R   0.132308 0.367225 0.904606 -0.077566
H7    H     H_    0.673396 0.791514 0.073017 0.098961
H8    H     H_    0.326981 0.396588 0.924634 0.098800
H9    H     H_    0.903866 0.789946 0.271558 0.104034
H10   H     H_    0.096644 0.410729 0.725670 0.104048
H11   H     H_    0.741722 0.778920 0.196907 0.116126
H12   H     H_    0.258695 0.401300 0.800185 0.115728
H13   H     H_    0.822826 0.747571 0.331350 0.137160
H14   H     H_    0.177806 0.427263 0.664311 0.136553
H15   H     H_    0.855094 0.943741 0.870509 0.131462
H16   H     H_    0.144601 0.309166 0.133154 0.131388
C33   C     C_R   0.091383 0.863835 0.311366 -0.032910
C34   C     C_R   0.908508 0.354705 0.688956 -0.033523
C35   C     C_R   0.409017 0.848911 0.687405 -0.103690
C36   C     C_R   0.590941 0.357206 0.312402 -0.103168
C37   C     C_R   0.105594 0.887122 0.517409 -0.165549
C38   C     C_R   0.893827 0.292750 0.485723 -0.164463
C39   C     C_R   0.072185 0.882821 0.409559 -0.177444
C40   C     C_R   0.927404 0.312673 0.592736 -0.177560
C41   C     C_R   0.144175 0.850165 0.320821 -0.219074
C42   C     C_R   0.855857 0.375876 0.678464 -0.219591
C43   C     C_R   0.179210 0.857421 0.429372 0.078825
C44   C     C_R   0.820649 0.353620 0.570913 0.078062
C45   C     C_R   0.158707 0.875527 0.528139 0.131768
C46   C     C_R   0.840846 0.312040 0.474055 0.131945
C47   C     C_R   0.233627 0.849629 0.443074 0.046777
C48   C     C_R   0.766347 0.369210 0.556506 0.045741
C49   C     C_R   0.266528 0.858977 0.555808 0.069408
C50   C     C_R   0.733264 0.343940 0.444905 0.069684
C51   C     C_R   0.243899 0.875942 0.650945 -0.198137
C52   C     C_R   0.755587 0.303451 0.351621 -0.197619
C53   C     C_R   0.191202 0.883966 0.637021 -0.203692
C54   C     C_R   0.808168 0.288068 0.366253 -0.204895
C55   C     C_R   0.256243 0.834099 0.347858 -0.193961
C56   C     C_R   0.744015 0.408169 0.649967 -0.195340
C57   C     C_R   0.308938 0.829146 0.361642 -0.182170
C58   C     C_R   0.691412 0.421218 0.635576 -0.182133
C59   C     C_R   0.341444 0.838229 0.470486 0.063948
C60   C     C_R   0.658734 0.397330 0.527753 0.063577
C61   C     C_R   0.320978 0.852048 0.569438 0.092175
C62   C     C_R   0.678939 0.359307 0.430537 0.092081
C63   C     C_R   0.394554 0.832600 0.480731 -0.145713
C64   C     C_R   0.605728 0.412438 0.516691 -0.146639
C65   C     C_R   0.428258 0.837717 0.588295 0.288544
C66   C     C_R   0.571909 0.392836 0.409837 0.287502
C67   C     C_R   0.356064 0.856966 0.677986 -0.274540
C68   C     C_R   0.643742 0.339790 0.322767 -0.273508
H17   H     H_    0.175715 0.897943 0.712670 0.140803
H18   H     H_    0.823411 0.255975 0.292086 0.141704
H19   H     H_    0.324430 0.817877 0.285843 0.141373
H20   H     H_    0.676141 0.450923 0.710028 0.142291
H21   H     H_    0.089914 0.901689 0.592698 0.115768
H22   H     H_    0.909262 0.260208 0.411948 0.115399
H23   H     H_    0.031362 0.894944 0.402561 0.101241
H24   H     H_    0.968111 0.294628 0.600673 0.101762
H25   H     H_    0.156324 0.837366 0.241481 0.103039
H26   H     H_    0.843936 0.406639 0.756413 0.103151
H27   H     H_    0.265788 0.884977 0.738245 0.130227
H28   H     H_    0.733541 0.281145 0.265347 0.130419
H29   H     H_    0.234396 0.826122 0.260494 0.135274
H30   H     H_    0.766021 0.429077 0.736407 0.135419
H31   H     H_    0.409974 0.823069 0.404784 0.168439
H32   H     H_    0.590498 0.440800 0.591334 0.170235
O11   O     O_R   0.955980 0.206520 0.854760 -0.539767
O12   O     O_R   0.044020 0.706520 0.145240 -0.537662
O13   O     O_R   0.063490 0.536770 0.945200 -0.540111
O14   O     O_R   0.936510 0.036770 0.054800 -0.541876
C69   C     C_R   0.082820 0.369811 0.937659 0.680557
C70   C     C_R   0.917280 0.867042 0.062557 0.680716
O15   O     O_R   0.957530 0.536190 0.842880 -0.540630
O16   O     O_R   0.042470 0.036190 0.157120 -0.542793
O17   O     O_R   0.937350 0.707210 0.042130 -0.536507
O18   O     O_R   0.062650 0.207210 0.957870 -0.538955
C71   C     C_R   0.943276 0.366810 0.802471 0.692183
C72   C     C_R   0.056728 0.868598 0.197568 0.691458
O19   O     O_3   0.993540 0.373870 0.065440 -0.373089
O20   O     O_3   0.006460 0.873870 0.934560 -0.373441
V3    V     V_3+5 0.001200 0.648440 0.987860 1.423057
V4    V     V_3+5 0.998800 0.148440 0.012140 1.415610
H33   H     H_    0.343777 0.863755 0.757424 0.108950
H34   H     H_    0.655840 0.314044 0.244427 0.109077
Br1   Br    Br    0.500285 0.829470 0.596087 -0.548900
Br2   Br    Br    0.500011 0.415614 0.400493 -0.545703

loop_
_geom_bond_atom_site_label_1
_geom_bond_atom_site_label_2
_ccdc_geom_bond_type
C38   C40   A    
O4    V2    S    
O20   V3    S    
C59   C63   A    
C9    C11   A    
C32   C69   S    
C23   C25   A    
C38   H22   S    
O1    C3    A    
C37   H21   S    
C44   C48   A    
O2    C4    A    
C17   C25   A    
C48   C56   A    
C2    O7    A    
C37   C45   A    
C21   C23   A    
O11   V4    S    
C50   C62   A    
O5    C3    A    
C49   C61   A    
C5    H5    S    
C33   C72   S    
C6    H6    S    
C48   C50   A    
O17   V3    S    
C58   C60   A    
C27   H7    S    
C38   C46   A    
C35   C67   A    
O13   V3    S    
C34   C42   A    
C5    C21   A    
C63   H31   S    
C41   C43   A    
C6    C22   A    
C10   C32   A    
C60   C64   A    
C18   C32   A    
C37   C39   A    
C17   C31   A    
O19   V4    S    
O20   V4    S    
C13   C15   A    
C12   C14   A    
C58   H20   S    
C7    C29   A    
C16   C18   A    
C25   H15   S    
O12   C72   A    
O5    V1    S    
O6    V2    S    
C54   H18   S    
C24   C26   A    
C46   C54   A    
C45   C53   A    
C34   C71   S    
C49   C51   A    
C43   C47   A    
C57   C59   A    
C39   H23   S    
C40   H24   S    
C36   C68   A    
C44   C46   A    
C42   H26   S    
C51   C53   A    
C41   H25   S    
C64   H32   S    
C3    C8    S    
O13   C69   A    
C56   H30   S    
C1    C36   S    
C70   O17   A    
C14   C16   A    
C2    C35   S    
C61   C67   A    
C69   O18   A    
C57   H19   S    
C63   C65   A    
C33   C39   A    
C31   C70   S    
O11   C71   A    
O6    C4    A    
C9    H9    S    
C50   C52   A    
C51   H27   S    
O1    V2    S    
O19   V3    S    
O2    V1    S    
C47   C49   A    
H2    C30   S    
H3    C23   S    
C52   C54   A    
C55   C57   A    
C60   C62   A    
O15   C71   A    
C59   C61   A    
C18   C26   A    
O4    C2    A    
C19   C27   A    
C7    C27   A    
O3    V1    S    
C68   H34   S    
C33   C41   A    
C35   C65   A    
C10   H10   S    
C16   C20   A    
C5    C29   A    
C11   H13   S    
O3    C1    A    
C6    C30   A    
O16   V4    S    
C62   C68   A    
C8    C30   A    
C55   H29   S    
C52   H28   S    
C34   C40   A    
C4    C7    S    
C10   C12   A    
O7    V1    S    
C36   C66   A    
C1    O8    A    
C11   C13   A    
O8    V2    S    
C28   H8    S    
C20   C22   A    
O12   V3    S    
C47   C55   A    
C64   C66   A    
H4    C24   S    
C53   H17   S    
C26   H16   S    
C12   H14   S    
C22   C24   A    
C15   C17   A    
O14   C70   A    
C15   C19   A    
H1    C29   S    
O18   V4    S    
C66   Br2   S    
C20   C28   A    
C8    C28   A    
C9    C31   A    
C19   C21   A    
O14   V4    S    
O9    V2    S    
C43   C45   A    
C67   H33   S    
O10   V1    S    
C56   C58   A    
C42   C44   A    
C13   H11   S    
C65   Br1   S    
C14   H12   S    
O16   C72   A    
O15   V3    S    
