data_mof_unit_21249.cif
_audit_creation_date              2012-12-11T18:04:58-0500
_audit_creation_method            fapswitch 2.2
_symmetry_space_group_name_H-M    P1
_symmetry_Int_Tables_number       1
_space_group_crystal_system       triclinic
_cell_length_a                    8.420174
_cell_length_b                    12.691543
_cell_length_c                    22.789086
_cell_angle_alpha                 96.27739
_cell_angle_beta                  89.658202
_cell_angle_gamma                 98.083126
_cell_volume                      2396.59427071

loop_
_atom_site_label
_atom_site_type_symbol
_atom_type_description
_atom_site_fract_x
_atom_site_fract_y
_atom_site_fract_z
_atom_type_partial_charge
Ba1   Ba    Ba6+2 0.856210 0.551220 0.472190 1.690837
Ba2   Ba    Ba6+2 0.333620 0.448870 0.527810 1.664337
C1    C     C_3   0.632749 0.898853 0.257807 0.752323
C2    C     C_R   0.128241 0.590612 0.939633 -0.025510
C3    C     C_R   0.083359 0.584464 0.879213 0.583338
C4    C     C_3   0.101437 0.778222 0.312456 0.344745
C5    C     C_R   0.931816 0.410484 0.885146 0.560519
C6    C     C_R   0.965801 0.417629 0.946175 -0.017071
C7    C     C_R   0.066438 0.507364 0.973392 -0.053331
C8    C     C_R   0.232802 0.678370 0.967294 -0.092182
C9    C     C_R   0.272427 0.683778 0.027242 -0.076343
C10   C     C_R   0.209002 0.601989 0.061758 -0.022551
C11   C     C_R   0.106313 0.513282 0.034522 -0.053149
C12   C     C_3   0.594673 0.806635 0.296168 0.397157
C13   C     C_R   0.901942 0.335838 0.980518 -0.085375
C14   C     C_R   0.940213 0.342145 0.040455 -0.096435
C15   C     C_R   0.044372 0.430047 0.068048 -0.019359
C16   C     C_3   0.083596 0.810934 0.250891 -0.309675
C17   C     C_R   0.089486 0.435341 0.128102 0.573693
C18   C     C_R   0.246973 0.607239 0.122638 0.573764
C19   C     C_2   0.791370 0.442224 0.769806 -0.016740
C20   C     C_3   0.763164 0.406985 0.704775 -0.072580
C21   C     C_1   0.009205 0.526990 0.687097 -0.009556
C22   C     C_2   0.057972 0.527473 0.742897 -0.099644
C23   C     C_3   0.486663 0.325296 0.351608 0.289967
C24   C     C_2   0.940665 0.487993 0.789173 0.205203
C25   C     C_R   0.396141 0.561648 0.235792 -0.078550
C26   C     C_R   0.440605 0.571816 0.295569 -0.036812
C27   C     C_R   0.171061 0.501359 0.321835 0.106680
C28   C     C_3   0.082916 0.793521 0.632801 0.684143
C29   C     C_R   0.123857 0.496787 0.261890 -0.141481
C30   C     C_R   0.235232 0.528978 0.217950 0.170369
C31   C     C_2   0.865897 0.479440 0.667441 -0.212609
C32   C     C_R   0.756565 0.178602 0.513665 -0.243380
C33   C     C_R   0.429863 0.810483 0.475664 -0.233504
C34   C     C_3   0.463553 0.313784 0.284041 0.210434
C35   C     C_R   0.403714 0.987775 0.452720 -0.129771
C36   C     C_R   0.341163 0.880320 0.451691 -0.001099
C37   C     C_R   0.577249 0.847214 0.504434 0.059387
C38   C     C_R   0.640016 0.958369 0.507501 -0.066654
C39   C     C_R   0.553147 0.028465 0.479631 -0.056497
C40   C     C_3   0.028254 0.845477 0.692127 -0.352264
C41   C     C_R   0.615227 0.138581 0.481815 0.038759
C42   C     C_R   0.845512 0.111244 0.539163 -0.029175
C43   C     C_R   0.785088 0.002348 0.537905 -0.092873
C44   C     C_3   0.030965 0.203213 0.309028 1.005370
C45   C     C_3   0.997627 0.200340 0.682871 0.336774
C46   C     C_3   0.106140 0.164881 0.250831 -0.174134
C47   C     C_3   0.659599 0.698538 0.653907 0.329951
C48   C     C_3   0.610022 0.735889 0.716655 0.264174
C49   C     C_3   0.754777 0.181679 0.317903 0.231268
C50   C     C_3   0.015019 0.141807 0.404545 0.323985
C51   C     C_3   0.569629 0.683980 0.810132 0.190964
C52   C     C_3   0.442731 0.990204 0.310940 0.065461
C53   C     C_3   0.588478 0.339251 0.195393 0.222165
C54   C     C_3   0.706447 0.936611 0.162801 0.249217
C55   C     C_3   0.372890 0.160880 0.840227 0.225208
C56   C     C_3   0.945915 0.144454 0.737141 -0.370255
C57   C     C_3   0.296020 0.920640 0.607601 0.292522
C58   C     C_3   0.495674 0.185537 0.698768 0.393278
C59   C     C_3   0.440786 0.106355 0.743519 0.331672
C60   C     C_R   0.326691 0.547317 0.338458 -0.296852
H1    H     H_    0.581075 0.837166 0.343242 -0.142511
H2    H     H_    0.741807 0.950448 0.276664 -0.041336
H3    H     H_    0.678482 0.816500 0.731145 0.029467
H4    H     H_    0.479281 0.742943 0.715479 0.034822
H5    H     H_    0.479184 0.762376 0.278619 -0.020362
H6    H     H_    0.396420 0.369822 0.373993 0.021575
H7    H     H_    0.604697 0.373018 0.362982 0.093192
H8    H     H_    0.358388 0.351625 0.272977 0.013085
H9    H     H_    0.437823 0.228298 0.266876 0.037916
H10   H     H_    0.088282 0.271808 0.696065 0.067851
H11   H     H_    0.888886 0.226691 0.664778 -0.087062
H12   H     H_    0.129474 0.892814 0.718326 0.099286
H13   H     H_    0.051404 0.121471 0.758939 0.107535
H14   H     H_    0.857102 0.072529 0.724075 0.108950
H15   H     H_    0.628853 0.197890 0.699622 -0.082181
H16   H     H_    0.452474 0.150317 0.653677 -0.059459
H17   H     H_    0.493679 0.031406 0.730896 -0.036451
H18   H     H_    0.307950 0.084081 0.740316 -0.014289
H19   H     H_    0.006856 0.710498 0.318690 0.104841
H20   H     H_    0.887866 0.277581 0.065138 0.108405
H21   H     H_    0.821312 0.266578 0.961165 0.121407
H22   H     H_    0.354135 0.752431 0.046468 0.118205
H23   H     H_    0.939863 0.898695 0.683849 0.110791
H24   H     H_    0.487707 0.579981 0.203482 0.119502
H25   H     H_    0.285130 0.743219 0.942547 0.107703
H26   H     H_    0.697500 0.417918 0.800511 0.117833
H27   H     H_    0.002591 0.462204 0.249201 0.177413
H28   H     H_    0.364227 0.553203 0.384145 0.074888
H29   H     H_    0.220157 0.750734 0.315681 -0.081787
H30   H     H_    0.831137 0.476493 0.621456 0.057220
H31   H     H_    0.332562 0.039035 0.433149 0.092356
H32   H     H_    0.853147 0.953796 0.560825 0.145774
H33   H     H_    0.804001 0.262642 0.515658 0.059067
H34   H     H_    0.972068 0.782615 0.719054 0.075328
H35   H     H_    0.378949 0.727689 0.475033 0.071463
H36   H     H_    0.177766 0.878632 0.243047 0.147561
H37   H     H_    0.977480 0.744730 0.611606 0.042405
H38   H     H_    0.742966 0.232591 0.359688 0.035469
H39   H     H_    0.762966 0.099704 0.327975 0.030818
H40   H     H_    0.653573 0.171026 0.286826 0.099956
H41   H     H_    0.896765 0.163117 0.417692 -0.176153
H42   H     H_    0.105578 0.209282 0.420731 0.088322
H43   H     H_    0.034441 0.072023 0.427728 0.089716
H44   H     H_    0.436584 0.671004 0.805263 0.079570
H45   H     H_    0.127992 0.229783 0.221010 0.113383
H46   H     H_    0.612246 0.766674 0.830755 0.027621
H47   H     H_    0.601067 0.627018 0.840257 0.063143
H48   H     H_    0.536746 0.015461 0.344942 -0.011073
H49   H     H_    0.361570 0.924027 0.326352 0.059002
H50   H     H_    0.373302 0.056056 0.308065 0.136609
H51   H     H_    0.469878 0.352300 0.178311 -0.004940
H52   H     H_    0.610346 0.255666 0.181666 0.044127
H53   H     H_    0.681665 0.394720 0.175060 0.089993
H54   H     H_    0.769016 0.013661 0.186019 -0.001667
H55   H     H_    0.593754 0.952602 0.141478 0.083259
H56   H     H_    0.024770 0.095484 0.227735 0.066294
H57   H     H_    0.787930 0.908500 0.127593 0.036006
H58   H     H_    0.095518 0.741447 0.217591 0.110546
H59   H     H_    0.885620 0.198423 0.768277 0.157895
H60   H     H_    0.301308 0.222123 0.827708 0.050281
H61   H     H_    0.424078 0.188435 0.884736 0.066879
H62   H     H_    0.295006 0.083535 0.843235 0.009061
H63   H     H_    0.183845 0.550730 0.754300 0.122176
H64   H     H_    0.964414 0.836969 0.245119 0.154270
H65   H     H_    0.381555 0.862756 0.597323 0.007985
H66   H     H_    0.327676 0.985961 0.579716 0.074304
H67   H     H_    0.218112 0.133084 0.258708 0.037266
H68   H     H_    0.311351 0.956953 0.654382 -0.027037
H69   H     H_    0.774601 0.667495 0.655875 -0.085673
H70   H     H_    0.570233 0.632501 0.634628 0.097143
N1    N     N_R   0.985748 0.494883 0.852044 -0.425385
N2    N     N_R   0.188649 0.524072 0.155584 -0.423233
O1    O     O_2   0.890290 0.440320 0.360790 -0.466364
O2    O     O_2   0.176600 0.114462 0.537015 -0.477019
O3    O     O_3   0.066676 0.129383 0.642274 -0.585906
O4    O     O_3   0.130840 0.441440 0.431840 -0.488483
O5    O     O_3   0.574800 0.630800 0.528960 -0.496235
O6    O     O_2   0.344900 0.234690 0.472540 -0.453611
O7    O     O_3   0.474201 0.223546 0.371686 -0.699503
O8    O     O_2   0.468953 0.483326 0.704439 -0.454773
O9    O     O_3   0.431753 0.281288 0.714121 -0.595054
O10   O     O_2   0.128993 0.659925 0.851340 -0.617768
O11   O     O_2   0.855907 0.327556 0.861372 -0.607538
O12   O     O_3   0.676555 0.786729 0.621218 -0.706488
O13   O     O_2   0.042626 0.359331 0.155440 -0.622233
O14   O     O_2   0.330858 0.686973 0.146262 -0.585241
O15   O     O_3   0.672400 0.637930 0.395560 -0.476546
O16   O     O_2   0.767148 0.548778 0.292803 -0.445727
O17   O     O_3   0.133499 0.291673 0.337326 -0.710744
O18   O     O_3   0.719408 0.744252 0.292619 -0.617939
O19   O     O_2   0.844800 0.765340 0.527490 -0.442572
O20   O     O_3   0.090520 0.693800 0.424220 -0.493565
O21   O     O_2   0.015262 0.882882 0.465618 -0.443641
O22   O     O_3   0.885795 0.232919 0.290378 -0.675994
O23   O     O_3   0.086818 0.865622 0.354589 -0.596570
O24   O     O_3   0.022381 0.113358 0.342889 -0.700680
O25   O     O_3   0.644731 0.662705 0.755606 -0.650843
O26   O     O_3   0.501629 0.958143 0.254634 -0.686799
O27   O     O_3   0.601598 0.361850 0.257054 -0.625243
O28   O     O_3   0.668351 0.854157 0.200043 -0.624436
O29   O     O_3   0.500122 0.149529 0.800742 -0.618164
O30   O     O_3   0.136996 0.872339 0.594501 -0.636362
O31   O     O_2   0.299410 0.559720 0.639240 -0.445724
O32   O     O_3   0.058870 0.558650 0.568170 -0.488428
O33   O     O_3   0.517310 0.362160 0.604450 -0.468806
O34   O     O_3   0.202098 0.729810 0.642088 -0.661514
O35   O     O_3   0.614910 0.369290 0.471050 -0.491256
O36   O     O_3   0.099190 0.306290 0.575790 -0.483356
P1    P     P_3+3 0.057140 0.408270 0.369700 0.996960
P2    P     P_3+3 0.667360 0.749400 0.544670 0.963583
P3    P     P_3+3 0.135315 0.831869 0.424109 0.987305
P4    P     P_3+3 0.132580 0.591820 0.630310 0.972107
P5    P     P_3+3 0.045348 0.166896 0.571807 0.970967
P6    P     P_3+3 0.648101 0.622717 0.318916 0.979404
P7    P     P_3+3 0.518541 0.238407 0.447213 0.908866
P8    P     P_3+3 0.547105 0.384302 0.681406 0.983338

loop_
_geom_bond_atom_site_label_1
_geom_bond_atom_site_label_2
_ccdc_geom_bond_type
C6    C7    A    
O16   P6    D    
C19   C24   D    
C57   H68   S    
O12   P2    S    
C22   H63   S    
C54   H55   S    
C42   P5    S    
C28   O30   S    
C20   P8    S    
Ba1   O1    S    
C56   H14   S    
C5    C6    A    
C50   H41   S    
C21   P4    S    
C1    H2    S    
C49   H40   S    
O34   P4    S    
C47   H69   S    
C58   H16   S    
C35   C36   A    
O7    P7    S    
Ba2   O5    S    
C22   C24   S    
C34   O27   S    
O3    P5    S    
C58   O9    S    
C46   H45   S    
C59   H18   S    
C57   H65   S    
C4    H29   S    
C44   O24   S    
C54   O28   S    
C49   H38   S    
O17   P1    S    
C52   H48   S    
Ba1   Ba2   S    
O9    P8    S    
C7    C11   A    
C57   O30   S    
C1    O28   S    
C55   H60   S    
C51   H44   S    
C41   P7    S    
C14   C15   A    
C21   C31   D    
C47   O12   S    
C21   C22   D    
C18   O14   D    
Ba1   O15   S    
O1    P1    D    
Ba2   O32   S    
C5    O11   D    
Ba1   O5    S    
C34   H9    S    
O21   P3    D    
C44   O17   S    
O4    P1    S    
C19   H26   S    
C4    H19   S    
C19   C20   S    
C39   C41   A    
C10   C18   A    
C23   H6    S    
C4    C16   S    
C43   H32   S    
O35   P7    S    
C34   H8    S    
C56   H13   S    
O36   P5    S    
C50   O24   S    
C38   C43   A    
C8    H25   S    
C47   H70   S    
C44   C46   S    
C58   H15   S    
O32   P4    S    
C51   O25   S    
C35   H31   S    
Ba2   O4    S    
C33   C36   A    
C32   C42   A    
C32   H33   S    
C45   H11   S    
C31   H30   S    
C37   C38   A    
C26   P6    S    
C3    O10   D    
C46   H56   S    
C53   H51   S    
C29   H27   S    
O31   P4    D    
C28   H37   S    
Ba1   P1    S    
C17   O13   D    
C58   C59   S    
C17   N2    Am   
C25   H24   S    
C33   C37   A    
C37   P2    S    
C55   H61   S    
C29   C30   A    
C55   O29   S    
C12   H5    S    
C45   O3    S    
C14   H20   S    
O6    P7    D    
C54   H54   S    
C52   H50   S    
O5    P2    S    
C40   H23   S    
C27   P1    S    
Ba1   O19   S    
C48   H4    S    
Ba2   O31   S    
C53   O27   S    
C40   H12   S    
Ba2   O36   S    
C3    N1    Am   
C38   C39   A    
C50   H43   S    
C6    C13   A    
C1    O26   S    
C48   O25   S    
C54   H57   S    
C40   H34   S    
C46   H67   S    
C23   H7    S    
C2    C8    A    
C16   H58   S    
C4    O23   S    
C42   C43   A    
C51   H47   S    
C49   O22   S    
C20   C31   S    
C27   C60   A    
C50   H42   S    
C56   H59   S    
O20   P3    S    
C25   C30   A    
C59   O29   S    
C23   O7    S    
C32   C41   A    
C2    C3    A    
C36   P3    S    
C13   H21   S    
C9    C10   A    
C5    N1    Am   
C53   H52   S    
C1    C12   S    
C9    H22   S    
C49   H39   S    
C44   O22   S    
Ba1   P2    S    
C11   C15   A    
O15   P6    S    
Ba2   O6    S    
C57   H66   S    
C28   O34   S    
C27   C29   A    
C24   N1    S    
C23   C34   S    
C16   H64   S    
C45   C56   S    
C30   N2    S    
C51   H46   S    
O8    P8    D    
C53   H53   S    
Ba1   O32   S    
C59   H17   S    
C12   H1    S    
C60   H28   S    
O19   P2    D    
Ba1   O35   S    
C15   C17   A    
C52   H49   S    
C35   C39   A    
Ba1   O20   S    
C48   H3    S    
C45   H10   S    
O2    P5    D    
C8    C9    A    
Ba2   O35   S    
C52   O26   S    
O18   P6    S    
O33   P8    S    
C10   C11   A    
C47   C48   S    
C12   O18   S    
C25   C26   A    
C28   C40   S    
C16   H36   S    
C18   N2    Am   
C2    C7    A    
C33   H35   S    
Ba2   O33   S    
Ba2   P4    S    
Ba1   O4    S    
C13   C14   A    
O23   P3    S    
C55   H62   S    
C26   C60   A    
