data_mof_unit_9170.cif
_audit_creation_date              2012-12-10T16:51:32-0500
_audit_creation_method            fapswitch 2.2
_symmetry_space_group_name_H-M    P1
_symmetry_Int_Tables_number       1
_space_group_crystal_system       triclinic
_cell_length_a                    7.831548
_cell_length_b                    8.568864
_cell_length_c                    12.065324
_cell_angle_alpha                 92.291773
_cell_angle_beta                  101.148765
_cell_angle_gamma                 94.216465
_cell_volume                      791.026879708

loop_
_atom_site_label
_atom_site_type_symbol
_atom_type_description
_atom_site_fract_x
_atom_site_fract_y
_atom_site_fract_z
_atom_type_partial_charge
C1    C     C_R   0.044620 0.794731 0.497193 0.972735
C2    C     C_R   0.158497 0.503393 0.832808 -0.120449
C3    C     C_2   0.067817 0.958496 0.495665 -0.388531
C4    C     C_R   0.105919 0.504024 0.710549 0.850275
C5    C     C_2   0.932178 0.041515 0.504306 -0.372360
C6    C     C_R   0.955367 0.205265 0.502774 0.954042
C7    C     C_R   0.892810 0.488944 0.289621 0.882866
C8    C     C_R   0.799401 0.272600 0.009367 -0.178256
C9    C     C_R   0.831956 0.458045 0.169329 -0.117424
C10   C     C_R   0.071476 0.591396 0.901798 -0.182982
C11   C     C_R   0.140996 0.616698 0.016593 -0.129611
C12   C     C_R   0.396384 0.483873 0.990298 0.075075
C13   C     C_R   0.303412 0.565114 0.060799 -0.171411
C14   C     C_1   0.661379 0.686802 0.155291 0.139068
C15   C     C_R   0.309693 0.432638 0.880570 0.081979
C16   C     C_R   0.570356 0.446589 0.026336 0.029591
C17   C     C_R   0.635705 0.325253 0.966539 0.154592
C18   C     C_R   0.535907 0.257371 0.865618 -0.230825
C19   C     C_R   0.376412 0.313155 0.821421 -0.198258
C20   C     C_R   0.683465 0.527165 0.118487 -0.070926
C21   C     C_R   0.893531 0.333850 0.113580 -0.196186
H1    H     H_    0.010131 0.280744 0.152481 0.163137
H2    H     H_    0.303249 0.258519 0.742333 0.166437
H3    H     H_    0.195581 0.010155 0.487524 0.178606
H4    H     H_    0.804418 0.989864 0.512459 0.181138
H5    H     H_    0.469566 0.374998 0.416198 0.190033
H6    H     H_    0.530426 0.625002 0.583796 0.190639
H7    H     H_    0.583037 0.163939 0.819440 0.146329
H8    H     H_    0.849205 0.178181 0.965808 0.139888
H9    H     H_    0.952201 0.643317 0.866622 0.157872
H10   H     H_    0.352367 0.585470 0.150678 0.155985
H11   H     H_    0.072129 0.681206 0.070597 0.148653
N1    N     N_2   0.434800 0.456690 0.470850 -0.172162
N2    N     N_2   0.565200 0.543310 0.529150 -0.168600
N3    N     N_1   0.644754 0.814084 0.184689 -0.206702
O1    O     O_R   0.893060 0.738880 0.507150 -0.607742
O2    O     O_R   0.172250 0.711130 0.488470 -0.623832
O3    O     O_R   0.944700 0.520730 0.667600 -0.613095
O4    O     O_R   0.223890 0.492980 0.648920 -0.616976
O5    O     O_R   0.827750 0.288870 0.511530 -0.624140
O6    O     O_R   0.106940 0.261120 0.492850 -0.618036
O7    O     O_R   0.776110 0.507020 0.351080 -0.607268
O8    O     O_R   0.055300 0.479270 0.332400 -0.620547
Zn1   Zn    Zn3+2 0.813580 0.518530 0.512470 0.944713
Zn2   Zn    Zn3+2 0.186420 0.481470 0.487530 0.932667

loop_
_geom_bond_atom_site_label_1
_geom_bond_atom_site_label_2
_ccdc_geom_bond_type
C2    C4    S    
C4    O4    A    
O3    Zn1   S    
C7    O8    A    
N1    Zn2   S    
C10   H9    S    
H5    N1    S    
C19   H2    S    
C8    C17   A    
C12   C15   A    
C16   C20   A    
O4    Zn2   S    
C8    C21   A    
N2    Zn1   S    
O8    Zn2   S    
C21   H1    S    
C15   C19   A    
C2    C15   A    
C11   C13   A    
C9    C21   A    
C3    H3    S    
O7    Zn1   S    
C5    H4    S    
C8    H8    S    
C4    O3    A    
C11   H11   S    
N1    N2    D    
H6    N2    S    
C5    C6    S    
C6    O5    A    
O1    Zn1   S    
C10   C11   A    
O2    Zn2   S    
C2    C10   A    
C14   C20   S    
O5    Zn1   S    
C18   H7    S    
C12   C13   A    
C17   C18   A    
C18   C19   A    
C7    O7    A    
C14   N3    T    
C7    C9    S    
O6    Zn2   S    
C16   C17   A    
C9    C20   A    
C3    C5    D    
C13   H10   S    
C12   C16   A    
C1    O1    A    
C1    O2    A    
C1    C3    S    
C6    O6    A    
