data_mof_unit_6983.cif
_audit_creation_date              2012-12-10T16:54:34-0500
_audit_creation_method            fapswitch 2.2
_symmetry_space_group_name_H-M    P1
_symmetry_Int_Tables_number       1
_space_group_crystal_system       triclinic
_cell_length_a                    15.111325
_cell_length_b                    10.934648
_cell_length_c                    9.692415
_cell_angle_alpha                 90.257866
_cell_angle_beta                  89.536613
_cell_angle_gamma                 90.378339
_cell_volume                      1601.44263701

loop_
_atom_site_label
_atom_site_type_symbol
_atom_type_description
_atom_site_fract_x
_atom_site_fract_y
_atom_site_fract_z
_atom_type_partial_charge
C1    C     C_R   0.498928 0.265361 0.499857 0.840668
C2    C     C_R   0.906878 0.516120 0.617777 0.123446
C3    C     C_R   0.958360 0.418996 0.256967 -0.270545
C4    C     C_R   0.050691 0.420245 0.257089 0.230708
C5    C     C_R   0.095704 0.455652 0.377729 0.074326
C6    C     C_R   0.047460 0.485910 0.498595 0.026321
C7    C     C_R   0.092264 0.517921 0.621197 0.132320
C8    C     C_R   0.044185 0.546993 0.740929 -0.219764
C9    C     C_R   0.952039 0.546105 0.739239 -0.201590
C10   C     C_R   0.187958 0.462491 0.380002 -0.230832
C11   C     C_R   0.232297 0.494749 0.501108 -0.090259
C12   C     C_R   0.328799 0.499187 0.500550 0.813177
C13   C     C_R   0.184506 0.521063 0.621874 -0.246635
C14   C     C_2   0.499031 0.932553 0.386962 -0.152570
C15   C     C_2   0.505865 0.866717 0.502717 -0.320465
C16   C     C_2   0.502870 0.066547 0.386584 -0.164700
C17   C     C_2   0.494501 0.133382 0.502011 -0.313954
C18   C     C_2   0.449526 0.428687 0.923311 0.082100
C19   C     C_2   0.460262 0.416466 0.077596 -0.041160
C20   C     C_R   0.501269 0.734664 0.500296 0.844149
C21   C     C_R   0.671469 0.495900 0.498675 0.801797
C22   C     C_R   0.814855 0.517376 0.615705 -0.291650
C23   C     C_R   0.768707 0.488561 0.494791 -0.142004
C24   C     C_R   0.816208 0.455193 0.372778 0.219187
C25   C     C_R   0.909353 0.453506 0.374796 0.039480
C26   C     C_R   0.954448 0.485198 0.496936 0.005208
Cu1   Cu    Cu3+1 0.500020 0.500020 0.638630 0.971318
Cu2   Cu    Cu3+1 0.499980 0.499980 0.361370 0.932885
H1    H     H_    0.779021 0.542735 0.708829 0.172225
H2    H     H_    0.516922 0.908181 0.602690 0.139381
H3    H     H_    0.511458 0.110865 0.287220 0.162062
H4    H     H_    0.482433 0.092673 0.601968 0.145689
H5    H     H_    0.397112 0.376215 0.874674 0.073364
H6    H     H_    0.431097 0.337097 0.127409 0.127344
H7    H     H_    0.512044 0.582018 0.109027 0.233843
H8    H     H_    0.925632 0.389902 0.163365 0.184785
H9    H     H_    0.225846 0.441901 0.287557 0.191636
H10   H     H_    0.218979 0.545842 0.715744 0.153410
H11   H     H_    0.077866 0.571209 0.835589 0.139179
H12   H     H_    0.916055 0.569445 0.832813 0.136027
H13   H     H_    0.491611 0.887336 0.287649 0.160551
N1    N     N_2   0.499020 0.498660 0.846910 0.019411
N2    N     N_2   0.499000 0.498630 0.153040 -0.267960
O1    O     O_R   0.500020 0.321960 0.617040 -0.580974
O2    O     O_R   0.499980 0.321920 0.382900 -0.584529
O3    O     O_R   0.370270 0.499990 0.617090 -0.599488
O4    O     O_R   0.370240 0.499950 0.382940 -0.585816
O5    O     O_R   0.500020 0.678080 0.617100 -0.601874
O6    O     O_R   0.499980 0.678040 0.382960 -0.585217
O7    O     O_R   0.629760 0.500050 0.617060 -0.554667
O8    O     O_R   0.629730 0.500010 0.382910 -0.575978
O9    O     O_3   0.578269 0.527258 0.902255 -0.497349
C27   C     C_3   0.593923 0.653012 0.880817 -0.177135
H14   H     H_    0.532358 0.708434 0.887218 0.132535
H15   H     H_    0.628883 0.668910 0.781728 0.185585
H16   H     H_    0.638370 0.686830 0.963336 0.108851
N3    N     N_2   0.772120 0.417232 0.249855 -0.436828
H17   H     H_    0.719121 0.358425 0.262359 0.273665
C28   C     C_3   0.760911 0.511071 0.146369 -0.634141
H18   H     H_    0.715918 0.583771 0.184416 0.242448
H19   H     H_    0.732403 0.469537 0.051804 0.251457
H20   H     H_    0.825503 0.553590 0.118544 0.204129
N4    N     N_2   0.097626 0.386957 0.134672 -0.443351
H21   H     H_    0.066404 0.412701 0.045173 0.251325
C29   C     C_3   0.124419 0.260240 0.130065 -0.706656
H22   H     H_    0.065239 0.199376 0.127325 0.231660
H23   H     H_    0.165035 0.237454 0.221339 0.234953
H24   H     H_    0.164904 0.243795 0.035761 0.225491

loop_
_geom_bond_atom_site_label_1
_geom_bond_atom_site_label_2
_ccdc_geom_bond_type
Cu1   O5    S    
C2    C22   A    
C11   C12   S    
N4    C29   S    
Cu2   O4    S    
C20   O6    A    
C8    H11   S    
C10   H9    S    
C8    C9    A    
H7    N2    S    
Cu2   O6    S    
Cu2   N2    S    
C1    C17   S    
Cu1   N1    S    
Cu1   O7    S    
C21   O8    A    
C23   C24   A    
C29   H24   S    
C27   H15   S    
C13   H10   S    
C28   H18   S    
C2    C26   A    
C6    C26   A    
C27   H14   S    
C24   C25   A    
C16   H3    S    
C11   C13   A    
C4    N4    S    
C1    O2    A    
N3    H17   S    
C20   O5    A    
C14   H13   S    
C3    H8    S    
C12   O4    A    
C5    C6    A    
Cu1   O3    S    
C5    C10   A    
C21   O7    A    
C22   H1    S    
C19   N2    D    
C18   C19   S    
C6    C7    A    
C21   C23   S    
C15   C20   S    
Cu2   O8    S    
C14   C16   S    
Cu2   O2    S    
N3    C28   S    
C7    C8    A    
C18   H5    S    
C3    C4    A    
C7    C13   A    
C3    C25   A    
O9    C27   S    
C15   H2    S    
C12   O3    A    
C29   H22   S    
C10   C11   A    
C27   H16   S    
Cu1   Cu2   S    
C17   H4    S    
C14   C15   D    
C24   N3    S    
C28   H20   S    
C1    O1    A    
C18   N1    D    
C29   H23   S    
C25   C26   A    
C22   C23   A    
C2    C9    A    
Cu1   O1    S    
C9    H12   S    
N4    H21   S    
C16   C17   D    
N1    O9    S    
C4    C5    A    
C28   H19   S    
C19   H6    S    
