data_mof_unit_42146.cif
_audit_creation_date              2012-10-26T17:11:13-0400
_audit_creation_method            fapswitch 2.2
_symmetry_space_group_name_H-M    P1
_symmetry_Int_Tables_number       1
_space_group_crystal_system       triclinic
_cell_length_a                    27.947452
_cell_length_b                    18.722241
_cell_length_c                    16.841338
_cell_angle_alpha                 89.93235
_cell_angle_beta                  62.627606
_cell_angle_gamma                 89.904336
_cell_volume                      7825.40921896

loop_
_atom_site_label
_atom_site_type_symbol
_atom_type_description
_atom_site_fract_x
_atom_site_fract_y
_atom_site_fract_z
_atom_type_partial_charge
C1    C     C_R   0.295065 0.728429 0.329555 0.808863
C2    C     C_R   0.705026 0.271745 0.670401 0.814224
C3    C     C_R   0.704995 0.728307 0.670392 0.811218
C4    C     C_R   0.295007 0.271684 0.329611 0.793183
C5    C     C_R   0.794971 0.228250 0.329603 0.811696
C6    C     C_R   0.204919 0.771542 0.670455 0.808421
C7    C     C_R   0.204933 0.228425 0.670431 0.826185
C8    C     C_R   0.795002 0.771698 0.329610 0.811292
C9    C     C_R   0.526436 0.873384 0.581412 -0.181838
C10   C     C_R   0.459212 0.123648 0.476318 -0.204183
C11   C     C_R   0.420915 0.879210 0.580642 -0.191863
C12   C     C_R   0.534665 0.129166 0.551657 -0.198650
C13   C     C_R   0.077420 0.372208 0.417911 -0.197037
C14   C     C_R   0.974800 0.628509 0.406862 -0.178372
C15   C     C_R   0.974893 0.371391 0.407859 -0.180204
C16   C     C_R   0.076673 0.628118 0.419034 -0.193811
C17   C     C_R   0.219815 0.764873 0.954068 0.012456
C18   C     C_R   0.778194 0.230474 0.047641 0.005245
C19   C     C_R   0.779831 0.765884 0.046157 0.004615
C20   C     C_R   0.219446 0.235378 0.954500 0.010375
C21   C     C_R   0.721680 0.269348 0.952489 0.005162
C22   C     C_R   0.279889 0.734601 0.046182 0.012221
C23   C     C_R   0.279521 0.266347 0.046434 0.010713
C24   C     C_R   0.720097 0.734245 0.953906 0.004668
C25   C     C_R   0.273583 0.787302 0.919599 -0.233707
C26   C     C_R   0.773893 0.302453 0.028823 -0.223646
C27   C     C_R   0.726567 0.790118 0.078630 -0.208984
C28   C     C_R   0.273246 0.212925 0.920284 -0.229222
C29   C     C_R   0.725973 0.197369 0.971322 -0.224362
C30   C     C_R   0.226120 0.712173 0.080664 -0.233419
C31   C     C_R   0.225704 0.288758 0.080726 -0.231865
C32   C     C_R   0.773360 0.710011 0.921436 -0.209093
C33   C     C_R   0.303653 0.772710 0.964935 0.175765
C34   C     C_R   0.746133 0.322248 0.981210 0.175571
C35   C     C_R   0.696685 0.774835 0.033161 0.175919
C36   C     C_R   0.303293 0.227828 0.965544 0.175581
C37   C     C_R   0.753728 0.177575 0.018947 0.175230
C38   C     C_R   0.196043 0.726776 0.035332 0.175764
C39   C     C_R   0.195630 0.273797 0.035498 0.175856
C40   C     C_R   0.803241 0.725292 0.966906 0.175875
C41   C     C_R   0.144051 0.828180 0.944561 -0.150382
C42   C     C_R   0.855034 0.169854 0.056215 -0.149818
C43   C     C_R   0.855622 0.828965 0.055632 -0.133299
C44   C     C_R   0.143845 0.171900 0.944768 -0.150160
C45   C     C_R   0.644875 0.330005 0.943861 -0.151721
C46   C     C_R   0.355726 0.671444 0.055620 -0.150119
C47   C     C_R   0.355408 0.329317 0.055852 -0.149904
C48   C     C_R   0.644325 0.671126 0.944413 -0.133283
C49   C     C_R   0.117596 0.851245 0.895513 -0.065694
C50   C     C_R   0.882105 0.148133 0.104736 -0.063242
C51   C     C_R   0.882231 0.851592 0.104590 -0.064592
C52   C     C_R   0.117546 0.148740 0.895548 -0.065289
C53   C     C_R   0.617859 0.351817 0.895289 -0.063140
C54   C     C_R   0.382307 0.648605 0.104558 -0.065723
C55   C     C_R   0.382132 0.351744 0.104694 -0.065748
C56   C     C_R   0.617749 0.648439 0.895426 -0.064734
C57   C     C_R   0.136262 0.829153 0.807201 -0.212413
C58   C     C_R   0.863607 0.170652 0.192854 -0.217628
C59   C     C_R   0.863616 0.829295 0.192838 -0.215825
C60   C     C_R   0.136301 0.170787 0.807176 -0.219271
C61   C     C_R   0.636389 0.329349 0.807145 -0.217085
C62   C     C_R   0.363702 0.670802 0.192815 -0.212705
C63   C     C_R   0.363575 0.329356 0.192888 -0.222635
C64   C     C_R   0.636381 0.670705 0.807162 -0.215795
C65   C     C_R   0.182177 0.786653 0.766249 -0.065845
C66   C     C_R   0.817333 0.212495 0.234035 -0.065380
C67   C     C_R   0.817616 0.787080 0.233867 -0.065581
C68   C     C_R   0.182121 0.213345 0.766307 -0.070628
C69   C     C_R   0.682643 0.287467 0.765986 -0.066483
C70   C     C_R   0.317737 0.713208 0.233809 -0.064941
C71   C     C_R   0.317572 0.287154 0.233920 -0.060910
C72   C     C_R   0.682367 0.712948 0.766146 -0.065649
C73   C     C_R   0.208486 0.763486 0.815563 -0.188719
C74   C     C_R   0.790155 0.233932 0.185377 -0.177187
C75   C     C_R   0.791098 0.764492 0.184718 -0.178613
C76   C     C_R   0.208253 0.236606 0.815790 -0.181805
C77   C     C_R   0.709774 0.265949 0.814692 -0.176399
C78   C     C_R   0.291307 0.736160 0.184599 -0.187288
C79   C     C_R   0.291004 0.264644 0.184833 -0.187557
C80   C     C_R   0.708853 0.735593 0.815323 -0.178739
C81   C     C_R   0.189317 0.783810 0.905012 0.110802
C82   C     C_R   0.808551 0.211788 0.096811 0.103374
C83   C     C_R   0.810198 0.784984 0.095333 0.107038
C84   C     C_R   0.189040 0.216312 0.905313 0.109065
C85   C     C_R   0.691346 0.288047 0.903286 0.103493
C86   C     C_R   0.310411 0.715723 0.095211 0.110309
C87   C     C_R   0.310020 0.285256 0.095494 0.108813
C88   C     C_R   0.689736 0.715130 0.904723 0.107152
C89   C     C_R   0.200970 0.631143 0.511751 0.820345
C90   C     C_R   0.803681 0.368252 0.471438 0.809406
C91   C     C_R   0.803682 0.631772 0.471412 0.808291
C92   C     C_R   0.200987 0.368850 0.511709 0.819376
C93   C     C_R   0.696634 0.131693 0.527429 0.813575
C94   C     C_R   0.299134 0.868982 0.486769 0.819386
C95   C     C_R   0.303021 0.131460 0.474400 0.811355
C96   C     C_R   0.696284 0.868207 0.528611 0.809128
C97   C     C_R   0.926478 0.903104 0.066582 0.817290
C98   C     C_R   0.073474 0.096960 0.933449 0.804264
C99   C     C_R   0.073479 0.903021 0.933476 0.809596
C100  C     C_R   0.926544 0.096961 0.066515 0.813648
C101  C     C_R   0.426442 0.403156 0.066619 0.804034
C102  C     C_R   0.573516 0.596904 0.933422 0.817479
C103  C     C_R   0.573446 0.403026 0.933493 0.813423
C104  C     C_R   0.426495 0.596941 0.066545 0.809782
C105  C     C_R   0.069599 0.500106 0.435751 0.025494
C106  C     C_R   0.972251 0.499980 0.421574 0.025329
C107  C     C_R   0.534328 0.000382 0.552846 0.029531
C108  C     C_R   0.441451 0.000660 0.526359 0.026726
C109  C     C_R   0.047815 0.565350 0.424358 0.054604
C110  C     C_R   0.998876 0.434633 0.417684 0.051870
C111  C     C_R   0.998744 0.565385 0.417477 0.051724
C112  C     C_R   0.048093 0.434827 0.424097 0.054168
C113  C     C_R   0.513642 0.065136 0.538263 0.049741
C114  C     C_R   0.456204 0.937798 0.557051 0.051777
C115  C     C_R   0.471060 0.064094 0.515113 0.047538
C116  C     C_R   0.505280 0.936302 0.563756 0.049332
C117  C     C_R   0.137335 0.434924 0.464130 0.061471
C118  C     C_R   0.892745 0.565329 0.431429 0.060363
C119  C     C_R   0.892764 0.434534 0.431821 0.061729
C120  C     C_R   0.137060 0.565334 0.464568 0.062760
C121  C     C_R   0.608583 0.935026 0.560797 0.060468
C122  C     C_R   0.381710 0.063278 0.477494 0.064818
C123  C     C_R   0.365727 0.937774 0.521590 0.058498
C124  C     C_R   0.610044 0.065799 0.554789 0.061720
C125  C     C_R   0.176837 0.435070 0.496585 -0.116713
C126  C     C_R   0.836975 0.565380 0.452002 -0.117698
C127  C     C_R   0.836986 0.434572 0.452140 -0.118389
C128  C     C_R   0.176740 0.565033 0.496744 -0.116523
C129  C     C_R   0.663260 0.934681 0.546392 -0.118795
C130  C     C_R   0.332763 0.064395 0.470081 -0.123509
C131  C     C_R   0.324842 0.936023 0.493237 -0.118265
C132  C     C_R   0.663818 0.065514 0.544285 -0.118899
C133  C     C_R   0.194580 0.500004 0.513766 -0.272562
C134  C     C_R   0.810620 0.500009 0.461717 -0.259237
C135  C     C_R   0.689212 0.000007 0.539709 -0.261193
C136  C     C_R   0.307586 0.999836 0.471792 -0.265000
C137  C     C_R   0.114108 0.500126 0.456426 0.080079
C138  C     C_R   0.919065 0.499940 0.428673 0.084426
C139  C     C_R   0.584494 0.000304 0.556033 0.082192
C140  C     C_R   0.396434 0.000465 0.508030 0.078691
C141  C     C_R   0.576404 0.873045 0.581134 -0.169106
C142  C     C_R   0.416492 0.122461 0.455643 -0.167151
C143  C     C_R   0.376011 0.880059 0.565540 -0.181109
C144  C     C_R   0.579820 0.128899 0.565602 -0.165385
C145  C     C_R   0.121898 0.372873 0.434039 -0.188623
C146  C     C_R   0.924032 0.627976 0.410797 -0.172936
C147  C     C_R   0.924093 0.371828 0.411861 -0.174798
C148  C     C_R   0.121134 0.627527 0.435230 -0.186850
Cu1   Cu    Cu3+1 0.209920 0.785290 0.495070 0.946855
Cu2   Cu    Cu3+1 0.790080 0.214710 0.504930 0.951886
Cu3   Cu    Cu3+1 0.790080 0.785290 0.504930 0.952945
Cu4   Cu    Cu3+1 0.209920 0.214710 0.495070 0.943829
Cu5   Cu    Cu3+1 0.709920 0.285290 0.495070 0.949578
Cu6   Cu    Cu3+1 0.290080 0.714710 0.504930 0.952864
Cu7   Cu    Cu3+1 0.290080 0.285290 0.504930 0.949523
Cu8   Cu    Cu3+1 0.709920 0.714710 0.495070 0.953580
Cu9   Cu    Cu3+1 0.495240 0.500000 0.924150 0.966541
Cu10  Cu    Cu3+1 0.504760 0.500000 0.075850 0.971427
Cu11  Cu    Cu3+1 0.995240 0.000000 0.924150 0.973786
Cu12  Cu    Cu3+1 0.004760 0.000000 0.075850 0.965126
H1    H     H_    0.587952 0.823487 0.600107 0.175763
H2    H     H_    0.412760 0.167780 0.419220 0.171592
H3    H     H_    0.348813 0.835469 0.592020 0.170630
H4    H     H_    0.589037 0.179036 0.586515 0.179220
H5    H     H_    0.144239 0.323704 0.418703 0.181100
H6    H     H_    0.910972 0.677786 0.395163 0.176368
H7    H     H_    0.911084 0.321856 0.396801 0.176058
H8    H     H_    0.143012 0.676951 0.420545 0.180645
H9    H     H_    0.505976 0.822739 0.593203 0.143175
H10   H     H_    0.484333 0.170802 0.457569 0.144151
H11   H     H_    0.426087 0.832600 0.613623 0.146021
H12   H     H_    0.514927 0.179815 0.555953 0.145592
H13   H     H_    0.067739 0.321429 0.398979 0.142028
H14   H     H_    0.994159 0.679845 0.395367 0.142352
H15   H     H_    0.994202 0.319991 0.397147 0.141758
H16   H     H_    0.066570 0.679048 0.400936 0.141769
H17   H     H_    0.291965 0.817468 0.857792 0.166552
H18   H     H_    0.792938 0.343282 0.050121 0.176273
H19   H     H_    0.708457 0.822093 0.138941 0.177389
H20   H     H_    0.291677 0.182487 0.858734 0.170994
H21   H     H_    0.706925 0.156540 0.950028 0.176042
H22   H     H_    0.207739 0.682020 0.142481 0.168030
H23   H     H_    0.207266 0.319115 0.142347 0.168543
H24   H     H_    0.791471 0.678033 0.861128 0.177468
H25   H     H_    0.130765 0.846500 0.012493 0.164955
H26   H     H_    0.868876 0.152486 0.987769 0.165654
H27   H     H_    0.868973 0.847186 0.987612 0.168180
H28   H     H_    0.130489 0.153636 0.012769 0.165150
H29   H     H_    0.631009 0.347336 0.012327 0.164771
H30   H     H_    0.368974 0.653051 0.987728 0.165237
H31   H     H_    0.368646 0.347785 0.987962 0.165632
H32   H     H_    0.630963 0.652924 0.012443 0.168193
H33   H     H_    0.244604 0.731078 0.784205 0.155237
H34   H     H_    0.753632 0.265543 0.216912 0.158023
H35   H     H_    0.754937 0.732282 0.216098 0.158993
H36   H     H_    0.244278 0.269080 0.784502 0.157881
H37   H     H_    0.746287 0.234318 0.783174 0.158677
H38   H     H_    0.255160 0.768512 0.215986 0.155028
H39   H     H_    0.254852 0.232421 0.216254 0.154924
H40   H     H_    0.745005 0.767820 0.783951 0.158977
O1    O     O_R   0.255040 0.869590 0.478480 -0.583607
O2    O     O_R   0.744960 0.130410 0.521520 -0.581212
O3    O     O_R   0.744960 0.869590 0.521520 -0.580145
O4    O     O_R   0.255040 0.130410 0.478480 -0.579454
O5    O     O_R   0.755040 0.369590 0.478480 -0.580435
O6    O     O_R   0.244960 0.630410 0.521520 -0.580140
O7    O     O_R   0.244960 0.369590 0.521520 -0.580062
O8    O     O_R   0.755040 0.630410 0.478480 -0.579954
O9    O     O_R   0.182050 0.796550 0.624440 -0.584298
O10   O     O_R   0.817950 0.203450 0.375560 -0.593554
O11   O     O_R   0.817950 0.796550 0.375560 -0.593182
O12   O     O_R   0.182050 0.203450 0.624440 -0.583135
O13   O     O_R   0.682050 0.296550 0.624440 -0.592352
O14   O     O_R   0.317950 0.703450 0.375560 -0.584264
O15   O     O_R   0.317950 0.296550 0.375560 -0.593772
O16   O     O_R   0.682050 0.703450 0.624440 -0.592804
O17   O     O_R   0.250530 0.763330 0.367210 -0.601280
O18   O     O_R   0.749470 0.236670 0.632790 -0.585692
O19   O     O_R   0.749470 0.763330 0.632790 -0.585608
O20   O     O_R   0.250530 0.236670 0.367210 -0.602577
O21   O     O_R   0.750530 0.263330 0.367210 -0.586603
O22   O     O_R   0.249470 0.736670 0.632790 -0.599901
O23   O     O_R   0.249470 0.263330 0.632790 -0.584483
O24   O     O_R   0.750530 0.736670 0.367210 -0.585429
O25   O     O_R   0.177260 0.690030 0.513710 -0.597154
O26   O     O_R   0.822740 0.309970 0.486290 -0.595080
O27   O     O_R   0.822740 0.690030 0.486290 -0.595304
O28   O     O_R   0.177260 0.309970 0.513710 -0.598648
O29   O     O_R   0.677260 0.190030 0.513710 -0.598571
O30   O     O_R   0.322740 0.809970 0.486290 -0.590926
O31   O     O_R   0.322740 0.190030 0.486290 -0.595719
O32   O     O_R   0.677260 0.809970 0.513710 -0.595193
O33   O     O_R   0.051640 0.926880 0.885090 -0.586999
O34   O     O_R   0.948360 0.073120 0.114910 -0.588426
O35   O     O_R   0.948360 0.926880 0.114910 -0.588214
O36   O     O_R   0.051640 0.073120 0.885090 -0.590063
O37   O     O_R   0.551640 0.426880 0.885090 -0.587959
O38   O     O_R   0.448360 0.573120 0.114910 -0.586996
O39   O     O_R   0.448360 0.426880 0.114910 -0.591206
O40   O     O_R   0.551640 0.573120 0.885090 -0.588051
O41   O     O_R   0.940620 0.926560 0.986760 -0.581793
O42   O     O_R   0.059380 0.073440 0.013240 -0.588168
O43   O     O_R   0.059380 0.926560 0.013240 -0.588065
O44   O     O_R   0.940620 0.073440 0.986760 -0.585115
O45   O     O_R   0.440620 0.426560 0.986760 -0.587508
O46   O     O_R   0.559380 0.573440 0.013240 -0.581767
O47   O     O_R   0.559380 0.426560 0.013240 -0.585883
O48   O     O_R   0.440620 0.573440 0.986760 -0.587881
H41   H     H_    0.223870 0.499934 0.539159 0.189334
H42   H     H_    0.768093 0.500058 0.479659 0.190165
H43   H     H_    0.730778 0.999860 0.527619 0.191245
H44   H     H_    0.273012 0.999589 0.458881 0.191306
I1    I     I_    0.116363 0.685785 0.091033 -0.375336
I2    I     I_    0.754164 0.067491 0.049565 -0.376440
I3    I     I_    0.882068 0.681777 0.914958 -0.343765
I4    I     I_    0.115858 0.314686 0.090944 -0.382229
I5    I     I_    0.745662 0.432345 0.950674 -0.374753
I6    I     I_    0.383308 0.813770 0.909309 -0.377449
I7    I     I_    0.382923 0.186494 0.910544 -0.372759
I8    I     I_    0.617852 0.818336 0.085127 -0.345605
H45   H     H_    0.116370 0.847705 0.768920 0.179318
H46   H     H_    0.884047 0.153158 0.230708 0.176791
H47   H     H_    0.883653 0.847427 0.230993 0.177032
H48   H     H_    0.116542 0.152161 0.768796 0.177884
H49   H     H_    0.615989 0.346916 0.769255 0.177130
H50   H     H_    0.383688 0.652421 0.231019 0.179385
H51   H     H_    0.383667 0.347395 0.230996 0.176601
H52   H     H_    0.616370 0.652527 0.768986 0.177165

loop_
_geom_bond_atom_site_label_1
_geom_bond_atom_site_label_2
_ccdc_geom_bond_type
C51   C97   S    
C5    O21   A    
C122  C140  A    
C74   H34   S    
C141  H1    S    
Cu9   Cu10  S    
Cu2   O26   S    
C91   C126  S    
C73   H33   S    
C101  O39   A    
Cu1   O25   S    
C69   C77   A    
C60   H48   S    
C124  C139  A    
C100  O34   A    
C102  O46   A    
C127  C134  A    
C13   C145  A    
Cu6   O14   S    
C101  O45   A    
C92   C125  S    
C76   C84   A    
C71   C79   A    
C91   O8    A    
C46   C86   A    
C65   C73   A    
C12   H12   S    
C6    O9    A    
C145  H5    S    
C8    C67   S    
C32   H24   S    
C104  O38   A    
C5    O10   A    
C43   C51   A    
C120  C137  A    
C62   C70   A    
Cu3   O11   S    
Cu2   O10   S    
C108  C115  A    
C59   H47   S    
C18   C37   A    
Cu1   O9    S    
C55   C101  S    
C13   C112  A    
Cu7   O7    S    
C109  C111  A    
C106  C110  A    
C99   O33   A    
C25   H17   S    
C106  C138  A    
C70   C78   A    
C108  C114  A    
C66   C74   A    
C129  C135  A    
C43   C83   A    
C72   C80   A    
C49   C57   A    
C124  C132  A    
C117  C145  A    
C10   C142  A    
C36   I7    S    
C73   C81   A    
C11   C114  A    
C107  C113  A    
C52   C60   A    
C59   C67   A    
C7    C68   S    
Cu4   O28   S    
C40   I3    S    
C9    H9    S    
C26   C34   A    
C6    C65   S    
Cu11  Cu12  S    
C102  O40   A    
C4    O20   A    
Cu2   Cu5   S    
C55   C63   A    
C33   I6    S    
Cu8   O16   S    
C95   C130  S    
C90   C127  S    
C48   C88   A    
C77   H37   S    
C43   H27   S    
C8    O11   A    
C76   H36   S    
C124  C144  A    
C8    O24   A    
C75   H35   S    
Cu10  O39   S    
C29   H21   S    
C31   H23   S    
C78   C86   A    
C64   C72   A    
Cu4   O12   S    
C77   C85   A    
Cu10  O46   S    
C4    O15   A    
Cu12  O34   S    
Cu5   O13   S    
Cu6   O30   S    
C107  C139  A    
C30   H22   S    
C15   C110  A    
Cu5   O29   S    
C96   O32   A    
Cu11  O33   S    
Cu1   O1    S    
C53   C61   A    
C46   H30   S    
C19   C83   S    
C126  C134  A    
C79   C87   A    
C58   C66   A    
C16   C109  A    
C7    O12   A    
C98   O36   A    
C106  C111  A    
C123  C131  A    
C14   C111  A    
C21   C85   S    
Cu11  O41   S    
C24   C35   A    
C79   H39   S    
Cu7   O23   S    
C50   C58   A    
C121  C141  A    
C146  H6    S    
C28   C36   A    
C28   H20   S    
C131  C136  A    
C64   H52   S    
C89   O25   A    
C108  C140  A    
C20   C39   A    
C9    C141  A    
C57   H45   S    
C39   I4    S    
C20   C28   A    
C122  C130  A    
C27   C35   A    
C3    O16   A    
C21   C29   A    
C123  C140  A    
Cu12  O35   S    
C103  O47   A    
C12   C144  A    
C34   I5    S    
C29   C37   A    
C56   C102  S    
C23   C31   A    
Cu6   O22   S    
C13   H13   S    
Cu1   Cu6   S    
C24   C32   A    
Cu5   O21   S    
C95   O31   A    
C11   H11   S    
C49   C99   S    
C90   O5    A    
C7    O23   A    
Cu8   O32   S    
Cu9   O40   S    
C89   O6    A    
Cu4   Cu7   S    
C118  C146  A    
C42   C50   A    
C103  O37   A    
C41   C81   A    
C18   C26   A    
C46   C54   A    
C56   C64   A    
Cu2   O18   S    
C41   H25   S    
C94   O1    A    
Cu1   O17   S    
Cu3   Cu8   S    
C45   H29   S    
Cu7   O15   S    
C93   O2    A    
C24   C88   S    
C61   H49   S    
Cu6   O6    S    
C147  H7    S    
C143  H3    S    
Cu5   O5    S    
C130  C136  A    
Cu9   O37   S    
C105  C112  A    
Cu10  O38   S    
C120  C148  A    
Cu7   O31   S    
C20   C84   S    
C148  H8    S    
Cu3   O19   S    
C1    O14   A    
C134  H42   S    
C67   C75   A    
Cu10  O47   S    
C122  C142  A    
C93   C132  S    
C2    C69   S    
C133  H41   S    
Cu11  O44   S    
C75   C83   A    
C32   C40   A    
C19   C27   A    
C135  H43   S    
C94   O30   A    
C96   O3    A    
C47   C55   A    
C12   C113  A    
C74   C82   A    
C93   O29   A    
C48   C56   A    
C22   C33   A    
C105  C109  A    
C54   C104  S    
C121  C129  A    
C22   C30   A    
C80   H40   S    
C91   O27   A    
C119  C138  A    
C50   C100  S    
C35   I8    S    
C90   O26   A    
Cu4   O4    S    
C47   C87   A    
C1    C70   S    
C48   H32   S    
C57   C65   A    
C5    C66   S    
C44   C84   A    
C100  O44   A    
C142  H2    S    
C114  C116  A    
C120  C128  A    
C47   H31   S    
C104  O48   A    
C80   C88   A    
C21   C34   A    
C23   C36   A    
C10   H10   S    
C41   C49   A    
C54   C62   A    
C144  H4    S    
C14   C146  A    
C26   H18   S    
C125  C133  A    
C94   C131  S    
C37   I2    S    
C15   H15   S    
C45   C85   A    
Cu8   O24   S    
C60   C68   A    
C61   C69   A    
C117  C137  A    
C121  C139  A    
C105  C137  A    
C3    C72   S    
C95   O4    A    
C119  C147  A    
C17   C25   A    
C14   H14   S    
C92   O7    A    
C128  C133  A    
C62   H50   S    
C15   C147  A    
C42   H26   S    
C68   C76   A    
C44   C52   A    
C16   C148  A    
Cu9   O45   S    
C53   C103  S    
C132  C135  A    
C45   C53   A    
Cu4   O20   S    
C52   C98   S    
C18   C82   S    
C31   C39   A    
Cu11  O36   S    
C78   H38   S    
C17   C81   S    
C17   C38   A    
C22   C86   S    
Cu12  O43   S    
C99   O43   A    
Cu8   O8    S    
Cu9   O48   S    
C110  C112  A    
C107  C116  A    
C98   O42   A    
C44   H28   S    
C11   C143  A    
C19   C40   A    
Cu3   O3    S    
C97   O41   A    
C27   H19   S    
Cu12  O42   S    
C38   I1    S    
C51   C59   A    
C92   O28   A    
C2    O13   A    
C3    O19   A    
Cu3   O27   S    
C1    O17   A    
C123  C143  A    
C9    C116  A    
C2    O18   A    
Cu2   O2    S    
C136  H44   S    
C23   C87   S    
C16   H16   S    
C118  C126  A    
C30   C38   A    
C113  C115  A    
C118  C138  A    
C117  C125  A    
C63   H51   S    
C63   C71   A    
C89   C128  S    
C4    C71   S    
C58   H46   S    
C10   C115  A    
C42   C82   A    
C25   C33   A    
C96   C129  S    
C6    O22   A    
C97   O35   A    
C119  C127  A    
