data_mof_unit_38688.cif
_audit_creation_date              2012-12-10T18:59:56-0500
_audit_creation_method            fapswitch 2.2
_symmetry_space_group_name_H-M    P1
_symmetry_Int_Tables_number       1
_space_group_crystal_system       triclinic
_cell_length_a                    10.811346
_cell_length_b                    10.651316
_cell_length_c                    9.871687
_cell_angle_alpha                 90.176457
_cell_angle_beta                  91.053289
_cell_angle_gamma                 89.948303
_cell_volume                      1136.57685808

loop_
_atom_site_label
_atom_site_type_symbol
_atom_type_description
_atom_site_fract_x
_atom_site_fract_y
_atom_site_fract_z
_atom_type_partial_charge
C1    C     C_R   0.497979 0.260250 0.499756 0.957020
C2    C     C_R   0.424012 0.063142 0.591006 0.457044
C3    C     C_R   0.508117 0.872105 0.501613 -0.181422
C4    C     C_R   0.497832 0.127801 0.499546 -0.164013
C5    C     C_R   0.515517 0.609037 0.072370 -0.069944
C6    C     C_R   0.484526 0.390963 0.927641 -0.068373
C7    C     C_R   0.515843 0.608967 0.928894 -0.064286
C8    C     C_R   0.484176 0.391035 0.071109 -0.063886
C9    C     C_R   0.259946 0.501389 0.498371 0.891818
C10   C     C_R   0.740054 0.498766 0.501631 0.854442
C11   C     C_R   0.196052 0.658552 0.063108 -0.168515
C12   C     C_R   0.503787 0.739658 0.500355 0.884292
C13   C     C_R   0.804122 0.341936 0.936939 -0.168548
C14   C     C_R   0.148160 0.645799 0.192676 -0.070050
C15   C     C_R   0.851983 0.354752 0.807365 -0.072204
C16   C     C_R   0.110993 0.527526 0.238442 0.052278
C17   C     C_R   0.889014 0.473071 0.761598 0.055598
C18   C     C_R   0.120475 0.422516 0.153288 -0.128288
C19   C     C_R   0.879427 0.578064 0.846758 -0.134482
C20   C     C_R   0.169526 0.434282 0.023938 0.489581
C21   C     C_R   0.830420 0.566230 0.976121 0.491407
C22   C     C_R   0.207158 0.553553 0.979028 -0.255731
C23   C     C_R   0.872646 0.498062 0.504398 -0.089691
C24   C     C_R   0.792924 0.446914 0.021031 -0.256460
C25   C     C_R   0.931286 0.510905 0.380536 -0.233738
C26   C     C_R   0.068701 0.489807 0.619510 -0.225006
C27   C     C_R   0.127348 0.502462 0.495627 -0.093727
C28   C     C_R   0.942214 0.487003 0.625922 0.015506
C29   C     C_R   0.057778 0.513655 0.374118 0.015505
C30   C     C_R   0.575857 0.066566 0.409851 -0.278492
C31   C     C_R   0.429615 0.933577 0.590872 -0.349971
C32   C     C_R   0.584598 0.937976 0.412184 0.453980
H1    H     H_    0.246354 0.565439 0.880008 0.150696
H2    H     H_    0.908946 0.669433 0.811893 0.149420
H3    H     H_    0.878928 0.520041 0.287187 0.166735
H4    H     H_    0.121050 0.480717 0.712872 0.167333
H5    H     H_    0.633919 0.119206 0.341866 0.184180
H6    H     H_    0.371031 0.880529 0.657955 0.159003
H7    H     H_    0.528260 0.696565 0.126456 0.170806
H8    H     H_    0.471865 0.303424 0.873581 0.176865
H9    H     H_    0.224186 0.349914 0.861177 0.343919
H10   H     H_    0.775674 0.650520 0.138883 0.334295
H11   H     H_    0.693217 0.798793 0.366481 0.330052
H12   H     H_    0.753766 0.434977 0.120064 0.152769
H13   H     H_    0.301095 0.067391 0.733075 0.337280
H14   H     H_    0.528871 0.696410 0.875823 0.149790
H15   H     H_    0.471164 0.303589 0.124178 0.150543
H16   H     H_    0.225463 0.749761 0.028049 0.151039
H17   H     H_    0.774812 0.250691 0.971995 0.158053
H18   H     H_    0.140117 0.727615 0.257346 0.136784
H19   H     H_    0.860102 0.272949 0.742688 0.136079
H20   H     H_    0.090849 0.331184 0.188151 0.152883
N1    N     N_R   0.499970 0.499970 0.857200 -0.097961
N2    N     N_R   0.500030 0.500030 0.142800 -0.096574
O1    O     O_R   0.499990 0.316750 0.614620 -0.585692
O2    O     O_3   0.819283 0.672625 0.054871 -0.766854
O3    O     O_3   0.669676 0.881589 0.328728 -0.754178
O4    O     O_3   0.345612 0.128012 0.675551 -0.767772
O5    O     O_R   0.500010 0.683250 0.385380 -0.621491
O6    O     O_R   0.499990 0.316780 0.385290 -0.645769
O7    O     O_R   0.500010 0.683220 0.614710 -0.629221
O8    O     O_R   0.316760 0.500000 0.614660 -0.634833
O9    O     O_R   0.683240 0.500000 0.385340 -0.648622
O10   O     O_R   0.316760 0.500020 0.385330 -0.607181
O11   O     O_R   0.683240 0.499980 0.614670 -0.609838
O12   O     O_3   0.180569 0.327864 0.945203 -0.776063
Zn1   Zn    Zn3+2 0.500000 0.499980 0.653120 0.958220
Zn2   Zn    Zn3+2 0.500000 0.500020 0.346880 0.943659

loop_
_geom_bond_atom_site_label_1
_geom_bond_atom_site_label_2
_ccdc_geom_bond_type
C21   O2    S    
O1    Zn1   S    
C2    O4    S    
H9    O12   S    
C15   H19   S    
O5    Zn2   S    
C27   C29   A    
C9    O10   A    
C5    C7    A    
O7    Zn1   S    
C11   C22   A    
C2    C4    A    
C10   O9    A    
C31   H6    S    
C1    C4    S    
C23   C25   A    
C1    O1    A    
C8    H15   S    
C18   H20   S    
C20   O12   S    
C23   C28   A    
C3    C31   A    
C12   O7    A    
C12   O5    A    
C9    C27   S    
C11   H16   S    
C14   H18   S    
N1    Zn1   S    
C32   O3    S    
C25   H3    S    
C13   H17   S    
O8    Zn1   S    
C26   H4    S    
C17   C19   A    
C20   C22   A    
C18   C20   A    
C13   C15   A    
C26   C27   A    
C3    C32   A    
C24   H12   S    
C11   C14   A    
C14   C16   A    
H13   O4    S    
C1    O6    A    
N2    Zn2   S    
C7    N1    A    
C6    N1    A    
C9    O8    A    
C30   C32   A    
C7    H14   S    
O10   Zn2   S    
C5    N2    A    
C6    H8    S    
O6    Zn2   S    
C25   C29   A    
C16   C18   A    
C21   C24   A    
C8    N2    A    
C15   C17   A    
C5    H7    S    
H11   O3    S    
O9    Zn2   S    
C10   C23   S    
C6    C8    A    
C3    C12   S    
H10   O2    S    
C16   C29   S    
C19   C21   A    
C17   C28   S    
C26   C28   A    
C4    C30   A    
C30   H5    S    
C13   C24   A    
C10   O11   A    
C2    C31   A    
O11   Zn1   S    
C19   H2    S    
C22   H1    S    
