data_mof_unit_52817.cif
_audit_creation_date              2012-10-26T21:25:55-0400
_audit_creation_method            fapswitch 2.2
_symmetry_space_group_name_H-M    P1
_symmetry_Int_Tables_number       1
_space_group_crystal_system       triclinic
_cell_length_a                    10.819673
_cell_length_b                    10.867562
_cell_length_c                    12.710724
_cell_angle_alpha                 92.988843
_cell_angle_beta                  92.998191
_cell_angle_gamma                 90.22811
_cell_volume                      1490.4612145

loop_
_atom_site_label
_atom_site_type_symbol
_atom_type_description
_atom_site_fract_x
_atom_site_fract_y
_atom_site_fract_z
_atom_type_partial_charge
C1    C     C_R   0.261925 0.497084 0.500614 0.541621
C2    C     C_R   0.816863 0.741057 0.364049 -0.080348
C3    C     C_R   0.130406 0.372561 0.665695 0.010631
C4    C     C_R   0.869594 0.627439 0.334305 0.010631
C5    C     C_R   0.135266 0.413849 0.773555 0.049905
C6    C     C_R   0.864733 0.586150 0.226445 0.049906
C7    C     C_R   0.192452 0.338994 0.848779 -0.072126
C8    C     C_R   0.807547 0.661004 0.151221 -0.072125
C9    C     C_R   0.243625 0.225891 0.817889 -0.130391
C10   C     C_R   0.756374 0.774107 0.182110 -0.130391
C11   C     C_R   0.937850 0.448311 0.580294 -0.161518
C12   C     C_R   0.738075 0.502916 0.499386 0.541621
C13   C     C_R   0.062150 0.551689 0.419706 -0.161517
C14   C     C_R   0.871682 0.504182 0.498599 0.001011
C15   C     C_R   0.128318 0.495818 0.501401 0.001011
C16   C     C_R   0.503693 0.261879 0.500917 0.538394
C17   C     C_R   0.496307 0.738121 0.499083 0.538394
C18   C     C_R   0.934014 0.557052 0.417369 -0.051835
C19   C     C_R   0.065986 0.442948 0.582631 -0.051835
C20   C     C_2   0.474965 0.458434 0.030751 -0.155012
C21   C     C_2   0.525034 0.541566 0.969248 -0.155012
C22   C     C_1   0.521676 0.527551 0.852946 0.150770
C23   C     C_R   0.494154 0.871710 0.497509 -0.008318
C24   C     C_1   0.478323 0.472448 0.147054 0.150770
C25   C     C_R   0.759816 0.253877 0.787812 -0.092247
C26   C     C_R   0.240184 0.746123 0.212188 -0.092247
C27   C     C_R   0.709265 0.199212 0.692832 -0.057984
C28   C     C_R   0.290735 0.800788 0.307168 -0.057984
C29   C     C_R   0.600341 0.128083 0.691964 0.058737
C30   C     C_R   0.399659 0.871917 0.308035 0.058737
C31   C     C_R   0.545543 0.109746 0.787892 -0.092505
C32   C     C_R   0.454456 0.890254 0.212108 -0.092505
C33   C     C_R   0.595395 0.165865 0.882165 -0.123996
C34   C     C_R   0.505846 0.128289 0.502491 -0.008318
C35   C     C_R   0.404604 0.834135 0.117835 -0.123996
C36   C     C_R   0.702246 0.238228 0.882073 -0.091193
C37   C     C_R   0.297754 0.761772 0.117927 -0.091193
C38   C     C_R   0.540104 0.938231 0.588605 -0.160549
C39   C     C_R   0.459896 0.061769 0.411395 -0.160549
C40   C     C_2   0.083328 0.534737 0.808083 0.216897
C41   C     C_2   0.916671 0.465261 0.191918 0.216897
C42   C     C_R   0.452561 0.934138 0.407373 -0.036985
C43   C     C_R   0.547439 0.065862 0.592627 -0.036985
C44   C     C_R   0.239014 0.186021 0.711655 -0.102341
C45   C     C_R   0.760986 0.813979 0.288344 -0.102341
C46   C     C_R   0.183137 0.258943 0.635950 -0.080347
Cu1   Cu    Cu3+1 0.492140 0.492110 0.395880 0.991154
Cu2   Cu    Cu3+1 0.507860 0.507890 0.604120 0.991154
H1    H     H_    0.741169 0.281143 0.955218 0.161694
H2    H     H_    0.155838 0.692327 0.210908 0.120831
H3    H     H_    0.755033 0.211493 0.620308 0.093751
H4    H     H_    0.244967 0.788507 0.379692 0.093751
H5    H     H_    0.464390 0.051582 0.789748 0.093705
H6    H     H_    0.535610 0.948419 0.210252 0.093705
H7    H     H_    0.551723 0.152367 0.955431 0.099684
H8    H     H_    0.448276 0.847633 0.044569 0.099684
H9    H     H_    0.574061 0.890304 0.656977 0.139485
H10   H     H_    0.425939 0.109696 0.343023 0.139485
H11   H     H_    0.286778 0.169029 0.876629 0.103923
H12   H     H_    0.258830 0.718857 0.044782 0.161694
H13   H     H_    0.713221 0.830969 0.123370 0.103923
H14   H     H_    0.277833 0.098000 0.687699 0.111949
H15   H     H_    0.722167 0.901999 0.312299 0.111949
H16   H     H_    0.179461 0.226090 0.553872 0.103725
H17   H     H_    0.820540 0.773910 0.446127 0.103726
H18   H     H_    0.045613 0.596757 0.750667 0.115254
H19   H     H_    0.954385 0.403242 0.249334 0.115254
H20   H     H_    0.197628 0.367883 0.931736 0.162610
H21   H     H_    0.802371 0.632115 0.068264 0.162610
H22   H     H_    0.889281 0.405978 0.641254 0.119312
H23   H     H_    0.110719 0.594022 0.358746 0.119312
H24   H     H_    0.569255 0.623715 0.006397 0.115771
H25   H     H_    0.430745 0.376285 0.993603 0.115771
H26   H     H_    0.844162 0.307673 0.789092 0.120830
N1    N     N_1   0.480320 0.480250 0.239400 -0.182686
N2    N     N_1   0.519680 0.519750 0.760600 -0.182686
O1    O     O_R   0.313000 0.493330 0.412070 -0.506367
O2    O     O_2   0.917627 0.432974 0.098475 -0.510973
O3    O     O_R   0.687000 0.506670 0.587930 -0.506367
O4    O     O_R   0.326280 0.506660 0.587930 -0.489582
O5    O     O_R   0.673720 0.493340 0.412070 -0.489583
O6    O     O_R   0.493370 0.312980 0.412070 -0.510125
O7    O     O_R   0.506630 0.687020 0.587930 -0.510124
O8    O     O_R   0.506650 0.326310 0.587930 -0.483734
O9    O     O_R   0.493350 0.673690 0.412070 -0.483734
O10   O     O_2   0.082373 0.567025 0.901526 -0.510973

loop_
_geom_bond_atom_site_label_1
_geom_bond_atom_site_label_2
_ccdc_geom_bond_type
C33   H7    S    
C27   C29   A    
C1    O1    A    
Cu2   N2    S    
C22   N2    T    
C2    H17   S    
C11   H22   S    
C41   H19   S    
C15   C19   A    
C11   C19   A    
C8    H21   S    
C17   C23   S    
C23   C42   A    
C13   C18   A    
C17   O9    A    
Cu1   O9    S    
Cu2   O3    S    
C35   C37   A    
C26   H2    S    
C11   C14   A    
C12   O3    A    
C16   O8    A    
C33   C36   A    
C25   H26   S    
Cu1   O6    S    
C40   O10   D    
C14   C18   A    
C16   C34   S    
C7    H20   S    
C20   C24   S    
C27   H3    S    
C6    C41   S    
C12   O5    A    
C31   C33   A    
C3    C19   S    
C1    C15   S    
C4    C18   S    
C40   H18   S    
C21   C22   S    
C29   C43   S    
C32   H6    S    
C44   C46   A    
C39   C42   A    
C2    C45   A    
C21   H24   S    
C34   C39   A    
C32   C35   A    
C4    C6    A    
C41   O2    D    
C5    C7    A    
C6    C8    A    
C13   H23   S    
C44   H14   S    
C39   H10   S    
C45   H15   S    
Cu2   O8    S    
C46   H16   S    
C17   O7    A    
C2    C4    A    
C38   H9    S    
Cu1   Cu2   S    
C10   C45   A    
C16   O6    A    
C26   C37   A    
C31   H5    S    
C12   C14   S    
C13   C15   A    
C10   H13   S    
Cu1   O1    S    
C7    C9    A    
C9    C44   A    
C35   H8    S    
C34   C43   A    
C3    C5    A    
C24   N1    T    
C25   C27   A    
C23   C38   A    
C3    C46   A    
C26   C28   A    
Cu2   O7    S    
Cu2   O4    S    
C28   C30   A    
Cu1   N1    S    
C38   C43   A    
C29   C31   A    
C30   C32   A    
C28   H4    S    
C20   H25   S    
Cu1   O5    S    
C37   H12   S    
C25   C36   A    
C20   C21   D    
C8    C10   A    
C5    C40   S    
C1    O4    A    
C30   C42   S    
C9    H11   S    
C36   H1    S    
