data_mof_unit_58852.cif
_audit_creation_date              2012-12-10T18:11:27-0500
_audit_creation_method            fapswitch 2.2
_symmetry_space_group_name_H-M    P1
_symmetry_Int_Tables_number       1
_space_group_crystal_system       triclinic
_cell_length_a                    18.364209
_cell_length_b                    18.383401
_cell_length_c                    34.379056
_cell_angle_alpha                 90.022735
_cell_angle_beta                  89.994919
_cell_angle_gamma                 90.019017
_cell_volume                      11606.2514404

loop_
_atom_site_label
_atom_site_type_symbol
_atom_type_description
_atom_site_fract_x
_atom_site_fract_y
_atom_site_fract_z
_atom_type_partial_charge
C1    C     C_R   0.450407 0.959698 0.040652 -0.213283
C2    C     C_R   0.037897 0.446000 0.458769 -0.213367
C3    C     C_R   0.695199 0.802136 0.750340 -0.348484
C4    C     C_R   0.803430 0.303545 0.249969 -0.386919
C5    C     C_R   0.196494 0.696368 0.749991 -0.353903
C6    C     C_R   0.695567 0.803784 0.249885 -0.365618
C7    C     C_R   0.305905 0.198742 0.751105 -0.376803
C8    C     C_R   0.197478 0.305317 0.750739 -0.373347
C9    C     C_R   0.803421 0.696655 0.250059 -0.387864
C10   C     C_R   0.303947 0.803930 0.750046 -0.364043
C11   C     C_R   0.695947 0.196011 0.249967 -0.365501
C12   C     C_R   0.803373 0.695567 0.750160 -0.346232
C13   C     C_R   0.564223 0.984091 0.541792 -0.211850
C14   C     C_R   0.196741 0.303534 0.249929 -0.386193
C15   C     C_R   0.696854 0.195313 0.749846 -0.357293
C16   C     C_R   0.303974 0.804060 0.250037 -0.363731
C17   C     C_R   0.499858 0.001660 0.102175 -0.091659
C18   C     C_R   0.500081 0.001344 0.897679 -0.086234
C19   C     C_R   0.999749 0.500010 0.102359 -0.085720
C20   C     C_R   0.000007 0.499949 0.897523 -0.083924
C21   C     C_R   0.999838 0.500230 0.602489 -0.082676
C22   C     C_R   0.000023 0.500025 0.397662 -0.086046
C23   C     C_R   0.500052 0.000008 0.602716 -0.070908
C24   C     C_R   0.549589 0.043687 0.458832 -0.221480
C25   C     C_R   0.500008 0.000049 0.397710 -0.089416
C26   C     C_3   0.184129 0.927961 0.250884 0.136005
C27   C     C_3   0.165654 0.003762 0.235637 -0.313451
C28   C     C_3   0.131962 0.051299 0.267254 -1.011119
C29   C     C_3   0.676414 0.200588 0.840979 0.141381
C30   C     C_3   0.665454 0.154030 0.877348 -0.322369
C31   C     C_3   0.605521 0.184603 0.903368 -0.971176
C32   C     C_3   0.104397 0.223898 0.183385 0.202007
C33   C     C_3   0.117868 0.153667 0.160499 -0.355838
C34   C     C_3   0.047462 0.110871 0.154759 -0.999584
C35   C     C_R   0.033430 0.557111 0.541480 -0.218592
C36   C     C_3   0.801368 0.683256 0.841903 0.145436
C37   C     C_3   0.848669 0.674283 0.878150 -0.320296
C38   C     C_3   0.815037 0.620569 0.906798 -0.974839
C39   C     C_3   0.816593 0.072462 0.250833 0.136102
C40   C     C_3   0.834811 0.996487 0.235714 -0.314077
C41   C     C_3   0.870005 0.949648 0.267139 -1.013490
C42   C     C_3   0.343673 0.793631 0.836991 0.132201
C43   C     C_3   0.321270 0.736275 0.866978 -0.321273
C44   C     C_3   0.386650 0.710235 0.890548 -0.983603
C45   C     C_3   0.894671 0.776044 0.183159 0.195992
C46   C     C_R   0.962319 0.554212 0.458778 -0.212896
C47   C     C_3   0.879983 0.846258 0.160518 -0.352828
C48   C     C_3   0.949691 0.890222 0.154857 -0.999302
C49   C     C_3   0.184722 0.322194 0.840054 0.146420
C50   C     C_3   0.231584 0.291532 0.872989 -0.332806
C51   C     C_3   0.249006 0.349856 0.903190 -0.980558
C52   C     C_3   0.206060 0.102232 0.810595 0.146480
C53   C     C_3   0.216801 0.046727 0.843125 -0.270811
C54   C     C_3   0.157896 0.988285 0.842108 -0.997270
C55   C     C_3   0.654848 0.790037 0.163545 0.125705
C56   C     C_3   0.676710 0.725465 0.137875 -0.317148
C57   C     C_R   0.435938 0.016114 0.541804 -0.210003
C58   C     C_3   0.611846 0.696731 0.114776 -0.987293
C59   C     C_3   0.116923 0.779185 0.822387 0.150890
C60   C     C_3   0.065884 0.758126 0.855622 -0.298414
C61   C     C_3   0.006703 0.815309 0.861612 -0.984427
C62   C     C_3   0.872701 0.243445 0.171523 0.158170
C63   C     C_3   0.844673 0.180529 0.146329 -0.340772
C64   C     C_3   0.851828 0.197839 0.103091 -0.978309
C65   C     C_3   0.790921 0.894573 0.813397 0.157480
C66   C     C_3   0.774919 0.951577 0.844602 -0.283510
C67   C     C_3   0.832242 0.011602 0.844565 -0.987634
C68   C     C_R   0.450501 0.956453 0.458841 -0.222151
C69   C     C_3   0.336265 0.210462 0.161522 0.135435
C70   C     C_3   0.352801 0.169361 0.123891 -0.313400
C71   C     C_3   0.417810 0.202153 0.102529 -0.983006
C72   C     C_3   0.889111 0.217697 0.819634 0.149028
C73   C     C_3   0.943710 0.240385 0.850917 -0.295754
C74   C     C_3   0.004206 0.184129 0.855303 -0.963793
C75   C     C_3   0.126689 0.756929 0.171730 0.159922
C76   C     C_3   0.153614 0.820257 0.146519 -0.341259
C77   C     C_3   0.145774 0.803141 0.103286 -0.979601
C78   C     C_3   0.715940 0.387722 0.680887 0.152665
C79   C     C_R   0.449941 0.958102 0.081136 -0.026530
C80   C     C_3   0.735479 0.440669 0.648282 -0.284491
C81   C     C_3   0.679474 0.501572 0.645180 -1.000768
C82   C     C_3   0.256165 0.627855 0.328709 0.159605
C83   C     C_3   0.318979 0.656063 0.353950 -0.342409
C84   C     C_3   0.301615 0.648669 0.397174 -0.978333
C85   C     C_3   0.617171 0.695368 0.675782 0.204415
C86   C     C_3   0.582727 0.649556 0.708683 -0.458219
C87   C     C_3   0.521475 0.689192 0.729974 -0.757999
C88   C     C_3   0.287834 0.165245 0.338624 0.133357
C89   C     C_3   0.328610 0.147849 0.376229 -0.313205
C90   C     C_R   0.545501 0.953190 0.918613 -0.027121
C91   C     C_3   0.292427 0.085727 0.398414 -0.981172
C92   C     C_3   0.276932 0.619991 0.674818 0.157801
C93   C     C_3   0.258055 0.579155 0.637451 -0.299824
C94   C     C_3   0.313665 0.519914 0.628622 -1.008107
C95   C     C_3   0.742913 0.373334 0.328231 0.160607
C96   C     C_3   0.679702 0.346104 0.353483 -0.342446
C97   C     C_3   0.697147 0.353455 0.396704 -0.978588
C98   C     C_3   0.415426 0.292550 0.700810 0.195625
C99   C     C_3   0.408938 0.370350 0.685353 -0.353776
C100  C     C_3   0.480810 0.411526 0.689117 -1.016894
C101  C     C_R   0.054050 0.461657 0.081720 -0.025961
C102  C     C_3   0.714434 0.837238 0.338193 0.132559
C103  C     C_3   0.674559 0.856033 0.375890 -0.313621
C104  C     C_3   0.711704 0.918472 0.397377 -0.982307
C105  C     C_3   0.724818 0.605666 0.317427 0.200366
C106  C     C_3   0.654564 0.619832 0.340223 -0.355612
C107  C     C_3   0.611399 0.549781 0.346248 -1.000385
C108  C     C_3   0.194497 0.310186 0.659061 0.145367
C109  C     C_3   0.186701 0.360496 0.623931 -0.323742
C110  C     C_3   0.133579 0.329701 0.594044 -0.967599
C111  C     C_3   0.571783 0.315397 0.248761 0.136010
C112  C     C_R   0.545466 0.954970 0.959099 -0.212035
C113  C     C_R   0.056424 0.535250 0.918055 -0.026046
C114  C     C_3   0.495840 0.334035 0.263878 -0.313104
C115  C     C_3   0.448273 0.367006 0.232067 -1.012045
C116  C     C_3   0.291426 0.844136 0.663070 0.139830
C117  C     C_3   0.232539 0.820853 0.634054 -0.328301
C118  C     C_3   0.206969 0.884861 0.609354 -0.964502
C119  C     C_3   0.276526 0.395908 0.316381 0.202401
C120  C     C_3   0.346698 0.382560 0.339372 -0.356216
C121  C     C_3   0.389738 0.452851 0.344859 -0.998523
C122  C     C_3   0.817072 0.705000 0.658928 0.108419
C123  C     C_3   0.832900 0.659732 0.622606 -0.320586
C124  C     C_R   0.549397 0.046828 0.081847 -0.013933
C125  C     C_3   0.883694 0.699724 0.594760 -0.967449
C126  C     C_3   0.427043 0.681516 0.250095 0.133339
C127  C     C_3   0.502788 0.663003 0.265525 -0.316888
C128  C     C_3   0.548489 0.623687 0.235002 -1.009740
C129  C     C_3   0.700617 0.163345 0.661707 0.141271
C130  C     C_3   0.756410 0.188841 0.631529 -0.329955
C131  C     C_3   0.779685 0.126577 0.604938 -0.964004
C132  C     C_1   0.399423 0.909431 0.100210 0.174117
C133  C     C_1   0.590101 0.899318 0.899371 0.142331
C134  C     C_1   0.111423 0.422509 0.101457 0.153870
C135  C     C_R   0.454988 0.050849 0.917967 -0.016600
C136  C     C_1   0.116406 0.570072 0.898193 0.133927
C137  C     C_1   0.599532 0.094779 0.101721 0.181690
C138  C     C_1   0.409448 0.102931 0.898002 0.152958
C139  C     C_1   0.887911 0.577323 0.101735 0.155393
C140  C     C_1   0.884862 0.427743 0.898133 0.134685
C141  C     C_1   0.929238 0.384179 0.601827 0.135269
C142  C     C_1   0.078127 0.388816 0.398418 0.154473
C143  C     C_1   0.631386 0.966143 0.602445 0.137615
C144  C     C_1   0.602137 0.090045 0.398627 0.173013
C145  C     C_1   0.067920 0.617743 0.601898 0.130951
C146  C     C_R   0.945343 0.538465 0.081856 -0.023881
C147  C     C_1   0.922051 0.611323 0.398451 0.153231
C148  C     C_1   0.368862 0.034396 0.602469 0.138089
C149  C     C_1   0.397831 0.910111 0.398650 0.172418
C150  C     C_R   0.943698 0.464420 0.918030 -0.015011
C151  C     C_R   0.965060 0.443521 0.581957 -0.019942
C152  C     C_R   0.038780 0.445959 0.418230 -0.025294
C153  C     C_R   0.564467 0.983335 0.582319 -0.016393
C154  C     C_R   0.549521 0.044565 0.418315 -0.015630
C155  C     C_R   0.034161 0.557234 0.582004 -0.015126
C156  C     C_R   0.054011 0.462757 0.041187 -0.212620
C157  C     C_R   0.961348 0.554159 0.418243 -0.025279
C158  C     C_R   0.435684 0.016837 0.582329 -0.013829
C159  C     C_R   0.450512 0.955557 0.418326 -0.014934
C160  C     C_R   0.499830 0.003982 0.020983 0.083117
C161  C     C_R   0.500665 0.003912 0.978803 0.080732
C162  C     C_R   0.999662 0.500346 0.021097 0.087210
C163  C     C_R   0.999637 0.500442 0.978724 0.081792
C164  C     C_R   0.000084 0.500137 0.521302 0.080419
C165  C     C_R   0.000125 0.500127 0.478928 0.087897
C166  C     C_R   0.500075 0.000082 0.521551 0.087609
C167  C     C_R   0.056161 0.534659 0.958585 -0.212928
C168  C     C_R   0.500062 0.000070 0.479065 0.090046
C169  C     C_R   0.499997 0.000015 0.355137 0.779714
C170  C     C_R   0.500031 0.999994 0.645024 0.793134
C171  C     C_R   0.000002 0.499996 0.355125 0.798056
C172  C     C_R   0.999976 0.500089 0.644928 0.802438
C173  C     C_R   0.000011 0.499995 0.855067 0.797544
C174  C     C_R   0.999922 0.499994 0.144891 0.797670
C175  C     C_R   0.500003 0.000189 0.855137 0.790553
C176  C     C_R   0.499983 0.000291 0.144808 0.774343
C177  C     C_R   0.360009 0.139966 0.250003 0.882316
C178  C     C_R   0.548971 0.047489 0.041339 -0.221869
C179  C     C_R   0.639897 0.859478 0.750145 0.917347
C180  C     C_R   0.859761 0.359808 0.249992 0.900778
C181  C     C_R   0.140159 0.640190 0.749970 0.939305
C182  C     C_R   0.639954 0.860012 0.249991 0.875631
C183  C     C_R   0.360404 0.140765 0.750339 0.912302
C184  C     C_R   0.140177 0.640241 0.250039 0.900360
C185  C     C_R   0.859756 0.359918 0.750047 0.935599
C186  C     C_R   0.359979 0.859967 0.750022 0.872841
C187  C     C_R   0.640019 0.140016 0.249993 0.892286
C188  C     C_R   0.859939 0.640045 0.749983 0.896612
C189  C     C_R   0.455666 0.051688 0.958468 -0.218241
C190  C     C_R   0.140289 0.359794 0.249978 0.931724
C191  C     C_R   0.640198 0.139879 0.749969 0.877572
C192  C     C_R   0.359991 0.859976 0.249985 0.892642
C193  C     C_R   0.140246 0.360144 0.750098 0.878629
C194  C     C_R   0.859793 0.640292 0.250049 0.932715
C195  C     C_R   0.234672 0.819359 0.234664 0.315766
C196  C     C_R   0.738324 0.207733 0.783709 0.300982
C197  C     C_R   0.207158 0.259440 0.216586 0.332058
C198  C     C_R   0.793666 0.739634 0.783216 0.295763
C199  C     C_R   0.765280 0.180688 0.234646 0.316269
C200  C     C_R   0.945302 0.537708 0.041314 -0.214113
C201  C     C_R   0.266024 0.787940 0.784654 0.330375
C202  C     C_R   0.792385 0.740054 0.216546 0.325939
C203  C     C_R   0.205143 0.259176 0.783270 0.327240
C204  C     C_R   0.255557 0.202544 0.782071 0.315641
C205  C     C_R   0.733673 0.788022 0.215410 0.346815
C206  C     C_R   0.208894 0.737811 0.783877 0.303851
C207  C     C_R   0.815873 0.236520 0.230795 0.330857
C208  C     C_R   0.743170 0.796106 0.782224 0.297825
C209  C     C_R   0.265029 0.210465 0.215683 0.318957
C210  C     C_R   0.794099 0.259332 0.783173 0.306869
C211  C     C_R   0.943442 0.465741 0.958555 -0.217132
C212  C     C_R   0.183994 0.763579 0.230895 0.331336
C213  C     C_R   0.759723 0.293359 0.716813 0.306578
C214  C     C_R   0.263389 0.684351 0.269378 0.328274
C215  C     C_R   0.699860 0.753193 0.718632 0.370616
C216  C     C_R   0.289820 0.235311 0.284153 0.319424
C217  C     C_R   0.237818 0.709025 0.716083 0.302467
C218  C     C_R   0.736297 0.315950 0.269095 0.331783
C219  C     C_R   0.303529 0.250784 0.720801 0.331730
C220  C     C_R   0.710917 0.765579 0.284325 0.319591
C221  C     C_R   0.759803 0.707631 0.283512 0.330008
C222  C     C_R   0.966274 0.443407 0.541435 -0.213361
C223  C     C_R   0.245672 0.299366 0.719002 0.315098
C224  C     C_R   0.680500 0.265299 0.265263 0.316606
C225  C     C_R   0.287804 0.766303 0.715386 0.326454
C226  C     C_R   0.240893 0.293191 0.283245 0.329655
C227  C     C_R   0.758609 0.704427 0.717216 0.273173
C228  C     C_R   0.319280 0.734913 0.265510 0.316498
C229  C     C_R   0.709771 0.236217 0.715869 0.327904
C230  C     C_R   0.196400 0.696609 0.250106 -0.385499
C231  C     C_R   0.803573 0.303617 0.750055 -0.354299
C232  C     C_R   0.304205 0.196000 0.249937 -0.357815
H1    H     H_    0.412781 0.925962 0.024306 0.146555
H2    H     H_    0.067054 0.404287 0.474748 0.143842
H3    H     H_    0.909851 0.206510 0.095229 0.262229
H4    H     H_    0.792713 0.922325 0.784535 0.120482
H5    H     H_    0.845052 0.869931 0.819460 0.158810
H6    H     H_    0.720565 0.976163 0.839160 0.263122
H7    H     H_    0.774010 0.925114 0.873665 0.219593
H8    H     H_    0.886846 0.988683 0.851123 0.257051
H9    H     H_    0.818536 0.052672 0.867095 0.274942
H10   H     H_    0.833721 0.038777 0.815727 0.274510
H11   H     H_    0.386758 0.212431 0.179467 0.106798
H12   H     H_    0.319209 0.266972 0.154083 0.154071
H13   H     H_    0.613675 0.971423 0.525917 0.143186
H14   H     H_    0.364862 0.111555 0.130722 0.250875
H15   H     H_    0.304225 0.171000 0.104619 0.221033
H16   H     H_    0.406759 0.259820 0.094929 0.268601
H17   H     H_    0.427954 0.171177 0.075321 0.274979
H18   H     H_    0.467382 0.199189 0.120981 0.261151
H19   H     H_    0.919027 0.210576 0.791613 0.124411
H20   H     H_    0.864601 0.164936 0.828247 0.168212
H21   H     H_    0.968343 0.293525 0.842940 0.269975
H22   H     H_    0.915110 0.246761 0.879212 0.219997
H23   H     H_    0.981253 0.131096 0.864782 0.255681
H24   H     H_    0.587777 0.077505 0.474740 0.144878
H25   H     H_    0.044085 0.202972 0.877402 0.277674
H26   H     H_    0.032952 0.176771 0.827181 0.279366
H27   H     H_    0.071750 0.740603 0.161454 0.161514
H28   H     H_    0.162452 0.708424 0.167466 0.108896
H29   H     H_    0.122060 0.870194 0.153435 0.248473
H30   H     H_    0.212018 0.830743 0.152668 0.258703
H31   H     H_    0.177797 0.753875 0.095705 0.269645
H32   H     H_    0.166455 0.849636 0.085880 0.279520
H33   H     H_    0.087686 0.793951 0.095737 0.262225
H34   H     H_    0.710797 0.419003 0.708591 0.128629
H35   H     H_    0.059139 0.601080 0.525533 0.146753
H36   H     H_    0.662625 0.362053 0.673955 0.161568
H37   H     H_    0.789843 0.464929 0.654122 0.264612
H38   H     H_    0.738113 0.410837 0.620184 0.216307
H39   H     H_    0.624656 0.478899 0.638875 0.262311
H40   H     H_    0.694984 0.539120 0.621298 0.266286
H41   H     H_    0.677515 0.532655 0.672846 0.281890
H42   H     H_    0.240414 0.572971 0.339232 0.161230
H43   H     H_    0.207120 0.663038 0.332630 0.109993
H44   H     H_    0.369463 0.625136 0.347300 0.248783
H45   H     H_    0.328720 0.714453 0.347561 0.257045
H46   H     H_    0.933194 0.595965 0.474765 0.143245
H47   H     H_    0.251727 0.679982 0.404488 0.269780
H48   H     H_    0.347677 0.670354 0.414600 0.279263
H49   H     H_    0.293296 0.590622 0.404959 0.262595
H50   H     H_    0.654075 0.661506 0.657953 0.144486
H51   H     H_    0.572832 0.710527 0.655365 0.144838
H52   H     H_    0.559372 0.599650 0.695322 0.185148
H53   H     H_    0.624555 0.631370 0.729872 0.209873
H54   H     H_    0.544122 0.730881 0.749821 0.261216
H55   H     H_    0.490414 0.649686 0.747911 0.213592
H56   H     H_    0.483359 0.714959 0.709017 0.277843
H57   H     H_    0.386511 0.028879 0.525938 0.143130
H58   H     H_    0.284184 0.114660 0.320848 0.105899
H59   H     H_    0.231882 0.184175 0.346109 0.157690
H60   H     H_    0.385562 0.132242 0.369249 0.248496
H61   H     H_    0.330046 0.197087 0.394996 0.223756
H62   H     H_    0.235776 0.100641 0.406439 0.269166
H63   H     H_    0.323588 0.074390 0.425423 0.274483
H64   H     H_    0.291588 0.035636 0.380338 0.263337
H65   H     H_    0.280290 0.580276 0.699250 0.140839
H66   H     H_    0.331066 0.646301 0.670969 0.160163
H67   H     H_    0.203418 0.553759 0.640461 0.251634
H68   H     H_    0.412324 0.922653 0.474757 0.144703
H69   H     H_    0.256350 0.618183 0.612774 0.222294
H70   H     H_    0.369320 0.543311 0.626634 0.268346
H71   H     H_    0.300117 0.493578 0.600475 0.268681
H72   H     H_    0.312243 0.478103 0.651831 0.287915
H73   H     H_    0.758970 0.428309 0.338509 0.161143
H74   H     H_    0.791662 0.337864 0.332453 0.109719
H75   H     H_    0.629662 0.377699 0.346787 0.248558
H76   H     H_    0.669176 0.287817 0.347167 0.257870
H77   H     H_    0.746452 0.321289 0.404070 0.269976
H78   H     H_    0.650684 0.332705 0.414146 0.279407
H79   H     H_    0.221802 0.933596 0.276152 0.111467
H80   H     H_    0.706524 0.411377 0.404428 0.262198
H81   H     H_    0.463518 0.266484 0.686984 0.191105
H82   H     H_    0.426650 0.293537 0.732752 0.093822
H83   H     H_    0.392659 0.368870 0.654223 0.249770
H84   H     H_    0.366690 0.399942 0.702181 0.238355
H85   H     H_    0.498289 0.413674 0.720029 0.264588
H86   H     H_    0.473799 0.468032 0.678330 0.270930
H87   H     H_    0.523795 0.384560 0.671553 0.271550
H88   H     H_    0.717880 0.887229 0.319949 0.106252
H89   H     H_    0.770475 0.818327 0.345486 0.157784
H90   H     H_    0.132818 0.901064 0.260577 0.151120
H91   H     H_    0.617601 0.871920 0.369115 0.247258
H92   H     H_    0.673102 0.807351 0.395046 0.224171
H93   H     H_    0.768387 0.903309 0.405191 0.269255
H94   H     H_    0.681187 0.930838 0.424475 0.274140
H95   H     H_    0.712601 0.968033 0.378908 0.263800
H96   H     H_    0.755248 0.561491 0.332282 0.172618
H97   H     H_    0.711596 0.584897 0.287719 0.115391
H98   H     H_    0.667946 0.643898 0.369015 0.246534
H99   H     H_    0.619839 0.658572 0.323971 0.252781
H100  H     H_    0.598730 0.523918 0.317819 0.280977
H101  H     H_    0.216047 0.030336 0.224784 0.259402
H102  H     H_    0.559412 0.562247 0.361341 0.274957
H103  H     H_    0.643031 0.511232 0.364434 0.272312
H104  H     H_    0.139347 0.299632 0.671409 0.112998
H105  H     H_    0.218882 0.257806 0.649196 0.156274
H106  H     H_    0.166797 0.414540 0.633708 0.254450
H107  H     H_    0.240828 0.367935 0.610033 0.221483
H108  H     H_    0.153564 0.276627 0.582888 0.267806
H109  H     H_    0.128449 0.368127 0.569272 0.272989
H110  H     H_    0.078986 0.322121 0.607328 0.266291
H111  H     H_    0.566251 0.277407 0.223631 0.110357
H112  H     H_    0.579623 0.917725 0.975407 0.146936
H113  H     H_    0.126717 0.998791 0.211020 0.226846
H114  H     H_    0.598718 0.366531 0.238894 0.150724
H115  H     H_    0.469284 0.283871 0.274985 0.259374
H116  H     H_    0.500709 0.373412 0.288289 0.226859
H117  H     H_    0.472454 0.418727 0.221470 0.270713
H118  H     H_    0.393239 0.378501 0.243896 0.263768
H119  H     H_    0.442639 0.328493 0.207357 0.254810
H120  H     H_    0.335263 0.873030 0.647003 0.171345
H121  H     H_    0.268597 0.884180 0.684232 0.090236
H122  H     H_    0.254389 0.777727 0.614612 0.243233
H123  H     H_    0.185056 0.798512 0.650106 0.245266
H124  H     H_    0.079990 0.027117 0.277564 0.271001
H125  H     H_    0.185235 0.928879 0.628211 0.268555
H126  H     H_    0.163123 0.866565 0.589377 0.271503
H127  H     H_    0.252771 0.906415 0.591672 0.272201
H128  H     H_    0.246061 0.440608 0.330777 0.173677
H129  H     H_    0.289844 0.415624 0.286485 0.113956
H130  H     H_    0.333231 0.359370 0.368349 0.246049
H131  H     H_    0.381539 0.343366 0.323495 0.252607
H132  H     H_    0.402330 0.477966 0.316238 0.280195
H133  H     H_    0.441761 0.440900 0.360025 0.274760
H134  H     H_    0.358039 0.491814 0.362779 0.272415
H135  H     H_    0.120651 0.106249 0.255353 0.263925
H136  H     H_    0.869701 0.718087 0.673530 0.120125
H137  H     H_    0.789734 0.756445 0.649931 0.157148
H138  H     H_    0.858506 0.607451 0.631255 0.248664
H139  H     H_    0.780954 0.647434 0.607375 0.214204
H140  H     H_    0.857954 0.750955 0.584570 0.268112
H141  H     H_    0.895163 0.664738 0.569138 0.271124
H142  H     H_    0.935998 0.712691 0.609412 0.269790
H143  H     H_    0.433007 0.716981 0.223973 0.108506
H144  H     H_    0.399168 0.629980 0.241667 0.155430
H145  H     H_    0.531091 0.713914 0.274199 0.255547
H146  H     H_    0.170000 0.056991 0.292178 0.255103
H147  H     H_    0.497408 0.627710 0.291617 0.229706
H148  H     H_    0.522713 0.571060 0.227067 0.271089
H149  H     H_    0.603600 0.612754 0.246860 0.265651
H150  H     H_    0.554229 0.657796 0.208551 0.260688
H151  H     H_    0.654992 0.135936 0.646321 0.173257
H152  H     H_    0.725474 0.121494 0.681131 0.091281
H153  H     H_    0.732457 0.233070 0.613581 0.244113
H154  H     H_    0.805322 0.210437 0.646626 0.246229
H155  H     H_    0.803933 0.081738 0.622286 0.269534
H156  H     H_    0.821006 0.146494 0.583901 0.272049
H157  H     H_    0.623212 0.206098 0.825650 0.109782
H158  H     H_    0.732149 0.105502 0.588422 0.270416
H159  H     H_    0.695917 0.255467 0.850041 0.157871
H160  H     H_    0.650677 0.097739 0.868649 0.249175
H161  H     H_    0.717253 0.151678 0.894028 0.217704
H162  H     H_    0.619810 0.240405 0.913141 0.266799
H163  H     H_    0.598977 0.149322 0.929354 0.274171
H164  H     H_    0.095907 0.433902 0.025155 0.144440
H165  H     H_    0.552961 0.186127 0.887406 0.263654
H166  H     H_    0.059774 0.254293 0.168881 0.173395
H167  H     H_    0.084460 0.210747 0.213263 0.114341
H168  H     H_    0.141573 0.166923 0.131607 0.246331
H169  H     H_    0.156710 0.118774 0.176573 0.252752
H170  H     H_    0.021807 0.098544 0.183284 0.280715
H171  H     H_    0.059505 0.058774 0.139720 0.274779
H172  H     H_    0.008875 0.142558 0.136616 0.272406
H173  H     H_    0.793488 0.628850 0.828183 0.109469
H174  H     H_    0.747454 0.705531 0.850877 0.159736
H175  H     H_    0.099683 0.561119 0.974567 0.145600
H176  H     H_    0.903499 0.654477 0.869543 0.248585
H177  H     H_    0.855062 0.727899 0.892697 0.221409
H178  H     H_    0.761413 0.640868 0.917067 0.267613
H179  H     H_    0.851602 0.614039 0.932290 0.273149
H180  H     H_    0.807628 0.566666 0.892775 0.267665
H181  H     H_    0.779511 0.067095 0.276369 0.110861
H182  H     H_    0.868084 0.099554 0.260091 0.152020
H183  H     H_    0.784118 0.969503 0.225567 0.256834
H184  H     H_    0.872724 0.001217 0.210635 0.228436
H185  H     H_    0.922363 0.974146 0.276655 0.271728
H186  H     H_    0.586714 0.081963 0.025531 0.145863
H187  H     H_    0.880921 0.894490 0.255379 0.264072
H188  H     H_    0.833108 0.944376 0.292574 0.255743
H189  H     H_    0.372615 0.838414 0.852260 0.166391
H190  H     H_    0.383543 0.769877 0.815999 0.088469
H191  H     H_    0.280009 0.759688 0.887062 0.241211
H192  H     H_    0.296720 0.688834 0.851855 0.246778
H193  H     H_    0.428212 0.685810 0.871032 0.264232
H194  H     H_    0.368770 0.668399 0.911791 0.275081
H195  H     H_    0.411367 0.756363 0.906741 0.268271
H196  H     H_    0.939369 0.746246 0.168352 0.173181
H197  H     H_    0.421348 0.089560 0.974277 0.146401
H198  H     H_    0.914963 0.789180 0.212974 0.116815
H199  H     H_    0.856452 0.832856 0.131601 0.246410
H200  H     H_    0.840538 0.880311 0.176725 0.252006
H201  H     H_    0.975137 0.902810 0.183405 0.279903
H202  H     H_    0.936807 0.942194 0.139919 0.275308
H203  H     H_    0.988817 0.859262 0.136664 0.272232
H204  H     H_    0.135727 0.348245 0.852945 0.174238
H205  H     H_    0.214969 0.366118 0.824464 0.091139
H206  H     H_    0.202266 0.245966 0.887377 0.238146
H207  H     H_    0.283434 0.270373 0.860818 0.251206
H208  H     H_    0.903345 0.566635 0.025378 0.143099
H209  H     H_    0.279050 0.395609 0.889474 0.267168
H210  H     H_    0.283490 0.326144 0.926484 0.274711
H211  H     H_    0.198051 0.370875 0.916514 0.267868
H212  H     H_    0.209080 0.073401 0.782079 0.123693
H213  H     H_    0.151168 0.126947 0.813770 0.157165
H214  H     H_    0.271038 0.020520 0.839909 0.262245
H215  H     H_    0.215014 0.074901 0.871731 0.217796
H216  H     H_    0.103315 0.013039 0.846468 0.259122
H217  H     H_    0.167768 0.948334 0.865739 0.277182
H218  H     H_    0.158947 0.959411 0.813726 0.266552
H219  H     H_    0.899988 0.439132 0.974511 0.146803
H220  H     H_    0.628521 0.831918 0.144973 0.167117
H221  H     H_    0.613000 0.772889 0.185196 0.089647
H222  H     H_    0.720153 0.742654 0.117315 0.248732
H223  H     H_    0.698261 0.680850 0.156368 0.237764
H224  H     H_    0.567946 0.678624 0.134780 0.261530
H225  H     H_    0.629266 0.649652 0.096804 0.276687
H226  H     H_    0.590301 0.739689 0.095192 0.267651
H227  H     H_    0.083850 0.786551 0.795436 0.129588
H228  H     H_    0.143584 0.831516 0.829909 0.167084
H229  H     H_    0.039768 0.705024 0.848987 0.261781
H230  H     H_    0.940285 0.399627 0.525454 0.146551
H231  H     H_    0.097818 0.752309 0.882912 0.219812
H232  H     H_    0.031454 0.869120 0.868078 0.262992
H233  H     H_    0.971654 0.799349 0.886484 0.267636
H234  H     H_    0.972283 0.819758 0.835158 0.282698
H235  H     H_    0.927657 0.259204 0.161032 0.161169
H236  H     H_    0.837425 0.292365 0.167498 0.109919
H237  H     H_    0.875866 0.130244 0.152959 0.249188
H238  H     H_    0.786298 0.170562 0.152789 0.258550
H239  H     H_    0.820140 0.247461 0.095802 0.269391
H240  H     H_    0.830348 0.151658 0.085705 0.279811
N1    N     N_1   0.358974 0.870472 0.115468 -0.208595
N2    N     N_1   0.109619 0.343045 0.382567 -0.168629
N3    N     N_1   0.684900 0.952358 0.618615 -0.220819
N4    N     N_1   0.644239 0.126456 0.382855 -0.215411
N5    N     N_1   0.094738 0.666344 0.617804 -0.196556
N6    N     N_1   0.890608 0.657124 0.382622 -0.167775
N7    N     N_1   0.315449 0.048522 0.618661 -0.221737
N8    N     N_1   0.355674 0.873733 0.382887 -0.215696
N9    N     N_1   0.625656 0.856008 0.884011 -0.176907
N10   N     N_1   0.157372 0.391174 0.117250 -0.168658
N11   N     N_1   0.164516 0.597822 0.882297 -0.190827
N12   N     N_1   0.639633 0.133205 0.117625 -0.210839
N13   N     N_1   0.373078 0.144752 0.882047 -0.187126
N14   N     N_1   0.841897 0.608410 0.117633 -0.179408
N15   N     N_1   0.837720 0.398446 0.882194 -0.184741
N16   N     N_1   0.900591 0.336664 0.617747 -0.193570
O1    O     O_3   0.500000 0.000000 0.250000 -0.513858
O2    O     O_R   0.500000 0.939280 0.663170 -0.629374
O3    O     O_R   0.939280 0.500000 0.336830 -0.647171
O4    O     O_R   0.060720 0.500000 0.663170 -0.651408
O5    O     O_R   0.000000 0.439280 0.836830 -0.657398
O6    O     O_R   0.000000 0.560720 0.163170 -0.646663
O7    O     O_R   0.560720 1.000000 0.836830 -0.652641
O8    O     O_R   0.439280 0.000000 0.163170 -0.639603
O9    O     O_R   0.000000 0.560720 0.836830 -0.654392
O10   O     O_R   1.000000 0.439280 0.163170 -0.646897
O11   O     O_R   0.439280 1.000000 0.836830 -0.642838
O12   O     O_3   0.500000 1.000000 0.750000 -0.507066
O13   O     O_R   0.560720 0.000000 0.163170 -0.631517
O14   O     O_R   0.414510 0.146140 0.272820 -0.620880
O15   O     O_R   0.585490 0.853860 0.727180 -0.598663
O16   O     O_R   0.853860 0.414510 0.272820 -0.633410
O17   O     O_R   0.146140 0.585490 0.727180 -0.628135
O18   O     O_R   0.585490 0.853860 0.272820 -0.618857
O19   O     O_R   0.414510 0.146140 0.727180 -0.630702
O20   O     O_R   0.146140 0.585490 0.272820 -0.632848
O21   O     O_R   0.853860 0.414510 0.727180 -0.627618
O22   O     O_R   0.414510 0.853860 0.727180 -0.624606
O23   O     O_3   0.000000 0.500000 0.250000 -0.497359
O24   O     O_R   0.585490 0.146140 0.272820 -0.604390
O25   O     O_R   0.853860 0.585490 0.727180 -0.612747
O26   O     O_R   0.146140 0.414510 0.272820 -0.635095
O27   O     O_R   0.585490 0.146140 0.727180 -0.629786
O28   O     O_R   0.414510 0.853860 0.272820 -0.602964
O29   O     O_R   0.146140 0.414510 0.727180 -0.612658
O30   O     O_R   0.853860 0.585490 0.272820 -0.636130
O31   O     O_R   0.914510 0.646140 0.772820 -0.617132
O32   O     O_R   0.085490 0.353860 0.227180 -0.635348
O33   O     O_R   0.353860 0.914510 0.772820 -0.624706
O34   O     O_3   0.000000 0.500000 0.750000 -0.502364
O35   O     O_R   0.646140 0.085490 0.227180 -0.603388
O36   O     O_R   0.085490 0.353860 0.772820 -0.626445
O37   O     O_R   0.914510 0.646140 0.227180 -0.633956
O38   O     O_R   0.646140 0.085490 0.772820 -0.615441
O39   O     O_R   0.353860 0.914510 0.227180 -0.604938
O40   O     O_R   0.914510 0.353860 0.227180 -0.632814
O41   O     O_R   0.085490 0.646140 0.772820 -0.628426
O42   O     O_R   0.353860 0.085490 0.227180 -0.621634
O43   O     O_R   0.646140 0.914510 0.772820 -0.627795
O44   O     O_R   0.085490 0.646140 0.227180 -0.633061
O45   O     O_R   0.500000 0.939280 0.336830 -0.637690
O46   O     O_R   0.914510 0.353860 0.772820 -0.627947
O47   O     O_R   0.646140 0.914510 0.227180 -0.626827
O48   O     O_R   0.353860 0.085490 0.772820 -0.618264
O49   O     O_3   0.217419 0.887811 0.220731 -0.600129
O50   O     O_3   0.728087 0.166160 0.816817 -0.612879
O51   O     O_3   0.166719 0.269581 0.182980 -0.600889
O52   O     O_3   0.836742 0.731070 0.815926 -0.610971
O53   O     O_3   0.782568 0.112180 0.220772 -0.599312
O54   O     O_3   0.281298 0.824137 0.819079 -0.612984
O55   O     O_3   0.832861 0.729710 0.182972 -0.607281
O56   O     O_R   0.500000 0.060720 0.663170 -0.635475
O57   O     O_3   0.160206 0.265320 0.815508 -0.616783
O58   O     O_3   0.260863 0.155887 0.813532 -0.597607
O59   O     O_3   0.716989 0.822521 0.180697 -0.614531
O60   O     O_3   0.169801 0.724077 0.817540 -0.604370
O61   O     O_3   0.880041 0.222191 0.211014 -0.611292
O62   O     O_3   0.735871 0.840836 0.814410 -0.594273
O63   O     O_3   0.280105 0.173687 0.181498 -0.613973
O64   O     O_3   0.834493 0.271573 0.816586 -0.598828
O65   O     O_3   0.119679 0.777984 0.211276 -0.611073
O66   O     O_3   0.771064 0.334364 0.683596 -0.605036
O67   O     O_R   0.060720 0.500000 0.336830 -0.646797
O68   O     O_3   0.277666 0.620362 0.289258 -0.612818
O69   O     O_3   0.651811 0.761046 0.687514 -0.589877
O70   O     O_3   0.326273 0.219903 0.318387 -0.613298
O71   O     O_3   0.222066 0.672150 0.681992 -0.608405
O72   O     O_3   0.721758 0.380211 0.288697 -0.610882
O73   O     O_3   0.353401 0.250603 0.690517 -0.599633
O74   O     O_3   0.675358 0.782073 0.318692 -0.612157
O75   O     O_3   0.770572 0.667902 0.317281 -0.601555
O76   O     O_3   0.239657 0.344276 0.686862 -0.609917
O77   O     O_3   0.611883 0.282583 0.279068 -0.600101
O78   O     O_R   0.939280 0.500000 0.663170 -0.654815
O79   O     O_3   0.323382 0.782428 0.680875 -0.619119
O80   O     O_3   0.230785 0.333662 0.316843 -0.601534
O81   O     O_3   0.771640 0.664337 0.683894 -0.621172
O82   O     O_3   0.387793 0.717901 0.279561 -0.599188
O83   O     O_3   0.670981 0.223636 0.681927 -0.617065
O84   O     O_R   0.500000 0.060720 0.336830 -0.638564
Zn1   Zn    Zn3+2 0.413200 0.000000 0.217600 0.973742
Zn2   Zn    Zn3+2 0.086800 0.500000 0.282400 0.963877
Zn3   Zn    Zn3+2 0.500000 0.913200 0.717600 0.980742
Zn4   Zn    Zn3+2 0.500000 0.086800 0.282400 0.976296
Zn5   Zn    Zn3+2 0.086800 0.500000 0.717600 0.967061
Zn6   Zn    Zn3+2 0.913200 0.500000 0.282400 0.963321
Zn7   Zn    Zn3+2 0.500000 0.086800 0.717600 0.967820
Zn8   Zn    Zn3+2 0.500000 0.913200 0.282400 0.976927
Zn9   Zn    Zn3+2 0.586800 0.000000 0.782400 0.957586
Zn10  Zn    Zn3+2 0.000000 0.413200 0.217600 0.963822
Zn11  Zn    Zn3+2 1.000000 0.586800 0.782400 0.964610
Zn12  Zn    Zn3+2 0.586800 0.000000 0.217600 0.976705
Zn13  Zn    Zn3+2 0.413200 0.000000 0.782400 0.962218
Zn14  Zn    Zn3+2 1.000000 0.586800 0.217600 0.963891
Zn15  Zn    Zn3+2 0.000000 0.413200 0.782400 0.957138
Zn16  Zn    Zn3+2 0.913200 0.500000 0.717600 0.967095

loop_
_geom_bond_atom_site_label_1
_geom_bond_atom_site_label_2
_ccdc_geom_bond_type
C31   H165  S    
C75   O65   S    
C126  C127  S    
C34   H171  S    
C13   H13   S    
C57   C158  A    
C114  C115  S    
C209  O63   S    
C213  C229  A    
O21   Zn16  S    
C61   H233  S    
C53   H215  S    
C42   O54   S    
C202  O55   S    
C49   H205  S    
C78   H34   S    
C99   H84   S    
C82   H42   S    
C87   H55   S    
C119  O80   S    
C39   H182  S    
C106  C107  S    
C217  O71   S    
C37   H176  S    
C3    C215  A    
C131  H156  S    
C84   H47   S    
C218  O72   S    
C67   H8    S    
C126  O82   S    
C108  C109  S    
C6    C205  A    
C15   C191  S    
O1    Zn12  S    
C5    C217  A    
C192  O28   A    
C52   O58   S    
C116  H120  S    
C47   C48   S    
C210  C231  A    
C56   C58   S    
C125  H141  S    
C45   O55   S    
C70   H15   S    
C195  O49   S    
C196  C210  A    
O34   Zn11  S    
C128  H149  S    
C44   H195  S    
C59   C60   S    
C45   H198  S    
C121  H133  S    
O12   Zn9   S    
O1    Zn4   S    
C94   H70   S    
C175  O7    A    
O47   Zn12  S    
C191  O38   A    
C24   C154  A    
C45   C47   S    
C63   H238  S    
C2    C152  A    
C183  O19   A    
C51   H211  S    
C118  H125  S    
C143  N3    T    
C59   H227  S    
C124  C137  S    
C111  O77   S    
C64   H3    S    
O46   Zn15  S    
C12   C227  A    
C210  O64   S    
C57   C166  A    
C106  H99   S    
C115  H117  S    
C47   H199  S    
C42   H190  S    
C169  O84   A    
C43   C44   S    
C37   C38   S    
C41   H185  S    
C64   H239  S    
C204  O58   S    
C50   H207  S    
C26   H79   S    
C7    C204  A    
O39   Zn1   S    
C55   O59   S    
C183  O48   A    
C98   H82   S    
C2    C165  A    
C58   H224  S    
C8    C223  A    
C15   C196  A    
C130  H154  S    
C122  H137  S    
C127  H147  S    
C23   C153  A    
C185  O21   A    
C1    C79   A    
C88   H58   S    
C36   H173  S    
C178  H186  S    
C227  O81   S    
C216  O70   S    
C132  N1    T    
C190  O32   A    
C76   H30   S    
O23   Zn10  S    
C16   C228  A    
C163  C211  A    
C77   H31   S    
C25   C154  A    
C65   O62   S    
C213  O66   S    
C58   H225  S    
C72   C73   S    
C83   H45   S    
C95   O72   S    
C69   H12   S    
C22   C157  A    
C193  O29   A    
C21   C172  S    
C84   H49   S    
C105  H97   S    
C156  H164  S    
C151  C222  A    
C7    C183  S    
C92   H65   S    
O84   Zn4   S    
C121  H132  S    
C28   H124  S    
C108  H105  S    
C19   C174  S    
C96   H75   S    
C16   C195  A    
C150  C211  A    
C13   C166  A    
C123  H139  S    
C111  H111  S    
C177  O42   A    
C130  C131  S    
C81   H40   S    
C146  C200  A    
C69   C70   S    
C123  C125  S    
C9    C202  A    
C73   H22   S    
C37   H177  S    
C88   C89   S    
C36   O52   S    
C98   C99   S    
C85   H51   S    
O23   Zn6   S    
C30   H161  S    
C86   H52   S    
C93   H67   S    
C107  H102  S    
C35   H35   S    
C71   H17   S    
O16   Zn6   S    
O67   Zn2   S    
O24   Zn4   S    
C205  O59   S    
C23   C158  A    
C51   H209  S    
C111  H114  S    
C162  C200  A    
C65   H4    S    
C212  O65   S    
C179  O43   A    
C85   C86   S    
C207  O61   S    
C31   H162  S    
C68   H68   S    
C220  O74   S    
C6    C182  S    
C198  O52   S    
C186  O33   A    
C36   C37   S    
C176  O8    A    
C136  N11   T    
C35   C155  A    
C41   H187  S    
O31   Zn11  S    
C20   C113  A    
C78   C80   S    
C102  H88   S    
C91   H64   S    
C189  H197  S    
C200  H208  S    
C24   H24   S    
C122  O81   S    
C102  C103  S    
O8    Zn1   S    
C40   H184  S    
C138  N13   T    
C99   C100  S    
C27   H101  S    
C176  O13   A    
C89   C91   S    
C81   H41   S    
C100  H85   S    
C213  C231  A    
C203  O57   S    
C129  O83   S    
C66   C67   S    
C97   H78   S    
C181  O17   A    
C66   H6    S    
C166  C168  S    
O33   Zn13  S    
C199  C207  A    
C220  C221  A    
C10   C201  A    
C67   H10   S    
C64   H240  S    
C139  N14   T    
C11   C199  A    
C74   H26   S    
C221  O75   S    
C14   C197  A    
C44   H194  S    
C19   C146  A    
C103  H92   S    
C121  H134  S    
O1    Zn1   S    
C78   O66   S    
O29   Zn5   S    
C1    H1    S    
C39   C40   S    
O28   Zn8   S    
C171  O3    A    
O4    Zn5   S    
C201  O54   S    
O3    Zn6   S    
C109  H106  S    
C25   C159  A    
C29   C30   S    
O34   Zn15  S    
C17   C124  A    
C49   O57   S    
C83   C84   S    
C38   H180  S    
C201  C206  A    
C185  O46   A    
O12   Zn13  S    
C21   C155  A    
C107  H100  S    
C43   H192  S    
C39   O53   S    
C175  O11   A    
C170  O2    A    
C182  O47   A    
O13   Zn12  S    
C6    C220  A    
C134  N10   T    
C133  N9    T    
O41   Zn11  S    
C4    C218  A    
C60   H229  S    
O43   Zn9   S    
C126  H144  S    
C68   C168  A    
C110  H109  S    
C52   C53   S    
C129  C130  S    
C32   H167  S    
C12   C198  A    
O2    Zn3   S    
O25   Zn16  S    
C34   H172  S    
C123  H138  S    
C22   C171  S    
C75   H27   S    
O34   Zn5   S    
C188  O25   A    
C62   H235  S    
O42   Zn1   S    
C35   C164  A    
C191  O27   A    
C32   O51   S    
C53   H214  S    
C91   H62   S    
O32   Zn10  S    
C56   H223  S    
C99   H83   S    
C82   H43   S    
C195  C212  A    
C54   H217  S    
C117  C118  S    
C39   H181  S    
C98   O73   S    
O19   Zn7   S    
C131  H155  S    
C219  O73   S    
C208  O62   S    
C48   H201  S    
C10   C186  S    
C95   H73   S    
C215  C227  A    
C21   C151  A    
C33   H168  S    
O22   Zn3   S    
C199  O53   S    
C100  H87   S    
C63   C64   S    
C14   C190  S    
C85   O69   S    
C97   H80   S    
C49   C50   S    
C117  H123  S    
C119  H129  S    
O26   Zn2   S    
C217  C225  A    
C128  H150  S    
C55   C56   S    
C139  C146  S    
C135  C138  S    
C73   C74   S    
C107  H103  S    
C187  O35   A    
C94   H71   S    
C76   H29   S    
C177  C232  S    
C63   H237  S    
C97   H77   S    
C112  C161  A    
C26   C27   S    
C180  O40   A    
C118  H126  S    
C180  O16   A    
C164  C165  S    
C46   C165  A    
O12   Zn3   S    
C14   C226  A    
C92   O71   S    
C30   C31   S    
O48   Zn13  S    
C143  C153  S    
C173  O9    A    
C169  O45   A    
C38   H178  S    
C31   H163  S    
C45   H196  S    
C184  O20   A    
C80   H37   S    
C142  C152  S    
C5    C206  A    
C2    H2    S    
C177  O14   A    
C202  C205  A    
C10   C225  A    
C179  O15   A    
C60   H231  S    
C70   C71   S    
C29   O50   S    
C104  H93   S    
C74   H23   S    
C129  H152  S    
C114  H115  S    
C61   H234  S    
C48   H202  S    
C15   C229  A    
C34   H170  S    
C36   H174  S    
C71   H16   S    
C4    C180  S    
O11   Zn13  S    
C5    C181  S    
C52   H213  S    
C61   H232  S    
C18   C90   A    
C116  O79   S    
C87   H56   S    
C58   H226  S    
C140  N15   T    
C94   H72   S    
C90   C133  S    
C86   C87   S    
C69   H11   S    
C101  C156  A    
C53   C54   S    
C48   H203  S    
C92   H66   S    
C60   C61   S    
C209  C232  A    
C216  C226  A    
C29   H157  S    
C62   C63   S    
C190  O26   A    
O5    Zn15  S    
C224  O77   S    
C181  O41   A    
C50   C51   S    
O44   Zn14  S    
C141  N16   T    
C13   C153  A    
C125  H142  S    
C33   H169  S    
C125  H140  S    
C73   H21   S    
C149  N8    T    
C105  O75   S    
C186  O22   A    
C137  N12   T    
C196  O50   S    
C85   H50   S    
C86   H53   S    
C28   H146  S    
C145  N5    T    
C42   C43   S    
C127  C128  S    
C214  C230  A    
C172  O78   A    
C57   H57   S    
C4    C207  A    
C162  C163  S    
C24   C168  A    
O35   Zn12  S    
C59   H228  S    
C8    C203  A    
O18   Zn8   S    
C11   C224  A    
C113  C167  A    
C119  C120  S    
C69   O63   S    
C218  C224  A    
C106  H98   S    
C105  C106  S    
C115  H118  S    
C32   H166  S    
C47   H200  S    
C222  H230  S    
C42   H189  S    
C108  H104  S    
C32   C33   S    
C49   H204  S    
C112  H112  S    
C187  O24   A    
C184  C230  S    
C109  C110  S    
C89   H61   S    
C50   H206  S    
C91   H63   S    
C92   C93   S    
C46   H46   S    
C77   H33   S    
C111  C114  S    
C56   H222  S    
C105  H96   S    
C120  H131  S    
C104  H95   S    
C122  H136  S    
C219  C223  A    
C26   H90   S    
C9    C221  A    
C130  H153  S    
C88   O70   S    
O37   Zn14  S    
C82   C83   S    
O10   Zn10  S    
O36   Zn15  S    
C103  C104  S    
C171  O67   A    
C214  O68   S    
C98   H81   S    
C100  H86   S    
O1    Zn8   S    
C228  O82   S    
C203  C204  A    
C206  O60   S    
C93   C94   S    
C77   H32   S    
C66   H7    S    
C88   H59   S    
C95   C96   S    
C87   H54   S    
C90   C112  A    
C75   C76   S    
C67   H9    S    
C194  O37   A    
C101  C134  S    
C72   O64   S    
C197  O51   S    
C147  N6    T    
C103  H91   S    
C11   C187  S    
C3    C208  A    
C93   H69   S    
C29   H159  S    
C30   H160  S    
C12   C188  S    
C84   H48   S    
C17   C79   A    
C116  C117  S    
C3    C179  S    
C135  C189  A    
C89   H60   S    
C216  C232  A    
C194  O30   A    
C193  O36   A    
O34   Zn16  S    
C170  O56   A    
C173  O5    A    
C20   C150  A    
C113  C136  S    
C43   H191  S    
C68   C159  A    
C16   C192  S    
C71   H18   S    
C80   H38   S    
C17   C176  S    
C7    C219  A    
C18   C175  S    
C172  O4    A    
C182  O18   A    
C156  C162  A    
C72   H19   S    
C51   H210  S    
C109  H107  S    
C65   H5    S    
C55   H221  S    
O14   Zn4   S    
C119  H128  S    
C215  O69   S    
O17   Zn5   S    
C110  H110  S    
C27   H113  S    
C1    C160  A    
C185  C231  S    
O23   Zn14  S    
C22   C152  A    
C174  O10   A    
C198  C208  A    
O23   Zn2   S    
C102  H89   S    
C8    C193  S    
O40   Zn10  S    
C76   C77   S    
C108  O76   S    
C161  C189  A    
C41   H188  S    
C62   H236  S    
C52   H212  S    
C127  H145  S    
C229  O83   S    
C46   C157  A    
C28   H135  S    
C78   H36   S    
C184  O44   A    
C163  C167  A    
C54   H218  S    
C164  C222  A    
C212  C230  A    
C40   H183  S    
C20   C173  S    
C116  H121  S    
C131  H158  S    
C160  C178  A    
C96   C97   S    
C9    C194  S    
O20   Zn2   S    
C33   C34   S    
O9    Zn11  S    
C18   C135  A    
C148  C158  S    
C72   H20   S    
C149  C159  S    
C188  O31   A    
C54   H216  S    
O56   Zn7   S    
O78   Zn16  S    
C40   C41   S    
C148  N7    T    
C70   H14   S    
C144  N4    T    
O45   Zn8   S    
C211  H219  S    
C117  H122  S    
C83   H44   S    
C147  C157  S    
C140  C150  S    
C62   O61   S    
C214  C228  A    
C141  C151  S    
C74   H25   S    
C25   C169  S    
C144  C154  S    
C44   H193  S    
C142  N2    T    
C26   O49   S    
C95   H74   S    
O12   Zn7   S    
C124  C178  A    
O27   Zn7   S    
O15   Zn3   S    
C80   C81   S    
C192  O39   A    
C118  H127  S    
O6    Zn14  S    
C160  C161  S    
C174  O6    A    
C55   H220  S    
C126  H143  S    
C81   H39   S    
C96   H76   S    
C19   C101  A    
C128  H148  S    
C23   C170  S    
C38   H179  S    
C79   C132  S    
C115  H119  S    
O38   Zn9   S    
C225  O79   S    
C82   O68   S    
C226  O80   S    
C102  O74   S    
C110  H108  S    
C197  C209  A    
C145  C155  S    
C167  H175  S    
C223  O76   S    
O30   Zn6   S    
C75   H28   S    
C65   C66   S    
C27   C28   S    
C120  C121  S    
C59   O60   S    
C120  H130  S    
C122  C123  S    
C104  H94   S    
O7    Zn9   S    
C129  H151  S    
C114  H116  S    
