data_mof_unit_29428.cif
_audit_creation_date              2012-12-10T17:06:12-0500
_audit_creation_method            fapswitch 2.2
_symmetry_space_group_name_H-M    P1
_symmetry_Int_Tables_number       1
_space_group_crystal_system       triclinic
_cell_length_a                    10.64571
_cell_length_b                    10.806512
_cell_length_c                    9.852935
_cell_angle_alpha                 110.257969
_cell_angle_beta                  99.279388
_cell_angle_gamma                 89.638608
_cell_volume                      1047.97747512

loop_
_atom_site_label
_atom_site_type_symbol
_atom_type_description
_atom_site_fract_x
_atom_site_fract_y
_atom_site_fract_z
_atom_type_partial_charge
C1    C     C_R   0.485843 0.252956 0.442454 0.718305
C2    C     C_R   0.503615 0.747186 0.557643 0.720968
C3    C     C_R   0.259466 0.500002 0.500354 0.777522
C4    C     C_R   0.740431 0.499315 0.499470 0.822089
C5    C     C_3   0.061094 0.517673 0.636975 -0.136387
C6    C     C_3   0.938542 0.480586 0.362588 -0.136870
C7    C     C_3   0.964774 0.400543 0.542788 -0.185852
C8    C     C_3   0.034736 0.597640 0.456669 -0.183121
C9    C     C_3   0.876914 0.498669 0.498615 -0.054783
C10   C     C_3   0.122825 0.499677 0.500886 -0.049008
C11   C     C_3   0.971338 0.614135 0.591396 0.183246
C12   C     C_3   0.028323 0.384089 0.408039 0.163718
C13   C     C_2   0.469329 0.110882 0.416667 -0.224381
C14   C     C_2   0.494573 0.889549 0.583669 -0.228286
C15   C     C_2   0.402047 0.069976 0.502351 0.069863
C16   C     C_2   0.401687 0.931651 0.498511 0.074203
C17   C     C_2   0.507187 0.512321 0.081145 0.026175
C18   C     C_2   0.493044 0.487700 0.919092 0.032719
Cu1   Cu    Cu3+1 0.522260 0.521810 0.644920 0.968352
Cu2   Cu    Cu3+1 0.477740 0.478190 0.355080 0.963018
H1    H     H_    0.933638 0.319346 0.576612 0.170111
H2    H     H_    0.063538 0.679244 0.422393 0.164725
H3    H     H_    0.113032 0.533872 0.749408 0.194630
H4    H     H_    0.886643 0.464386 0.250135 0.191418
H5    H     H_    0.424430 0.412136 0.843134 0.182760
H6    H     H_    0.576242 0.587397 0.157278 0.200526
N1    N     N_2   0.444270 0.445410 0.137360 -0.267700
N2    N     N_2   0.555730 0.554590 0.862640 -0.255541
O1    O     O_R   0.511880 0.332340 0.577400 -0.555311
O2    O     O_R   0.488120 0.667660 0.422600 -0.558195
O3    O     O_R   0.474280 0.295500 0.332650 -0.596476
O4    O     O_R   0.525720 0.704500 0.667350 -0.595047
O5    O     O_R   0.335640 0.518390 0.622350 -0.589385
O6    O     O_R   0.664360 0.481610 0.377650 -0.581089
O7    O     O_R   0.298050 0.481550 0.377590 -0.586132
O8    O     O_R   0.701950 0.518450 0.622410 -0.573801
C19   C     C_3   0.936970 0.745694 0.695587 -0.819856
H7    H     H_    0.024316 0.811434 0.746154 0.250533
H8    H     H_    0.868335 0.793128 0.634045 0.219438
H9    H     H_    0.893049 0.729476 0.783260 0.242083
C20   C     C_3   0.061829 0.252793 0.302491 -0.796159
H10   H     H_    0.973911 0.188215 0.250580 0.241013
H11   H     H_    0.106745 0.269797 0.215898 0.243338
H12   H     H_    0.129158 0.203404 0.362800 0.224237
C21   C     C_2   0.290694 0.843492 0.402750 0.448610
H13   H     H_    0.271548 0.748013 0.410108 0.055020
O9    O     O_2   0.217599 0.878447 0.315541 -0.533165
C22   C     C_2   0.318716 0.159138 0.597666 0.414560
H14   H     H_    0.295776 0.254236 0.589076 0.060347
O10   O     O_2   0.272350 0.125299 0.685788 -0.530250
C23   C     C_2   0.594587 0.979259 0.698909 0.389773
H15   H     H_    0.672838 0.936909 0.750239 0.064624
O11   O     O_2   0.590669 0.099318 0.739921 -0.529873
C24   C     C_2   0.535653 0.020160 0.301590 0.393725
H16   H     H_    0.598511 0.061695 0.250030 0.071130
O12   O     O_2   0.520284 0.900191 0.261045 -0.543107
C25   C     C_2   0.660364 0.644745 0.947047 0.600821
H17   H     H_    0.673462 0.735876 0.926847 0.050738
O13   O     O_2   0.742076 0.616094 0.031911 -0.588896
C26   C     C_2   0.337880 0.357598 0.053433 0.609962
H18   H     H_    0.322929 0.266580 0.073189 0.069606
O14   O     O_2   0.256853 0.388290 0.969565 -0.575234

loop_
_geom_bond_atom_site_label_1
_geom_bond_atom_site_label_2
_ccdc_geom_bond_type
C16   C21   S    
C8    H2    S    
C4    O8    A    
C12   C20   S    
Cu2   N1    S    
C20   H11   S    
C20   H10   S    
C24   H16   S    
Cu1   Cu2   S    
C5    H3    S    
C13   C15   D    
C3    O7    A    
Cu1   O8    S    
C6    H4    S    
C6    C9    S    
C22   O10   D    
C17   C18   S    
C4    C9    S    
Cu2   O6    S    
C5    C10   S    
C19   H8    S    
C3    C10   S    
Cu2   O2    S    
C21   H13   S    
C26   O14   D    
Cu1   N2    S    
C9    C11   S    
C25   H17   S    
C19   H7    S    
C18   H5    S    
C10   C12   S    
C15   C22   S    
C8    C11   S    
C17   H6    S    
C8    C10   S    
C22   H14   S    
C5    C11   S    
C19   H9    S    
C4    O6    A    
N1    C26   S    
C21   O9    D    
C6    C12   S    
C7    C12   S    
C2    C14   S    
C20   H12   S    
C24   O12   D    
C25   O13   D    
C1    C13   S    
C2    O2    A    
Cu1   O4    S    
C23   H15   S    
Cu1   O1    S    
C7    C9    S    
C1    O3    A    
C18   N2    D    
N2    C25   S    
C2    O4    A    
C13   C24   S    
Cu1   O5    S    
C11   C19   S    
C3    O5    A    
C5    C7    S    
C6    C8    S    
C1    O1    A    
C14   C16   D    
C7    H1    S    
Cu2   O7    S    
C15   C16   S    
C14   C23   S    
C26   H18   S    
C23   O11   D    
Cu2   O3    S    
C17   N1    D    
