data_mof_unit_5446.cif
_audit_creation_date              2012-12-10T18:31:55-0500
_audit_creation_method            fapswitch 2.2
_symmetry_space_group_name_H-M    P1
_symmetry_Int_Tables_number       1
_space_group_crystal_system       triclinic
_cell_length_a                    10.618043
_cell_length_b                    15.00529
_cell_length_c                    15.382428
_cell_angle_alpha                 82.834493
_cell_angle_beta                  89.734553
_cell_angle_gamma                 103.611832
_cell_volume                      2361.92336981

loop_
_atom_site_label
_atom_site_type_symbol
_atom_type_description
_atom_site_fract_x
_atom_site_fract_y
_atom_site_fract_z
_atom_type_partial_charge
C1    C     C_R   0.485806 0.442557 0.662118 0.881985
C2    C     C_3   0.122891 0.502819 0.493485 0.079482
C3    C     C_3   0.105936 0.600063 0.451589 -0.132540
C4    C     C_3   0.068085 0.483025 0.589208 -0.491096
C5    C     C_R   0.511724 0.411961 0.752475 -0.049604
C6    C     C_R   0.558529 0.592534 0.244435 -0.146880
C7    C     C_R   0.622239 0.322043 0.853758 -0.153369
C8    C     C_R   0.561888 0.333838 0.774075 -0.145435
C9    C     C_R   0.517079 0.475248 0.811970 -0.217464
C10   C     C_R   0.586497 0.468976 0.888162 0.126006
C11   C     C_R   0.636232 0.389766 0.910634 0.170703
C12   C     C_R   0.742338 0.501903 0.496390 0.876619
C13   C     C_R   0.603726 0.538377 0.943966 0.073845
C14   C     C_R   0.641894 0.517704 0.030172 0.062807
C15   C     C_R   0.704294 0.444271 0.047911 -0.178341
C16   C     C_R   0.701197 0.380800 0.988692 -0.202020
C17   C     C_R   0.585437 0.627669 0.916668 -0.212337
C18   C     C_R   0.588601 0.689887 0.976697 -0.201362
C19   C     C_R   0.595206 0.660827 0.065995 0.160368
C20   C     C_R   0.614837 0.571477 0.094650 0.011755
C21   C     C_R   0.574399 0.718187 0.126623 -0.191899
C22   C     C_R   0.557610 0.684651 0.215052 -0.167965
C23   C     C_R   0.525127 0.557459 0.337555 0.885388
C24   C     C_R   0.590398 0.535470 0.184646 -0.094467
C25   C     C_R   0.691741 0.840038 0.639588 -0.270030
C26   C     C_R   0.656300 0.751011 0.618106 -0.014306
C27   C     C_R   0.519245 0.795486 0.508415 -0.050882
C28   C     C_R   0.549495 0.887549 0.527705 -0.021739
C29   C     C_R   0.641115 0.910376 0.593450 0.116377
C30   C     C_R   0.493497 0.956858 0.483109 0.063392
C31   C     C_R   0.538602 0.050470 0.498973 0.012340
C32   C     C_R   0.649434 0.073367 0.551047 -0.102164
C33   C     C_R   0.689139 0.003503 0.606226 -0.090147
C34   C     C_R   0.258919 0.501184 0.496295 0.859199
C35   C     C_R   0.394376 0.935543 0.422478 -0.213146
C36   C     C_R   0.340377 0.003260 0.379005 -0.188637
C37   C     C_R   0.375821 0.093414 0.398751 0.158660
C38   C     C_R   0.471338 0.117556 0.461354 0.020898
C39   C     C_R   0.312766 0.159034 0.358689 -0.283683
C40   C     C_R   0.341039 0.247248 0.383252 0.054215
C41   C     C_R   0.488603 0.206450 0.487602 -0.035290
C42   C     C_3   0.905814 0.431562 0.437617 -0.386918
C43   C     C_3   0.047092 0.426320 0.441505 -0.422695
C44   C     C_3   0.960649 0.600031 0.451695 -0.479542
C45   C     C_3   0.922873 0.482204 0.590699 -0.152907
C46   C     C_3   0.880078 0.504347 0.494874 0.050757
H1    H     H_    0.881979 0.450064 0.368331 0.218402
H2    H     H_    0.124146 0.535750 0.628358 0.169786
H3    H     H_    0.944892 0.656626 0.487552 0.176555
H4    H     H_    0.154433 0.652989 0.493251 0.172330
H5    H     H_    0.746116 0.323374 0.005174 0.155143
H6    H     H_    0.536166 0.729677 0.260003 0.191350
H7    H     H_    0.575114 0.758251 0.953933 0.162017
H8    H     H_    0.661852 0.261931 0.869487 0.152780
H9    H     H_    0.560953 0.284990 0.727692 0.168438
H10   H     H_    0.470183 0.531497 0.795878 0.141095
H11   H     H_    0.844010 0.362400 0.460302 0.242828
H12   H     H_    0.756862 0.435811 0.107132 0.165598
H13   H     H_    0.572737 0.651626 0.848796 0.154825
H14   H     H_    0.564120 0.787641 0.105153 0.151512
H15   H     H_    0.548144 0.227395 0.541415 0.146957
H16   H     H_    0.294160 0.299001 0.352202 0.148497
H17   H     H_    0.265768 0.983859 0.332355 0.156140
H18   H     H_    0.762182 0.853057 0.689769 0.184144
H19   H     H_    0.696833 0.697206 0.652121 0.154811
H20   H     H_    0.456010 0.772294 0.457261 0.162568
H21   H     H_    0.051885 0.356694 0.474200 0.207608
H22   H     H_    0.354477 0.866668 0.407381 0.179962
H23   H     H_    0.241345 0.141945 0.309535 0.158098
H24   H     H_    0.089508 0.433685 0.373994 0.168431
H25   H     H_    0.927325 0.614930 0.383979 0.172388
H26   H     H_    0.867308 0.411473 0.617346 0.174783
H27   H     H_    0.080742 0.414683 0.620321 0.176191
N1    N     N_R   0.573860 0.731700 0.552730 -0.104274
N2    N     N_R   0.426060 0.268290 0.447230 -0.115213
O1    O     O_R   0.462770 0.383110 0.605620 -0.622958
O2    O     O_R   0.510160 0.531900 0.639510 -0.607168
O3    O     O_R   0.661510 0.425600 0.483070 -0.602721
O4    O     O_R   0.708900 0.574390 0.516960 -0.627359
O5    O     O_R   0.489840 0.468100 0.360490 -0.595599
O6    O     O_R   0.537230 0.616890 0.394380 -0.606912
O7    O     O_R   0.291100 0.425610 0.483040 -0.632958
O8    O     O_R   0.338490 0.574400 0.516930 -0.615148
Zn1   Zn    Zn3+2 0.468350 0.400660 0.477370 0.968998
Zn2   Zn    Zn3+2 0.531650 0.599340 0.522630 0.961298
C47   C     C_2   0.580071 0.435768 0.213940 0.918718
O9    O     O_2   0.492790 0.377461 0.187765 -0.621518
O10   O     O_R   0.669798 0.409076 0.271676 -0.821802
H28   H     H_    0.651826 0.339520 0.287681 0.356936
C48   C     C_2   0.790577 0.028987 0.671085 0.444662
H29   H     H_    0.884002 0.074462 0.650049 0.087014
O11   O     O_2   0.768730 0.000695 0.748902 -0.564470
C49   C     C_2   0.741426 0.165041 0.534026 0.822900
O12   O     O_2   0.778458 0.196639 0.458669 -0.640582
O13   O     O_R   0.789023 0.213193 0.603743 -0.831172
H30   H     H_    0.865171 0.267082 0.585227 0.323313
C50   C     C_2   0.166165 0.627967 0.359927 0.372829
H31   H     H_    0.127943 0.589004 0.307090 0.080827
O14   O     O_2   0.257649 0.694962 0.344344 -0.607611
C51   C     C_2   0.895842 0.547751 0.651801 0.414869
H32   H     H_    0.943592 0.620730 0.640375 0.063808
O15   O     O_2   0.821161 0.519009 0.715085 -0.579870

loop_
_geom_bond_atom_site_label_1
_geom_bond_atom_site_label_2
_ccdc_geom_bond_type
C44   H3    S    
C49   O12   D    
C1    O2    A    
O13   H30   S    
C16   H5    S    
C41   H15   S    
O5    Zn1   S    
O1    Zn1   S    
C50   H31   S    
C7    C8    A    
C45   C46   S    
C7    C11   A    
C30   C35   A    
C1    C5    S    
C36   C37   A    
C19   C21   A    
C30   C31   A    
C47   O10   S    
N2    Zn1   S    
C15   C16   A    
C6    C22   A    
C12   O4    A    
C29   C33   A    
C21   H14   S    
C40   H16   S    
C42   H11   S    
C44   H25   S    
C18   C19   A    
C42   C46   S    
C20   C24   A    
C18   H7    S    
C19   C20   A    
C12   O3    A    
C23   O5    A    
C36   H17   S    
C9    C10   A    
C2    C34   S    
C32   C49   S    
O2    Zn2   S    
C49   O13   S    
C21   C22   A    
C45   H26   S    
C26   H19   S    
C8    H9    S    
C50   O14   D    
C3    H4    S    
C44   C46   S    
C4    C45   S    
C25   C29   A    
C3    C44   S    
C14   C20   A    
C38   C41   A    
C12   C46   S    
C39   C40   A    
C47   O9    D    
C25   C26   A    
C45   C51   S    
C35   C36   A    
C2    C4    S    
C5    C9    A    
C37   C38   A    
C41   N2    A    
C11   C16   A    
C3    C50   S    
C48   O11   D    
C31   C32   A    
C2    C43   S    
C6    C24   A    
C51   O15   D    
C17   C18   A    
C39   H23   S    
C9    H10   S    
C4    H27   S    
C17   H13   S    
O8    Zn2   S    
C43   H24   S    
O7    Zn1   S    
C15   H12   S    
C42   C43   S    
C27   N1    A    
O4    Zn2   S    
C22   H6    S    
C4    H2    S    
C28   C29   A    
C23   O6    A    
C1    O1    A    
C10   C13   A    
C5    C8    A    
C40   N2    A    
C31   C38   A    
C13   C17   A    
C32   C33   A    
C28   C30   A    
C2    C3    S    
C37   C39   A    
C27   H20   S    
C33   C48   S    
C48   H29   S    
C35   H22   S    
C6    C23   S    
C51   H32   S    
C26   N1    A    
C42   H1    S    
N1    Zn2   S    
C10   C11   A    
O3    Zn1   S    
O10   H28   S    
C43   H21   S    
C34   O8    A    
C27   C28   A    
C14   C15   A    
C34   O7    A    
C7    H8    S    
C13   C14   A    
C24   C47   S    
C25   H18   S    
O6    Zn2   S    
