data_mof_unit_6215.cif
_audit_creation_date              2012-12-10T16:32:41-0500
_audit_creation_method            fapswitch 2.2
_symmetry_space_group_name_H-M    P1
_symmetry_Int_Tables_number       1
_space_group_crystal_system       triclinic
_cell_length_a                    16.922118
_cell_length_b                    16.88759
_cell_length_c                    16.903586
_cell_angle_alpha                 65.948837
_cell_angle_beta                  65.643149
_cell_angle_gamma                 66.282286
_cell_volume                      3856.13394018

loop_
_atom_site_label
_atom_site_type_symbol
_atom_type_description
_atom_site_fract_x
_atom_site_fract_y
_atom_site_fract_z
_atom_type_partial_charge
C1    C     C_R   0.585157 0.031802 0.597576 -0.101731
C2    C     C_R   0.821842 0.564019 0.033154 0.909332
C3    C     C_R   0.432212 0.974017 0.177968 0.909607
C4    C     C_R   0.560600 0.041475 0.821200 0.903582
C5    C     C_R   0.564905 0.822065 0.029119 0.912033
C6    C     C_R   0.438168 0.179108 0.962526 0.898898
C7    C     C_R   0.028353 0.565779 0.821940 0.882471
C8    C     C_R   0.974239 0.432018 0.177954 0.932139
C9    C     C_R   0.821838 0.026967 0.567487 0.941180
C10   C     C_R   0.178703 0.958873 0.439364 0.884840
C11   C     C_R   0.536120 0.017026 0.551700 0.161263
C12   C     C_R   0.400137 0.973725 0.413622 -0.100495
C13   C     C_R   0.446011 0.988943 0.462296 0.163475
C14   C     C_R   0.059486 0.533962 0.528056 0.129943
C15   C     C_R   0.029967 0.441637 0.441427 0.167571
C16   C     C_R   0.538695 0.528312 0.049950 0.133803
C17   C     C_R   0.450132 0.440609 0.016668 0.161498
C18   C     C_R   0.542294 0.928926 0.559304 -0.084422
C19   C     C_R   0.438411 0.077073 0.456051 -0.078129
C20   C     C_R   0.971377 0.535968 0.540701 -0.083613
C21   C     C_R   0.118328 0.439667 0.428407 -0.099180
C22   C     C_R   0.544714 0.539695 0.960863 -0.095681
C23   C     C_R   0.071639 0.580985 0.577975 -0.090194
C24   C     C_R   0.444168 0.428571 0.106167 -0.077449
C25   C     C_R   0.497883 0.914989 0.514478 -0.096355
C26   C     C_R   0.483599 0.091025 0.500154 -0.095821
C27   C     C_R   0.500814 0.496289 0.944342 -0.102797
C28   C     C_R   0.488148 0.472510 0.122796 -0.086057
C29   C     C_R   0.956667 0.490104 0.497845 -0.081821
C30   C     C_R   0.133100 0.485555 0.471658 -0.095107
C31   C     C_R   0.538239 0.060945 0.676046 -0.047520
C32   C     C_R   0.431500 0.993373 0.318330 -0.048312
C33   C     C_R   0.076605 0.670679 0.538014 -0.045410
C34   C     C_R   0.014487 0.391552 0.396928 -0.089867
C35   C     C_R   0.034766 0.296462 0.428526 -0.053960
C36   C     C_R   0.671814 0.540349 0.071010 -0.051177
C37   C     C_R   0.310366 0.425688 0.011255 -0.046353
C38   C     C_R   0.322681 0.942534 0.461293 -0.039804
C39   C     C_R   0.680205 0.011920 0.566196 -0.041310
C40   C     C_R   0.454979 0.320431 0.961835 -0.037387
C41   C     C_R   0.544378 0.672588 0.052320 -0.055335
C42   C     C_R   0.979258 0.437939 0.322288 -0.036126
C43   C     C_R   0.060851 0.542091 0.671521 -0.048649
C44   C     C_R   0.588866 0.066563 0.722087 -0.173479
C45   C     C_R   0.583508 0.579386 0.063708 -0.090468
C46   C     C_R   0.395714 0.964467 0.274741 -0.190144
C47   C     C_R   0.047881 0.725417 0.595957 -0.165257
C48   C     C_R   0.022785 0.251056 0.381381 -0.196948
C49   C     C_R   0.726402 0.598371 0.044416 -0.192135
C50   C     C_R   0.271722 0.393510 0.973340 -0.177084
C51   C     C_R   0.277399 0.935036 0.411081 -0.171022
C52   C     C_R   0.724858 0.038053 0.603495 -0.186228
C53   C     C_R   0.408550 0.277179 0.945547 -0.172833
C54   C     C_R   0.599516 0.727006 0.034644 -0.180702
C55   C     C_R   0.986127 0.387795 0.267835 -0.168247
C56   C     C_R   0.404497 0.394699 0.997003 -0.100551
C57   C     C_R   0.037474 0.599025 0.726013 -0.207113
C58   C     C_R   0.675573 0.074040 0.676570 -0.091471
C59   C     C_R   0.323461 0.927228 0.324549 -0.105927
C60   C     C_R   0.015432 0.691033 0.688657 -0.099234
C61   C     C_R   0.019574 0.293743 0.293740 -0.089850
C62   C     C_R   0.691739 0.691310 0.016369 -0.104082
C63   C     C_R   0.324074 0.323298 0.934117 -0.096031
C64   C     C_2   0.437629 0.084177 0.710832 0.957719
C65   C     C_2   0.500879 0.043560 0.266227 0.944071
C66   C     C_2   0.109143 0.706502 0.437635 0.954859
C67   C     C_R   0.004870 0.163184 0.424812 0.913341
C68   C     C_2   0.070856 0.244857 0.507758 0.939625
C69   C     C_2   0.705971 0.440373 0.105220 0.956069
C70   C     C_2   0.253971 0.490308 0.065937 0.942763
C71   C     C_2   0.288321 0.918843 0.562255 0.971229
C72   C     C_2   0.730827 0.964028 0.495288 0.945570
C73   C     C_2   0.555186 0.288329 0.942005 0.969478
C74   C     C_2   0.447665 0.710242 0.055449 0.963785
C75   C     C_2   0.939432 0.537673 0.299858 0.951558
C76   C     C_2   0.070325 0.443673 0.709326 0.968263
C77   C     C_2   0.709936 0.125201 0.702838 0.977242
C78   C     C_R   0.036009 0.821658 0.562423 0.919691
C79   C     C_2   0.302010 0.871483 0.291402 1.006272
C80   C     C_2   0.940171 0.750939 0.741432 0.974391
C81   C     C_2   0.063839 0.238852 0.228625 0.969872
C82   C     C_2   0.750363 0.753420 0.959463 0.978854
C83   C     C_2   0.295948 0.302318 0.874128 0.976888
C84   C     C_R   0.177276 0.431832 0.975934 0.900111
H1    H     H_    0.477945 0.159346 0.494021 0.140222
H2    H     H_    0.583110 0.582968 0.904040 0.153176
H3    H     H_    0.175602 0.402248 0.385130 0.142721
H4    H     H_    0.913968 0.572704 0.584535 0.156704
H5    H     H_    0.323644 0.054134 0.737017 0.355017
H6    H     H_    0.624930 0.049603 0.245000 0.357479
H7    H     H_    0.101900 0.722487 0.315593 0.352962
H8    H     H_    0.065464 0.235181 0.632780 0.354137
H9    H     H_    0.725044 0.317981 0.096448 0.356048
H10   H     H_    0.230328 0.609529 0.084290 0.352665
H11   H     H_    0.261148 0.949701 0.675993 0.355220
H12   H     H_    0.504058 0.846657 0.520127 0.143276
H13   H     H_    0.751547 0.962983 0.369310 0.356448
H14   H     H_    0.663618 0.258131 0.981992 0.356301
H15   H     H_    0.318631 0.711284 0.129245 0.349237
H16   H     H_    0.953390 0.659515 0.275048 0.356289
H17   H     H_    0.152693 0.317443 0.713205 0.352288
H18   H     H_    0.713496 0.247260 0.691675 0.372861
H19   H     H_    0.332781 0.749400 0.275699 0.383173
H20   H     H_    0.905025 0.837061 0.812479 0.346740
H21   H     H_    0.050291 0.172771 0.160952 0.341672
H22   H     H_    0.817806 0.829766 0.958103 0.331329
H23   H     H_    0.201422 0.482978 0.461747 0.153948
H24   H     H_    0.300951 0.323495 0.746106 0.390450
H25   H     H_    0.888275 0.491876 0.508955 0.143082
H26   H     H_    0.482490 0.463571 0.191904 0.150153
H27   H     H_    0.506124 0.506165 0.875061 0.145936
H28   H     H_    0.398073 0.134782 0.416483 0.142354
H29   H     H_    0.582076 0.871182 0.599405 0.147606
H30   H     H_    0.405434 0.385474 0.162698 0.143122
O1    O     O_R   0.982940 0.138950 0.510160 -0.608583
O2    O     O_R   0.982940 0.510160 0.138950 -0.598268
O3    O     O_R   0.861050 0.017060 0.489840 -0.606450
O4    O     O_R   0.138950 0.982940 0.510160 -0.611514
O5    O     O_R   0.867700 0.025880 0.612340 -0.595011
O6    O     O_R   0.132300 0.974120 0.387660 -0.601117
O7    O     O_R   0.025880 0.612340 0.867700 -0.581435
O8    O     O_R   0.974120 0.387660 0.132300 -0.594998
O9    O     O_R   0.612340 0.867700 0.025880 -0.600481
O10   O     O_R   0.387660 0.132300 0.974120 -0.583753
O11   O     O_R   0.387660 0.974120 0.132300 -0.603851
O12   O     O_R   0.017060 0.861050 0.489840 -0.602985
O13   O     O_R   0.612340 0.025880 0.867700 -0.586035
O14   O     O_R   0.132300 0.387660 0.974120 -0.601291
O15   O     O_R   0.867700 0.612340 0.025880 -0.587709
O16   O     O_R   0.974120 0.132300 0.387660 -0.589666
O17   O     O_R   0.025880 0.867700 0.612340 -0.604401
O18   O     O_2   0.395183 0.149657 0.739991 -0.613726
O19   O     O_R   0.391626 0.030917 0.711794 -0.776051
O20   O     O_2   0.484626 0.115721 0.208457 -0.603494
O21   O     O_R   0.583944 0.008809 0.284131 -0.780061
O22   O     O_2   0.167185 0.746183 0.403184 -0.616907
O23   O     O_R   0.138950 0.510160 0.982940 -0.615178
O24   O     O_R   0.073691 0.695336 0.382601 -0.774667
O25   O     O_2   0.132624 0.174992 0.505898 -0.610409
O26   O     O_R   0.034540 0.275872 0.584113 -0.785936
O27   O     O_2   0.739857 0.407062 0.167128 -0.591124
O28   O     O_R   0.699727 0.384527 0.066887 -0.781067
O29   O     O_2   0.191429 0.471368 0.133082 -0.616285
O30   O     O_R   0.272863 0.572018 0.041155 -0.783388
O31   O     O_2   0.260684 0.852027 0.605455 -0.603671
O32   O     O_R   0.286059 0.973196 0.607698 -0.766628
O33   O     O_2   0.786376 0.890446 0.511122 -0.592119
O34   O     O_R   0.861050 0.489840 0.017060 -0.613358
O35   O     O_R   0.713727 0.002489 0.411355 -0.781026
O36   O     O_2   0.602513 0.267935 0.871789 -0.612417
O37   O     O_R   0.595223 0.280511 0.003547 -0.766046
O38   O     O_2   0.426405 0.760380 0.986663 -0.583964
O39   O     O_R   0.381825 0.683092 0.135812 -0.812313
O40   O     O_2   0.864250 0.571149 0.289349 -0.599952
O41   O     O_R   0.987920 0.593074 0.290093 -0.766184
O42   O     O_2   0.003659 0.416603 0.756979 -0.590575
O43   O     O_R   0.154807 0.382555 0.685160 -0.804786
O44   O     O_2   0.757243 0.085629 0.753729 -0.573632
O45   O     O_R   0.510160 0.982940 0.138950 -0.610621
O46   O     O_R   0.686356 0.219392 0.669687 -0.766495
O47   O     O_2   0.244360 0.905122 0.252150 -0.566171
O48   O     O_R   0.351349 0.780621 0.302466 -0.770656
O49   O     O_2   0.866903 0.780306 0.727342 -0.572292
O50   O     O_R   0.956707 0.784319 0.794656 -0.747475
O51   O     O_2   0.146140 0.218225 0.196850 -0.618205
O52   O     O_R   0.011955 0.209796 0.205278 -0.736128
O53   O     O_2   0.750194 0.793493 0.881048 -0.596934
O54   O     O_R   0.790237 0.778465 0.000372 -0.737633
O55   O     O_2   0.249116 0.250783 0.906032 -0.559685
O56   O     O_R   0.489840 0.017060 0.861050 -0.608415
O57   O     O_R   0.324185 0.341988 0.780528 -0.766361
O58   O     O_R   0.489840 0.861050 0.017060 -0.607495
O59   O     O_R   0.510160 0.138950 0.982940 -0.606177
O60   O     O_R   0.017060 0.489840 0.861050 -0.609322
Zn1   Zn    Zn3+2 0.004880 0.004880 0.583590 1.102639
Zn2   Zn    Zn3+2 0.995120 0.995120 0.416410 1.107884
Zn3   Zn    Zn3+2 0.004880 0.583590 0.004880 1.110939
Zn4   Zn    Zn3+2 0.995120 0.416410 0.995120 1.112457
Zn5   Zn    Zn3+2 0.583590 0.004880 0.004880 1.103606
Zn6   Zn    Zn3+2 0.416410 0.995120 0.995120 1.128017

loop_
_geom_bond_atom_site_label_1
_geom_bond_atom_site_label_2
_ccdc_geom_bond_type
C84   O14   A    
C21   H3    S    
C11   C18   A    
C16   C28   A    
C37   C50   A    
C73   O36   D    
C9    O3    A    
C34   C42   A    
C6    O10   A    
C13   C25   A    
C84   O23   A    
C50   C84   S    
C82   O54   S    
C19   H28   S    
H21   O52   S    
C24   H30   S    
C18   C25   A    
C42   C75   S    
C4    O56   A    
C29   H25   S    
C79   O47   D    
C82   O53   D    
C46   C59   A    
O13   Zn5   S    
C35   C48   A    
C69   O27   D    
C7    O60   A    
C83   O55   D    
C1    C31   A    
C2    O15   A    
C23   C43   A    
C40   C73   S    
C8    C55   S    
C34   C35   A    
C19   C26   A    
C67   O1    A    
C80   O50   S    
O1    Zn1   S    
C58   C77   S    
O5    Zn1   S    
C41   C74   S    
C38   C71   S    
C37   C56   A    
O6    Zn2   S    
C64   O18   D    
C44   C58   A    
C23   C33   A    
C30   H23   S    
C83   O57   S    
C16   C22   A    
C39   C72   S    
O60   Zn4   S    
C15   C34   S    
C65   O20   D    
C77   O44   D    
C20   C29   A    
O58   Zn6   S    
C39   C52   A    
C62   C82   S    
H17   O43   S    
C40   C56   A    
O2    Zn3   S    
C12   C32   A    
C3    O45   A    
C50   C63   A    
C74   O38   D    
C9    C52   S    
C7    O7    A    
C10   C51   S    
C18   H29   S    
C33   C66   S    
C15   C29   A    
H14   O37   S    
C76   O43   S    
C17   C24   A    
H5    O19   S    
C31   C44   A    
C13   C19   A    
C17   C27   A    
C14   C20   A    
C5    C54   S    
O9    Zn5   S    
C59   C79   S    
C8    O2    A    
C57   C60   A    
O7    Zn3   S    
C38   C51   A    
C4    C44   S    
C11   C26   A    
C28   H26   S    
C69   O28   S    
C14   C30   A    
O15   Zn3   S    
C76   O42   D    
C74   O39   S    
C63   C83   S    
H22   O54   S    
C14   C23   S    
C78   O17   A    
C36   C49   A    
C80   O49   D    
C10   O4    A    
C2    C49   S    
C81   O51   D    
C42   C55   A    
H7    O24   S    
C1    C39   A    
C66   O24   S    
C81   O52   S    
O11   Zn6   S    
C70   O29   D    
O23   Zn3   S    
C36   C45   A    
C17   C56   S    
C65   O21   S    
C52   C58   A    
C66   O22   D    
H16   O41   S    
C71   O31   D    
O4    Zn1   S    
C40   C53   A    
C22   C27   A    
C9    O5    A    
O59   Zn5   S    
C68   O26   S    
C67   O16   A    
C51   C59   A    
C55   C61   A    
C6    C53   S    
H18   O46   S    
H8    O26   S    
C47   C60   A    
O12   Zn2   S    
C36   C69   S    
O3    Zn2   S    
C43   C76   S    
O8    Zn4   S    
C64   O19   S    
C60   C80   S    
H19   O48   S    
O34   Zn4   S    
C49   C62   A    
C4    O13   A    
C32   C46   A    
C31   C64   S    
H13   O35   S    
C24   C28   A    
O45   Zn5   S    
C16   C45   S    
H20   O50   S    
C3    O11   A    
C6    O59   A    
H11   O32   S    
C72   O33   D    
C54   C62   A    
C21   C30   A    
C5    O9    A    
C3    C46   S    
C70   O30   S    
O16   Zn2   S    
H10   O30   S    
C61   C81   S    
H6    O21   S    
C53   C63   A    
C75   O40   D    
C8    O8    A    
C48   C61   A    
C35   C68   S    
C26   H1    S    
C33   C47   A    
H15   O39   S    
O17   Zn1   S    
C5    O58   A    
C22   H2    S    
C48   C67   S    
C12   C38   A    
C41   C54   A    
O10   Zn6   S    
C10   O6    A    
C43   C57   A    
C77   O46   S    
C27   H27   S    
C75   O41   S    
C15   C21   A    
C71   O32   S    
O14   Zn4   S    
C12   C13   S    
C25   H12   S    
C72   O35   S    
C20   H4    S    
H24   O57   S    
O56   Zn6   S    
C41   C45   A    
C68   O25   D    
C1    C11   S    
C79   O48   S    
C47   C78   S    
C37   C70   S    
C2    O34   A    
C7    C57   S    
C73   O37   S    
H9    O28   S    
C32   C65   S    
C78   O12   A    
