data_mof_unit_43945.cif
_audit_creation_date              2013-03-05T15:45:33-0500
_audit_creation_method            fapswitch 2.2
_symmetry_space_group_name_H-M    P1
_symmetry_Int_Tables_number       1
_space_group_crystal_system       triclinic
_cell_length_a                    8.216769
_cell_length_b                    14.370127
_cell_length_c                    19.080815
_cell_angle_alpha                 92.394956
_cell_angle_beta                  94.301113
_cell_angle_gamma                 91.336553
_cell_volume                      2243.88732899

loop_
_atom_site_label
_atom_site_type_symbol
_atom_site_description
_atom_site_fract_x
_atom_site_fract_y
_atom_site_fract_z
_atom_type_partial_charge
P1    P     P_3+3 0.937730 0.712710 0.546710 0.507559
O1    O     O_2   0.108370 0.727470 0.525290 -0.342163
O2    O     O_3   0.865330 0.611210 0.531230 -0.351743
O3    O     O_3   0.346360 0.671710 0.401620 -0.363785
O4    O     O_2   0.223064 0.833842 0.437166 -0.358330
O5    O     O_3   0.999834 0.737216 0.635909 -0.578234
O6    O     O_3   0.302879 0.816133 0.308108 -0.507972
H1    H     H_    0.470769 0.715943 0.281440 0.038781
C1    C     C_3   0.358717 0.774468 0.189224 -0.017903
H2    H     H_    0.237893 0.737466 0.184978 0.181431
P2    P     P_3+3 0.357970 0.428340 0.344000 0.490466
P3    P     P_3+3 0.910385 0.625320 0.277041 0.531593
O7    O     O_2   0.182890 0.456530 0.332150 -0.371963
O8    O     O_3   0.933230 0.625130 0.368420 -0.401090
O9    O     O_2   0.051163 0.568906 0.248526 -0.358336
O10   O     O_3   0.345529 0.306967 0.330368 -0.519917
O11   O     O_3   0.947593 0.739595 0.252660 -0.451730
C2    C     C_3   0.892429 0.801167 0.304456 0.330228
H3    H     H_    0.968491 0.796115 0.354600 0.116621
H4    H     H_    0.763936 0.784760 0.314179 -0.064140
C3    C     C_3   0.907042 0.901714 0.282088 -0.115393
H5    H     H_    0.037013 0.921070 0.277231 0.196315
C4    C     C_3   0.794001 0.340701 0.327659 0.220923
H6    H     H_    0.676413 0.361558 0.347205 0.089819
H7    H     H_    0.883673 0.399855 0.335758 0.102192
C5    C     C_3   0.770112 0.315420 0.248910 -0.104630
H8    H     H_    0.742640 0.379017 0.219761 0.074552
Ba1   Ba    Ba6+2 0.150350 0.545800 0.464500 1.623725
C6    C     C_3   0.884418 0.712415 0.682184 0.821175
H9    H     H_    0.759758 0.708707 0.656411 -0.066742
C7    C     C_3   0.892741 0.786963 0.742215 -0.826187
H10   H     H_    0.798019 0.772457 0.779186 0.240342
C8    C     C_3   0.306515 0.265400 0.392168 0.419819
H11   H     H_    0.401963 0.281307 0.435505 0.127461
C9    C     C_3   0.295042 0.160250 0.378395 -0.879332
H12   H     H_    0.271494 0.124895 0.427265 0.209048
H13   H     H_    0.411646 0.134960 0.359765 0.279552
P4    P     P_3+3 0.872570 0.287280 0.453240 0.470902
O12   O     O_2   0.701930 0.272470 0.474700 -0.375178
O13   O     O_3   0.944970 0.388780 0.468720 -0.392880
O14   O     O_3   0.463940 0.328280 0.598320 -0.380335
O15   O     O_3   0.851812 0.262886 0.362401 -0.547147
P5    P     P_3+3 0.893713 0.364602 0.722403 0.640885
O16   O     O_3   0.372010 0.546630 0.581240 -0.376756
O17   O     O_3   0.877070 0.374860 0.631520 -0.372089
O18   O     O_2   0.755470 0.422728 0.751498 -0.271032
O19   O     O_3   0.846240 0.249623 0.741262 -0.433749
Ba2   Ba    Ba6+2 0.659830 0.454190 0.535450 1.647362
P6    P     P_3+3 0.360490 0.792398 0.395547 0.500059
C10   C     C_3   0.425564 0.785121 0.266059 0.197405
H14   H     H_    0.443999 0.731352 0.160214 0.053579
O20   O     O_3   0.438280 0.453360 0.418700 -0.418464
C11   C     C_3   0.432940 0.739861 0.643111 0.183461
H15   H     H_    0.514988 0.719470 0.601592 0.034771
H16   H     H_    0.306140 0.737056 0.620294 0.181515
C12   C     C_3   0.477067 0.839128 0.671587 0.287226
H17   H     H_    0.594168 0.837400 0.703721 0.054933
P7    P     P_3+3 0.441483 0.564947 0.670530 0.515758
O21   O     O_2   0.627420 0.543410 0.667830 -0.326701
O22   O     O_3   0.446126 0.681653 0.699881 -0.581021
C13   C     C_3   0.914768 0.189370 0.692442 0.476911
H18   H     H_    0.047005 0.205550 0.690170 -0.036073
C14   C     C_3   0.893637 0.089329 0.714561 -0.713078
H19   H     H_    0.762795 0.070860 0.717224 0.290216
H20   H     H_    0.945681 0.040439 0.676284 0.202180
H21   H     H_    0.955920 0.080515 0.767288 0.283619
P8    P     P_3+3 0.444380 0.207500 0.603421 0.468809
C15   C     C_3   0.429901 0.198595 0.740327 0.625825
H22   H     H_    0.341495 0.253536 0.725860 -0.046945
O23   O     O_2   0.561571 0.165641 0.551701 -0.350907
O24   O     O_3   0.529194 0.174537 0.685507 -0.554974
C16   C     C_3   0.335851 0.111141 0.759870 -0.198465
H23   H     H_    0.238458 0.091930 0.718435 0.084473
C17   C     C_R   0.005479 0.940929 0.537617 -0.077655
C18   C     C_R   0.818588 0.805342 0.499880 0.155188
C19   C     C_R   0.669985 0.775130 0.464656 -0.451926
C20   C     C_R   0.564019 0.837068 0.431447 0.278384
C21   C     C_R   0.609363 0.931263 0.429683 -0.219481
C22   C     C_R   0.758215 0.965184 0.463825 0.095871
C23   C     C_R   0.862792 0.902922 0.500816 0.002879
H24   H     H_    0.633216 0.702403 0.465301 0.163634
C24   C     C_R   0.942925 0.099303 0.500176 -0.026472
C25   C     C_R   0.046065 0.037201 0.537588 0.048208
C26   C     C_R   0.987204 0.197012 0.502626 0.239370
C27   C     C_R   0.131377 0.228051 0.540721 -0.515539
C28   C     C_R   0.236695 0.165823 0.573162 0.171496
C29   C     C_R   0.191782 0.071855 0.573662 -0.248391
C30   C     C_R   0.800545 0.061225 0.462560 -0.100312
H25   H     H_    0.526434 0.978323 0.403297 0.149453
H26   H     H_    0.271949 0.026416 0.602145 0.223218
H27   H     H_    0.167716 0.300935 0.541046 0.170644
H28   H     H_    0.086249 0.895869 0.566527 0.218505
C31   C     C_R   0.610309 0.540006 0.296213 -0.570728
C32   C     C_R   0.465704 0.489695 0.276562 0.329789
C33   C     C_R   0.412006 0.479137 0.205059 -0.202095
C34   C     C_R   0.504999 0.516018 0.152900 -0.139153
C35   C     C_R   0.657471 0.561549 0.173372 0.197567
C36   C     C_R   0.708607 0.573961 0.245491 0.101775
C37   C     C_R   0.443153 0.582174 0.033783 -0.060694
C38   C     C_R   0.391147 0.571695 0.962307 -0.083189
C39   C     C_R   0.336635 0.484383 0.932729 0.155147
C40   C     C_R   0.334986 0.407787 0.976245 -0.004264
C41   C     C_R   0.386770 0.418327 0.047816 -0.102621
C42   C     C_R   0.443114 0.505472 0.077326 0.155683
C43   C     C_R   0.133978 0.426222 0.832777 0.261270
C44   C     C_R   0.096951 0.408448 0.759783 0.158575
C45   C     C_R   0.344662 0.492349 0.734394 0.302735
C46   C     C_R   0.384861 0.508052 0.806564 -0.152961
C47   C     C_R   0.283954 0.472514 0.856393 -0.089537
C48   C     C_R   0.207833 0.436981 0.711893 -0.409727
H29   H     H_    0.493456 0.549447 0.823845 0.173905
H30   H     H_    0.392582 0.632010 0.930145 0.159594
H31   H     H_    0.298438 0.441220 0.190022 0.178710
H32   H     H_    0.295507 0.339406 0.954548 0.184873
H33   H     H_    0.386127 0.357882 0.079768 0.187577
H34   H     H_    0.177738 0.425538 0.655956 0.172199
H35   H     H_    0.651496 0.547692 0.351383 0.187266
N1    N     N_R   0.637566 0.246341 0.234075 0.298218
O25   O     O_R   0.510878 0.265207 0.192612 -0.350332
O26   O     O_R   0.649174 0.163738 0.259075 -0.287581
H36   H     H_    0.884826 0.287180 0.230278 0.161002
N2    N     N_R   0.926862 0.622016 0.708798 0.228254
O27   O     O_R   0.935323 0.606396 0.775701 -0.411026
O28   O     O_R   0.963688 0.556783 0.664193 -0.379162
H37   H     H_    0.014668 0.788105 0.771726 0.300013
H38   H     H_    0.873667 0.856866 0.720719 0.235842
H39   H     H_    0.187742 0.290234 0.407642 0.078138
H40   H     H_    0.194148 0.141801 0.337803 0.273409
H41   H     H_    0.527967 0.836989 0.270671 0.096978
N3    N     N_R   0.497594 0.901835 0.614615 0.186712
O29   O     O_R   0.620843 0.960647 0.618286 -0.436576
O30   O     O_R   0.402697 0.893291 0.557086 -0.443826
N4    N     N_R   0.353594 0.873214 0.716910 0.234494
O31   O     O_R   0.383254 0.875588 0.784920 -0.334315
O32   O     O_R   0.209737 0.894696 0.690452 -0.449674
N5    N     N_R   0.344308 0.864924 0.157598 0.299859
O33   O     O_R   0.244703 0.925954 0.180812 -0.280945
O34   O     O_R   0.425823 0.883418 0.103761 -0.248064
H42   H     H_    0.862139 0.948681 0.323723 0.066861
H43   H     H_    0.850996 0.195095 0.639437 0.117006
N6    N     N_R   0.535507 0.232938 0.801564 0.278344
O35   O     O_R   0.520081 0.316780 0.827930 -0.373101
O36   O     O_R   0.637686 0.177723 0.833260 -0.266865
N7    N     N_R   0.264165 0.125500 0.827118 0.269989
O37   O     O_R   0.298421 0.070004 0.878032 -0.227266
O38   O     O_R   0.167406 0.194347 0.836921 -0.374742
H44   H     H_    0.421209 0.052467 0.763199 0.204500
H45   H     H_    0.720061 0.105750 0.432526 0.173532
H46   H     H_    0.484426 0.650380 0.054843 0.157375
N8    N     N_R   0.014722 0.406366 0.881964 0.245709
O39   O     O_R   0.979256 0.469925 0.928569 -0.310588
O40   O     O_R   0.940281 0.325389 0.880400 -0.243197
N9    N     N_R   0.764577 0.588334 0.121275 0.241706
O41   O     O_R   0.806474 0.527238 0.074138 -0.321434
O42   O     O_R   0.813551 0.674672 0.118403 -0.305598
N10   N     N_R   0.813036 0.914641 0.215392 0.284438
O43   O     O_R   0.691885 0.971316 0.212774 -0.287182
O44   O     O_R   0.860457 0.877761 0.157181 -0.215786

loop_
_geom_bond_atom_site_label_1
_geom_bond_atom_site_label_2
_geom_bond_distance
_ccdc_geom_bond_type
C25   C29   1.405447 A    
C14   H20   1.108076 S    
C31   C32   1.394811 A    
H1    C10   1.112472 S    
C2    C3    1.528182 S    
P2    O7    1.506925 D    
C41   H33   1.081993 S    
C33   C34   1.412261 A    
C1    H14   1.109551 S    
C17   C25   1.415520 A    
C12   N4    1.461668 S    
C27   H27   1.082003 S    
O14   P8    1.746759 S    
C20   C21   1.397973 A    
C46   C47   1.411137 A    
C43   N8    1.438661 S    
C37   H46   1.080874 S    
C5    H8    1.108494 S    
C39   C40   1.406601 A    
C4    O15   1.398197 S    
N10   O43   1.300189 A    
C9    H13   1.110375 S    
P4    O15   1.748810 S    
N6    O36   1.302018 A    
C44   C48   1.404266 A    
P4    O12   1.502782 D    
O17   Ba2   2.761309 S    
Ba1   O13   2.793492 S    
P7    O22   1.744418 S    
O2    Ba2   2.794073 S    
C8    H39   1.103467 S    
C12   H17   1.102840 S    
C2    H4    1.107314 S    
O13   Ba2   2.905889 S    
C2    H3    1.108856 S    
C4    C5    1.528114 S    
C17   H28   1.076572 S    
C13   C14   1.524806 S    
N1    O25   1.300223 A    
P2    O20   1.549624 S    
C41   C42   1.405176 A    
C40   C41   1.400531 A    
O14   Ba2   2.763821 S    
Ba1   Ba2   4.531056 S    
C9    H12   1.107759 S    
O16   P7    1.762804 S    
C15   H22   1.114490 S    
P3    O11   1.751657 S    
P1    Ba1   3.399675 S    
C4    H6    1.104838 S    
O7    Ba1   2.817980 S    
C5    H36   1.111565 S    
C35   N9    1.434648 S    
N9    O42   1.299973 A    
C18   C23   1.439343 A    
P4    Ba2   3.400229 S    
C37   C42   1.407748 A    
C14   H21   1.107520 S    
C17   C23   1.407311 A    
C3    H5    1.108877 S    
C6    N2    1.454896 S    
O4    P6    1.544919 D    
C32   C33   1.402995 A    
C31   H35   1.081654 S    
C22   C30   1.417027 A    
O3    Ba1   2.764510 S    
C11   O22   1.395389 S    
C35   C36   1.411111 A    
C11   H16   1.097833 S    
C21   H25   1.083328 S    
P1    O5    1.758529 S    
P1    C18   1.886185 S    
C19   C20   1.397274 A    
O6    P6    1.749473 S    
N5    O34   1.300866 A    
C28   C29   1.392128 A    
N5    O33   1.300219 A    
P7    O21   1.570075 D    
C27   C28   1.390566 A    
Ba1   O16   2.768997 S    
C14   H19   1.106733 S    
P6    C20   1.849154 S    
P1    O2    1.570263 S    
P5    C44   1.851804 S    
N3    O30   1.297654 A    
C18   C19   1.399620 A    
C6    H9    1.101627 S    
C40   H32   1.083136 S    
C10   H41   1.106995 S    
O10   C8    1.398807 S    
P2    O10   1.752115 S    
C37   C38   1.399172 A    
P3    O9    1.546784 D    
C15   C16   1.533850 S    
C34   C35   1.420298 A    
O11   C2    1.406384 S    
C30   H45   1.081043 S    
C15   N6    1.463411 S    
C26   C27   1.396344 A    
P5    O17   1.741947 S    
P2    C32   1.856344 S    
N7    O38   1.299777 A    
P3    O8    1.739741 S    
C38   H30   1.083062 S    
C24   C26   1.440188 A    
C34   C42   1.493014 S    
N4    O31   1.301160 A    
C45   C48   1.392383 A    
N8    O40   1.300109 A    
C3    H42   1.110655 S    
C45   C46   1.399534 A    
N2    O28   1.296077 A    
C48   H34   1.082216 S    
P7    C45   1.849082 S    
Ba2   O21   2.818004 S    
C1    H2    1.111131 S    
C11   C12   1.530710 S    
C16   N7    1.460446 S    
C43   C47   1.420419 A    
O2    Ba1   2.905056 S    
P8    C28   1.838428 S    
P4    C26   1.866509 S    
C21   C22   1.408567 A    
P3    C36   1.847166 S    
C7    H10   1.110823 S    
C1    C10   1.526766 S    
C5    N1    1.459975 S    
O6    C10   1.403899 S    
C16   H23   1.103735 S    
C19   H24   1.081930 S    
O19   C13   1.403026 S    
C13   H43   1.110724 S    
C11   H15   1.112616 S    
C16   H44   1.110065 S    
C43   C44   1.414459 A    
C46   H29   1.083269 S    
O3    P6    1.744744 S    
N7    O37   1.301245 A    
P8    O23   1.543660 D    
N10   O44   1.300678 A    
N3    O29   1.299704 A    
N2    O27   1.302375 A    
C6    C7    1.531870 S    
N6    O35   1.298767 A    
P4    O13   1.570264 S    
Ba1   O20   2.912946 S    
P5    O19   1.747076 S    
P2    Ba1   3.382928 S    
C33   H31   1.083074 S    
C15   O24   1.410757 S    
C24   C30   1.412304 A    
P1    O1    1.502422 D    
C38   C39   1.403580 A    
C8    C9    1.522371 S    
C3    N10   1.459347 S    
C8    H11   1.108912 S    
P8    O24   1.754110 S    
C4    H7    1.109994 S    
C13   H18   1.110259 S    
P5    O18   1.547981 D    
N1    O26   1.300556 A    
C22   C23   1.426445 A    
C1    N5    1.459392 S    
Ba2   O20   2.768600 S    
O5    C6    1.393603 S    
C24   C25   1.421961 A    
C29   H26   1.073157 S    
C9    H40   1.110729 S    
N4    O32   1.299200 A    
C7    H37   1.111257 S    
N8    O39   1.301270 A    
O1    Ba1   2.851088 S    
C7    H38   1.110847 S    
O8    Ba1   2.760831 S    
N9    O41   1.301085 A    
C39   C47   1.489718 S    
C31   C36   1.401949 A    
C12   N3    1.457548 S    
O16   Ba2   2.912119 S    
O12   Ba2   2.851614 S    
