data_mof_unit_13480.cif
_audit_creation_date              2012-12-11T14:40:11-0500
_audit_creation_method            fapswitch 2.2
_symmetry_space_group_name_H-M    P1
_symmetry_Int_Tables_number       1
_space_group_crystal_system       triclinic
_cell_length_a                    19.593105
_cell_length_b                    10.885701
_cell_length_c                    19.446132
_cell_angle_alpha                 90.24824
_cell_angle_beta                  97.454125
_cell_angle_gamma                 90.206414
_cell_volume                      4112.43638676

loop_
_atom_site_label
_atom_site_type_symbol
_atom_type_description
_atom_site_fract_x
_atom_site_fract_y
_atom_site_fract_z
_atom_type_partial_charge
C1    C     C_R   0.707088 0.002167 0.366211 0.558787
C2    C     C_3   0.247901 0.415397 0.569587 0.020227
C3    C     C_3   0.252907 0.918888 0.428733 0.024893
C4    C     C_3   0.747901 0.915398 0.569587 0.020226
C5    C     C_3   0.722733 0.531146 0.460915 -0.113114
C6    C     C_3   0.239398 0.548367 0.545612 -0.130893
C7    C     C_3   0.222733 0.031146 0.460915 -0.113117
C8    C     C_3   0.739398 0.048367 0.545612 -0.130894
C9    C     C_3   0.795236 0.555609 0.502170 -0.198421
C10   C     C_3   0.175959 0.506471 0.493952 -0.178677
C11   C     C_3   0.295236 0.055609 0.502170 -0.198422
C12   C     C_R   0.292625 0.999995 0.633597 0.558931
C13   C     C_3   0.675959 0.006471 0.493952 -0.178677
C14   C     C_3   0.824624 0.442079 0.468382 -0.108715
C15   C     C_3   0.185124 0.372932 0.519078 -0.107222
C16   C     C_3   0.324624 0.942079 0.468382 -0.108714
C17   C     C_3   0.685124 0.872932 0.519078 -0.107221
C18   C     C_3   0.805249 0.359425 0.527040 -0.098649
C19   C     C_3   0.233817 0.345974 0.464812 -0.139369
C20   C     C_3   0.305249 0.859425 0.527040 -0.098649
C21   C     C_3   0.733816 0.845974 0.464812 -0.139369
C22   C     C_3   0.776211 0.472148 0.560191 0.031027
C23   C     C_R   0.207088 0.502167 0.366211 0.558792
C24   C     C_3   0.224006 0.477953 0.439789 0.046810
C25   C     C_3   0.276211 0.972148 0.560191 0.031026
C26   C     C_3   0.724006 0.977953 0.439789 0.046808
C27   C     C_3   0.464632 0.281073 0.987313 -0.164886
C28   C     C_3   0.448361 0.186239 0.041897 -0.165854
C29   C     C_3   0.964455 0.780938 0.987365 -0.165050
C30   C     C_3   0.948329 0.685900 0.041905 -0.165855
C31   C     C_3   0.542744 0.267159 0.010452 -0.126168
C32   C     C_3   0.451775 0.079942 0.989082 -0.144854
C33   C     C_3   0.042590 0.767371 0.010495 -0.126080
C34   C     C_R   0.792625 0.499995 0.633597 0.558936
C35   C     C_3   0.951901 0.579741 0.989037 -0.144688
C36   C     C_3   0.526145 0.172386 0.064191 0.020636
C37   C     C_3   0.468748 0.174989 0.935773 0.012548
C38   C     C_3   0.026136 0.672393 0.064189 0.020641
C39   C     C_3   0.968730 0.674991 0.935774 0.012522
C40   C     C_R   0.534339 0.180019 0.337423 0.542418
C41   C     C_R   0.464600 0.179968 0.661768 0.568414
C42   C     C_R   0.034339 0.680019 0.337423 0.542423
C43   C     C_R   0.964600 0.679968 0.661768 0.568436
C44   C     C_3   0.529812 0.067008 0.012653 0.262138
C45   C     C_3   0.733290 0.335956 0.486580 -0.075402
C46   C     C_3   0.545928 0.160988 0.958576 0.282175
C47   C     C_3   0.029958 0.567153 0.012596 0.262065
C48   C     C_3   0.045932 0.661333 0.958567 0.282212
C49   C     C_1   0.762617 0.425387 0.904088 0.033377
C50   C     C_1   0.243235 0.407044 0.100832 0.046378
C51   C     C_1   0.262616 0.925384 0.904087 0.033543
C52   C     C_1   0.743215 0.907083 0.100821 0.046260
C53   C     C_1   0.747624 0.408028 0.034668 -0.024849
C54   C     C_1   0.267201 0.356683 0.974906 0.003516
C55   C     C_1   0.247621 0.908024 0.034666 -0.024710
C56   C     C_3   0.296474 0.387612 0.515733 -0.093415
C57   C     C_1   0.767170 0.856752 0.974892 0.003488
C58   C     C_1   0.754141 0.415376 0.963814 -0.006603
C59   C     C_1   0.256369 0.380646 0.043864 0.016372
C60   C     C_1   0.254138 0.915373 0.963812 -0.006416
C61   C     C_1   0.756337 0.880712 0.043847 0.016278
C62   C     C_1   0.742866 0.394776 0.095080 0.006184
C63   C     C_1   0.273356 0.337264 0.915062 0.015460
C64   C     C_1   0.242864 0.894772 0.095078 0.006249
C65   C     C_1   0.773336 0.837317 0.915053 0.015507
C66   C     C_R   0.740972 0.368763 0.359483 0.540091
C67   C     C_3   0.233290 0.835956 0.486580 -0.075401
C68   C     C_R   0.260148 0.364812 0.638685 0.558800
C69   C     C_R   0.240972 0.868763 0.359483 0.540089
C70   C     C_R   0.760148 0.864812 0.638685 0.558799
C71   C     C_R   0.722746 0.950097 0.164664 0.559128
C72   C     C_R   0.277942 0.952524 0.836175 0.552967
C73   C     C_R   0.222747 0.450098 0.164663 0.559219
C74   C     C_R   0.777942 0.452525 0.836176 0.552929
C75   C     C_R   0.557994 0.181555 0.135288 0.566953
C76   C     C_R   0.439322 0.182449 0.864026 0.537504
C77   C     C_R   0.057995 0.681556 0.135286 0.567007
C78   C     C_3   0.796474 0.887612 0.515733 -0.093416
C79   C     C_R   0.939310 0.682450 0.864023 0.537517
C80   C     C_R   0.735988 0.360361 0.164407 0.536445
C81   C     C_R   0.277983 0.310003 0.843755 0.531309
C82   C     C_R   0.235987 0.860360 0.164406 0.536462
C83   C     C_R   0.777978 0.810021 0.843757 0.531300
C84   C     C_1   0.484129 0.172032 0.593838 0.028132
C85   C     C_1   0.511315 0.172531 0.403830 0.007537
C86   C     C_1   0.984129 0.672032 0.593838 0.028133
C87   C     C_1   0.011315 0.672531 0.403830 0.007536
C88   C     C_1   0.500475 0.169337 0.463140 -0.023025
C89   C     C_3   0.752907 0.418888 0.428733 0.024893
C90   C     C_1   0.492828 0.168954 0.533894 -0.008897
C91   C     C_1   0.000475 0.669337 0.463140 -0.023026
C92   C     C_1   0.992829 0.668955 0.533894 -0.008898
C93   C     C_3   0.704812 0.448723 0.520033 0.255946
C94   C     C_3   0.286747 0.519755 0.489824 0.244794
C95   C     C_3   0.204812 0.948723 0.520033 0.255947
C96   C     C_3   0.786747 0.019755 0.489824 0.244795
Cl1   Cl    Cl    0.624054 0.449190 0.552968 -0.548296
Cl2   Cl    Cl    0.358755 0.603951 0.467438 -0.576936
Cl3   Cl    Cl    0.124054 0.949190 0.552968 -0.548282
Cl4   Cl    Cl    0.858755 0.103951 0.467438 -0.576940
Cl5   Cl    Cl    0.571723 0.923356 0.028696 -0.535170
Cl6   Cl    Cl    0.610650 0.144668 0.902691 -0.507908
Cl7   Cl    Cl    0.072070 0.423674 0.028557 -0.535444
Cl8   Cl    Cl    0.110678 0.645461 0.902671 -0.507909
Cr1   Cr    Cr6+3 0.765830 0.160660 0.268180 1.083345
Cr2   Cr    Cr6+3 0.384070 0.324050 0.751550 1.071227
Cr3   Cr    Cr6+3 0.115930 0.824050 0.248450 1.047770
Cr4   Cr    Cr6+3 0.884070 0.824050 0.751550 1.071273
Cr5   Cr    Cr6+3 0.234170 0.160660 0.731820 1.095357
Cr6   Cr    Cr6+3 0.265830 0.660660 0.268180 1.083388
Cr7   Cr    Cr6+3 0.734170 0.660660 0.731820 1.095349
Cr8   Cr    Cr6+3 0.612110 0.009150 0.248770 1.068272
Cr9   Cr    Cr6+3 0.387890 0.009150 0.751230 1.071271
Cr10  Cr    Cr6+3 0.112110 0.509150 0.248770 1.068175
Cr11  Cr    Cr6+3 0.887890 0.509150 0.751230 1.071184
Cr12  Cr    Cr6+3 0.615930 0.324050 0.248450 1.047803
H1    H     H_    0.704299 0.249423 0.475546 0.121685
H2    H     H_    0.234251 0.270036 0.427165 0.135710
H3    H     H_    0.338939 0.791098 0.556633 0.195897
H4    H     H_    0.734251 0.770036 0.427165 0.135712
H5    H     H_    0.580789 0.343131 0.020282 0.148792
H6    H     H_    0.414060 0.003647 0.978610 0.143407
H7    H     H_    0.080519 0.843514 0.020362 0.148871
H8    H     H_    0.914302 0.503278 0.978524 0.143565
H9    H     H_    0.436937 0.368797 0.975426 0.150326
H10   H     H_    0.409030 0.196681 0.077766 0.142363
H11   H     H_    0.936622 0.868536 0.975518 0.150144
H12   H     H_    0.347625 0.343413 0.526926 0.139278
H13   H     H_    0.908985 0.696058 0.077786 0.142342
H14   H     H_    0.684859 0.592693 0.431378 0.140827
H15   H     H_    0.242354 0.628627 0.581267 0.142895
H16   H     H_    0.184859 0.092693 0.431378 0.140824
H17   H     H_    0.742354 0.128627 0.581267 0.142890
H18   H     H_    0.873590 0.439653 0.445371 0.157459
H19   H     H_    0.142994 0.311615 0.531416 0.178961
H20   H     H_    0.373590 0.939653 0.445371 0.157462
H21   H     H_    0.642994 0.811615 0.531416 0.178963
H22   H     H_    0.204299 0.749423 0.475546 0.121685
H23   H     H_    0.847625 0.843413 0.526926 0.139277
H24   H     H_    0.323493 0.143156 0.510903 0.101558
H25   H     H_    0.626382 0.055436 0.483476 0.127892
H26   H     H_    0.823493 0.643157 0.510903 0.101557
H27   H     H_    0.126382 0.555436 0.483476 0.127893
H28   H     H_    0.838939 0.291098 0.556633 0.195897
O1    O     O_R   0.783230 0.287800 0.346510 -0.475257
O2    O     O_R   0.454570 0.285140 0.836900 -0.476527
O3    O     O_R   0.045430 0.785140 0.163100 -0.509164
O4    O     O_R   0.954570 0.785140 0.836900 -0.476357
O5    O     O_R   0.677850 0.374730 0.185500 -0.509711
O6    O     O_R   0.322150 0.374730 0.814500 -0.495756
O7    O     O_R   0.177850 0.874730 0.185500 -0.509741
O8    O     O_R   0.822150 0.874730 0.814500 -0.495788
O9    O     O_3   0.664630 0.164620 0.255130 -0.312141
O10   O     O_3   0.335370 0.164620 0.744870 -0.352755
O11   O     O_3   0.164630 0.664620 0.255130 -0.312115
O12   O     O_R   0.216770 0.287800 0.653490 -0.503376
O13   O     O_3   0.835370 0.664620 0.744870 -0.352745
O14   O     O_R   0.760130 0.037060 0.338610 -0.448356
O15   O     O_R   0.239870 0.037060 0.661390 -0.436439
O16   O     O_R   0.260130 0.537060 0.338610 -0.448361
O17   O     O_R   0.739870 0.537060 0.661390 -0.436446
O18   O     O_R   0.666620 0.921370 0.332440 -0.518680
O19   O     O_R   0.333380 0.921370 0.667560 -0.510559
O20   O     O_R   0.166620 0.421370 0.332440 -0.518695
O21   O     O_R   0.833380 0.421370 0.667560 -0.510561
O22   O     O_R   0.557170 0.082420 0.312350 -0.516498
O23   O     O_R   0.283230 0.787800 0.346510 -0.475255
O24   O     O_R   0.442830 0.082420 0.687650 -0.504525
O25   O     O_R   0.057170 0.582420 0.312350 -0.516508
O26   O     O_R   0.942830 0.582420 0.687650 -0.504536
O27   O     O_R   0.548310 0.285980 0.316250 -0.479365
O28   O     O_R   0.451690 0.285980 0.683750 -0.471818
O29   O     O_R   0.048310 0.785980 0.316250 -0.479362
O30   O     O_R   0.951690 0.785980 0.683750 -0.471795
O31   O     O_R   0.680520 0.375500 0.327470 -0.501918
O32   O     O_R   0.319480 0.375500 0.672530 -0.494116
O33   O     O_R   0.180520 0.875500 0.327470 -0.501923
O34   O     O_R   0.716770 0.787800 0.653490 -0.503370
O35   O     O_R   0.819480 0.875500 0.672530 -0.494123
O36   O     O_R   0.780350 0.286970 0.193350 -0.500329
O37   O     O_R   0.219650 0.286970 0.806650 -0.459170
O38   O     O_R   0.280350 0.786970 0.193350 -0.500291
O39   O     O_R   0.719650 0.786970 0.806650 -0.459135
O40   O     O_R   0.757460 0.036290 0.196640 -0.500357
O41   O     O_R   0.242540 0.036290 0.803360 -0.501962
O42   O     O_R   0.257460 0.536290 0.196640 -0.500347
O43   O     O_R   0.742540 0.536290 0.803360 -0.501961
O44   O     O_R   0.663740 0.920540 0.179290 -0.462158
O45   O     O_R   0.554500 0.081650 0.170370 -0.462956
O46   O     O_R   0.336260 0.920540 0.820710 -0.502390
O47   O     O_R   0.163740 0.420540 0.179290 -0.462191
O48   O     O_R   0.836260 0.420540 0.820710 -0.502437
O49   O     O_R   0.445500 0.081650 0.829630 -0.450691
O50   O     O_R   0.054500 0.581650 0.170370 -0.463040
O51   O     O_R   0.945500 0.581650 0.829630 -0.450792
O52   O     O_R   0.545430 0.285140 0.163100 -0.509135

loop_
_geom_bond_atom_site_label_1
_geom_bond_atom_site_label_2
_ccdc_geom_bond_type
C19   C56   S    
C45   C93   S    
Cr10  O25   S    
Cr1   O9    S    
C21   C26   S    
C8    C13   S    
Cr2   O6    S    
C53   C58   S    
C87   C91   T    
C14   C18   S    
C20   C67   S    
C35   C39   S    
C8    C96   S    
C81   O37   A    
C71   O44   A    
C4    C8    S    
C34   O17   A    
C35   C47   S    
C78   H23   S    
Cr9   O24   S    
C4    C70   S    
C73   O42   A    
C68   O32   A    
Cr12  O9    S    
C56   C94   S    
Cr9   O46   S    
C46   Cl6   S    
C5    C9    S    
C30   C35   S    
C63   C81   S    
C50   C59   T    
C80   O36   A    
C62   C80   S    
C35   H8    S    
C3    C69   S    
C23   O20   A    
C21   H4    S    
C3    C7    S    
C10   C15   S    
C31   C36   S    
Cr8   O18   S    
C43   O30   A    
C95   Cl3   S    
C70   O35   A    
C65   C83   S    
C15   H19   S    
C20   C25   S    
C94   Cl2   S    
C45   H1    S    
C81   O6    A    
C48   Cl8   S    
C41   O24   A    
C29   C33   S    
C79   O51   A    
C30   C38   S    
C11   C16   S    
Cr5   O12   S    
C67   H22   S    
C66   O1    A    
Cr6   O11   S    
C69   O33   A    
Cr8   O45   S    
Cr4   O8    S    
C2    C68   S    
Cr1   O14   S    
C19   H2    S    
C78   C96   S    
Cr2   O10   S    
C31   C46   S    
Cr4   O30   S    
C21   C78   S    
Cr7   O34   S    
C23   C24   S    
C11   H24   S    
C44   Cl5   S    
C13   H25   S    
Cr11  O21   S    
C34   O21   A    
C45   C89   S    
C77   O3    A    
C40   O22   A    
C82   O7    A    
Cr3   O7    S    
C75   O52   A    
Cr1   O1    S    
Cr1   O40   S    
C55   C60   S    
Cr3   O33   S    
C67   C95   S    
C2    C6    S    
C84   C90   T    
Cr11  O26   S    
C72   O46   A    
Cr12  O5    S    
C43   O26   A    
C44   C46   S    
C7    C11   S    
C66   C89   S    
C54   C59   S    
C55   C64   T    
C26   C96   S    
C80   O5    A    
C22   C34   S    
C41   O28   A    
C47   Cl7   S    
C27   C31   S    
C32   H6    S    
C28   C32   S    
C31   H5    S    
C76   O49   A    
C50   C73   S    
C91   C92   S    
C9    C14   S    
C70   O34   A    
C5    C93   S    
Cr4   O13   S    
C14   H18   S    
C6    C94   S    
Cr3   O3    S    
C41   C84   S    
C17   C21   S    
C49   C58   T    
Cr12  O27   S    
C39   C79   S    
C40   C85   S    
C15   C19   S    
C77   O50   A    
C69   O23   A    
C14   C89   S    
C4    C78   S    
C29   C30   S    
Cr5   O10   S    
C36   C75   S    
C24   C94   S    
Cr9   O19   S    
Cr9   O49   S    
Cr7   O17   S    
Cr6   O23   S    
Cr10  O20   S    
C47   C48   S    
C16   C20   S    
C42   O25   A    
Cr8   O22   S    
C23   O16   A    
C29   C39   S    
Cr7   O39   S    
C32   C44   S    
C83   O39   A    
C32   C37   S    
C2    C15   S    
C64   C82   S    
C7    H16   S    
C73   O47   A    
C74   O48   A    
Cr11  O48   S    
C5    H14   S    
C37   C76   S    
C88   C90   S    
C1    O18   A    
C25   C95   S    
Cr8   O9    S    
C29   H11   S    
C1    C26   S    
C22   C93   S    
C66   O31   A    
C36   C44   S    
C51   C72   S    
C4    C17   S    
Cr1   O36   S    
Cr5   O15   S    
C18   C45   S    
C93   Cl1   S    
Cr10  O11   S    
Cr6   O38   S    
Cr6   O16   S    
C83   O8    A    
C85   C88   T    
Cr5   O37   S    
Cr11  O51   S    
Cr6   O42   S    
Cr2   O32   S    
Cr10  O47   S    
Cr10  O50   S    
Cr12  O31   S    
C75   O45   A    
C8    H17   S    
C18   C22   S    
C43   C86   S    
Cr2   O28   S    
C71   O40   A    
Cr9   O10   S    
C3    C67   S    
C57   C65   T    
C6    H15   S    
C68   O12   A    
C42   O29   A    
Cr8   O44   S    
Cr3   O29   S    
C9    H26   S    
C57   C61   S    
C79   O4    A    
C51   C60   T    
C38   C77   S    
C28   H10   S    
C30   H13   S    
C7    C95   S    
C82   O38   A    
Cr7   O43   S    
C33   C38   S    
Cr2   O2    S    
C13   C17   S    
C12   C25   S    
C52   C61   T    
Cr5   O41   S    
C18   H28   S    
C19   C24   S    
Cr7   O13   S    
C52   C71   S    
C2    C56   S    
C12   O19   A    
C27   H9    S    
C17   H21   S    
C1    O14   A    
C20   H3    S    
C38   C47   S    
C27   C37   S    
C96   Cl4   S    
C10   H27   S    
C56   H12   S    
C12   O15   A    
C13   C26   S    
C5    C89   S    
C72   O41   A    
C6    C10   S    
C74   O43   A    
C76   O2    A    
Cr12  O52   S    
C28   C36   S    
C53   C62   T    
C10   C24   S    
C9    C22   S    
C54   C63   T    
C27   C28   S    
C33   H7    S    
C33   C48   S    
C11   C25   S    
C49   C74   S    
Cr4   O35   S    
C86   C92   T    
C42   C87   S    
C37   C46   S    
Cr11  O13   S    
C40   O27   A    
Cr3   O11   S    
C3    C16   S    
C39   C48   S    
Cr4   O4    S    
C16   H20   S    
