data_mof_unit_52433.cif
_audit_creation_date              2012-12-11T14:56:47-0500
_audit_creation_method            fapswitch 2.2
_symmetry_space_group_name_H-M    P1
_symmetry_Int_Tables_number       1
_space_group_crystal_system       triclinic
_cell_length_a                    10.603101
_cell_length_b                    10.666731
_cell_length_c                    17.109982
_cell_angle_alpha                 80.47936
_cell_angle_beta                  89.732384
_cell_angle_gamma                 119.445381
_cell_volume                      1653.61184669

loop_
_atom_site_label
_atom_site_type_symbol
_atom_type_description
_atom_site_fract_x
_atom_site_fract_y
_atom_site_fract_z
_atom_type_partial_charge
C1    C     C_R   0.222319 0.853982 0.128659 0.579156
C2    C     C_1   0.651898 0.346154 0.707645 -0.018313
C3    C     C_R   0.629776 0.717620 0.803495 -0.173495
C4    C     C_R   0.636447 0.280636 0.086040 0.527542
C5    C     C_R   0.616392 0.700099 0.725687 -0.141764
C6    C     C_R   0.665556 0.822930 0.664165 0.010059
C7    C     C_R   0.733427 0.963980 0.680246 -0.035717
C8    C     C_R   0.752457 0.983472 0.758236 0.223852
C9    C     C_R   0.690758 0.858020 0.820847 0.012065
C10   C     C_R   0.081628 0.896066 0.793330 -0.124099
C11   C     C_R   0.048501 0.886612 0.715330 0.225761
C12   C     C_R   0.798537 0.438501 0.260655 -0.059130
C13   C     C_R   0.054332 0.778313 0.680837 0.051484
C14   C     C_R   0.087013 0.677325 0.726499 -0.172665
C15   C     C_R   0.129540 0.694409 0.802712 -0.145805
C16   C     C_R   0.640541 0.858245 0.125329 0.546018
C17   C     C_R   0.133487 0.808667 0.834728 -0.010621
C18   C     C_R   0.686727 0.810107 0.357208 0.550303
C19   C     C_R   0.689570 0.396439 0.394612 0.545629
C20   C     C_R   0.104025 0.810445 0.359225 0.550585
C21   C     C_R   0.676810 0.800883 0.584781 0.536936
C22   C     C_R   0.679074 0.382973 0.624519 0.545731
C23   C     C_R   0.789126 0.429481 0.181138 0.227211
C24   C     C_R   0.029813 0.775125 0.596892 0.587089
C25   C     C_R   0.215032 0.857951 0.902458 0.553533
C26   C     C_R   0.637585 0.284806 0.861053 0.553157
C27   C     C_R   0.647004 0.868106 0.898651 0.545301
C28   C     C_R   0.524147 0.290298 0.208345 -0.159047
C29   C     C_R   0.535085 0.305192 0.287194 -0.152236
C30   C     C_R   0.672276 0.372342 0.314144 -0.014210
C31   C     C_R   0.650806 0.344498 0.156173 0.014850
C32   C     C_1   0.669028 0.848612 0.205382 -0.020797
C33   C     C_1   0.680640 0.839309 0.274793 -0.023774
C34   C     C_1   0.180452 0.825542 0.211210 -0.018189
C35   C     C_1   0.151381 0.819809 0.279801 -0.047588
C36   C     C_1   0.644606 0.324252 0.778242 -0.009280
Cr1   Cr    Cr6+3 0.402240 0.783890 0.019450 1.056256
Cr2   Cr    Cr6+3 0.382360 0.097900 0.991800 1.021808
Cr3   Cr    Cr6+3 0.715380 0.118170 0.988700 1.046966
Cr4   Cr    Cr6+3 0.936650 0.882420 0.465510 1.061935
Cr5   Cr    Cr6+3 0.605770 0.565620 0.493360 1.037150
Cr6   Cr    Cr6+3 0.921340 0.550490 0.496380 1.034868
H1    H     H_    0.416469 0.226638 0.190064 0.157573
H2    H     H_    0.038226 0.066584 0.700174 0.323964
H3    H     H_    0.892589 0.516234 0.075423 0.328856
H4    H     H_    0.893968 0.127427 0.812303 0.329456
H5    H     H_    0.088936 0.591212 0.701642 0.159907
H6    H     H_    0.167217 0.624322 0.834335 0.147426
H7    H     H_    0.437384 0.259934 0.327546 0.145878
H8    H     H_    0.905426 0.500781 0.280241 0.161476
H9    H     H_    0.584223 0.620835 0.850423 0.134553
H10   H     H_    0.569967 0.590145 0.713571 0.143468
H11   H     H_    0.779202 0.058767 0.632052 0.156832
H12   H     H_    0.078973 0.981289 0.818863 0.120162
O1    O     O_R   0.521780 0.757110 0.108900 -0.507487
O2    O     O_R   0.805020 0.410040 0.421340 -0.520290
O3    O     O_R   0.049240 0.685450 0.403290 -0.497515
O4    O     O_R   0.275160 0.783810 0.101120 -0.471005
O5    O     O_R   0.077520 0.903010 0.551800 -0.443576
O6    O     O_R   0.802980 0.872780 0.546830 -0.484831
O7    O     O_R   0.578090 0.681300 0.569920 -0.518511
O8    O     O_R   0.608530 0.436370 0.586530 -0.505372
O9    O     O_R   0.798770 0.401880 0.597100 -0.503005
O10   O     O_R   0.043450 0.677890 0.566230 -0.518851
O11   O     O_3   0.821250 0.666180 0.485090 -0.293005
O12   O     O_R   0.513330 0.228330 0.898660 -0.507734
O13   O     O_R   0.237900 0.972600 0.090980 -0.522259
O14   O     O_R   0.511190 0.220540 0.061620 -0.516279
O15   O     O_R   0.736920 0.257720 0.063840 -0.491681
O16   O     O_R   0.710450 0.984050 0.081720 -0.495981
O17   O     O_R   0.524090 0.765520 0.933110 -0.519457
O18   O     O_R   0.277300 0.791600 0.938160 -0.494516
O19   O     O_R   0.240210 0.981010 0.915190 -0.522263
O20   O     O_3   0.018820 0.987507 0.670521 -0.680029
O21   O     O_3   0.916445 0.500536 0.130823 -0.690407
O22   O     O_3   0.828610 0.125343 0.770711 -0.685677
O23   O     O_R   0.739230 0.266130 0.888050 -0.484637
O24   O     O_R   0.712580 0.991850 0.918770 -0.493617
O25   O     O_3   0.499990 0.999980 0.999980 -0.260018
O26   O     O_R   0.083770 0.911170 0.376030 -0.507508
O27   O     O_R   0.808770 0.880340 0.383890 -0.497691
O28   O     O_R   0.584340 0.689460 0.394160 -0.503396
O29   O     O_R   0.614320 0.443940 0.423590 -0.491467

loop_
_geom_bond_atom_site_label_1
_geom_bond_atom_site_label_2
_ccdc_geom_bond_type
C19   O2    A    
Cr4   O6    S    
Cr5   O7    S    
C27   O24   A    
H4    O22   S    
C7    C8    A    
C29   H7    S    
Cr1   O25   S    
C12   C23   A    
Cr3   O23   S    
C28   C29   A    
C5    C6    A    
Cr2   O25   S    
C10   C17   A    
Cr5   O29   S    
C8    O22   S    
C18   O27   A    
C34   C35   T    
Cr6   O2    S    
C22   O9    A    
C20   C35   S    
Cr2   O12   S    
C8    C9    A    
C2    C22   S    
Cr6   O11   S    
Cr5   O8    S    
Cr4   O26   S    
C5    H10   S    
C21   O7    A    
Cr1   O4    S    
C24   O10   A    
Cr4   O5    S    
C13   C14   A    
C15   H6    S    
C19   O29   A    
Cr6   O3    S    
C4    O15   A    
C1    C34   S    
C26   O23   A    
C20   O26   A    
C26   O12   A    
Cr3   O24   S    
C16   O16   A    
C21   O6    A    
C4    O14   A    
C3    H9    S    
Cr5   O11   S    
C6    C21   S    
C13   C24   S    
C23   C31   A    
C29   C30   A    
C3    C9    A    
C22   O8    A    
Cr3   O15   S    
C25   O18   A    
H2    O20   S    
C6    C7    A    
C26   C36   S    
Cr2   O14   S    
Cr4   O11   S    
Cr1   O17   S    
C7    H11   S    
Cr6   O10   S    
C27   O17   A    
C9    C27   S    
C2    C36   T    
C15   C17   A    
C12   C30   A    
Cr4   O27   S    
C28   C31   A    
C23   O21   S    
C3    C5    A    
C11   O20   S    
C12   H8    S    
C14   H5    S    
C1    O13   A    
C16   C32   S    
C28   H1    S    
H3    O21   S    
C17   C25   S    
C32   C33   T    
C16   O1    A    
C1    O4    A    
C11   C13   A    
C24   O5    A    
Cr5   O28   S    
C18   O28   A    
Cr3   O16   S    
C25   O19   A    
C10   H12   S    
C18   C33   S    
C4    C31   S    
C10   C11   A    
Cr1   O1    S    
Cr2   O13   S    
Cr1   O18   S    
C14   C15   A    
C20   O3    A    
C19   C30   S    
Cr6   O9    S    
Cr3   O25   S    
Cr2   O19   S    
