data_mof_unit_39676.cif
_audit_creation_date              2012-12-10T20:34:52-0500
_audit_creation_method            fapswitch 2.2
_symmetry_space_group_name_H-M    P1
_symmetry_Int_Tables_number       1
_space_group_crystal_system       triclinic
_cell_length_a                    10.646128
_cell_length_b                    10.710284
_cell_length_c                    9.857166
_cell_angle_alpha                 88.528593
_cell_angle_beta                  91.047176
_cell_angle_gamma                 90.502354
_cell_volume                      1123.34719911

loop_
_atom_site_label
_atom_site_type_symbol
_atom_type_description
_atom_site_fract_x
_atom_site_fract_y
_atom_site_fract_z
_atom_type_partial_charge
C1    C     C_R   0.505586 0.259819 0.501327 0.936742
C2    C     C_3   0.878005 0.498149 0.503336 0.089166
C3    C     C_3   0.927337 0.615037 0.424097 -0.399509
C4    C     C_3   0.922532 0.376017 0.438524 -0.540318
C5    C     C_R   0.536176 0.058915 0.622771 0.124283
C6    C     C_R   0.529761 0.128802 0.502024 -0.179616
C7    C     C_R   0.552305 0.070161 0.378913 -0.343435
C8    C     C_R   0.549104 0.940257 0.373971 0.514640
C9    C     C_R   0.528811 0.871459 0.495778 -0.240067
C10   C     C_R   0.534303 0.931740 0.618899 0.099283
C11   C     C_3   0.452331 0.917316 0.739398 -0.447358
C12   C     C_R   0.257336 0.498559 0.499139 0.900543
C13   C     C_3   0.456196 0.057995 0.745739 -0.504658
C14   C     C_R   0.401014 0.450591 0.070861 0.253974
C15   C     C_R   0.591787 0.560016 0.072734 -0.276330
C16   C     C_R   0.591635 0.562685 0.926600 0.553365
C17   C     C_R   0.399502 0.453242 0.928188 0.104548
C18   C     C_3   0.352143 0.322980 0.923127 -0.527526
C19   C     C_3   0.358953 0.317557 0.076579 -0.484128
C20   C     C_R   0.505734 0.740062 0.498230 0.893697
C21   C     C_R   0.742122 0.500087 0.501335 0.866690
C22   C     C_3   0.072929 0.487283 0.647376 -0.492954
C23   C     C_3   0.931088 0.500484 0.650447 -0.391257
C24   C     C_3   0.071195 0.619098 0.431629 -0.490550
C25   C     C_3   0.068275 0.381371 0.414588 1.023083
C26   C     C_3   0.120018 0.495464 0.497684 0.073461
H1    H     H_    0.115411 0.562939 0.709225 0.197608
H2    H     H_    0.864246 0.352998 0.348556 0.157102
H3    H     H_    0.108841 0.634667 0.327919 0.212397
H4    H     H_    0.895260 0.613601 0.316199 0.185423
H5    H     H_    0.564159 0.123936 0.285456 0.178157
H6    H     H_    0.357436 0.879489 0.713698 0.192431
H7    H     H_    0.501104 0.869889 0.826631 0.205550
H8    H     H_    0.362971 0.101882 0.726848 0.215860
H9    H     H_    0.510513 0.088552 0.836420 0.194322
H10   H     H_    0.666481 0.603446 0.130747 0.179781
H11   H     H_    0.100472 0.396445 0.696083 0.208079
H12   H     H_    0.254916 0.317169 0.880655 0.202231
H13   H     H_    0.421431 0.263511 0.875976 0.222037
H14   H     H_    0.266255 0.304079 0.123378 0.243259
H15   H     H_    0.433058 0.253794 0.117559 0.196336
H16   H     H_    0.891158 0.422855 0.713998 0.193842
H17   H     H_    0.906682 0.589995 0.698208 0.220118
H18   H     H_    0.102841 0.699643 0.493215 0.167457
H19   H     H_    0.889577 0.701610 0.467824 0.169759
H20   H     H_    0.901633 0.297304 0.510935 0.162614
N1    N     N_R   0.499150 0.499140 0.142800 -0.131838
N2    N     N_R   0.499150 0.499180 0.857150 -0.147976
O1    O     O_R   0.500020 0.316790 0.614690 -0.621912
O2    O     O_R   0.500000 0.316760 0.385350 -0.623234
O3    O     O_R   0.314800 0.500000 0.614670 -0.637670
O4    O     O_R   0.314790 0.499960 0.385330 -0.579118
O5    O     O_R   0.500000 0.683240 0.614650 -0.597583
O6    O     O_R   0.499980 0.683210 0.385310 -0.574703
O7    O     O_R   0.685210 0.500040 0.614670 -0.575727
O8    O     O_R   0.685200 0.500000 0.385330 -0.641448
Zn1   Zn    Zn3+2 0.500010 0.500020 0.653130 0.977429
Zn2   Zn    Zn3+2 0.499990 0.499980 0.346870 0.969015
O9    O     O_3   0.566235 0.881233 0.252281 -0.597048
C27   C     C_3   0.460608 0.901971 0.166202 -0.307446
H21   H     H_    0.370628 0.882736 0.219233 0.153395
H22   H     H_    0.464777 0.836733 0.080866 0.177847
H23   H     H_    0.461589 0.998516 0.122141 0.151693
O10   O     O_3   0.685663 0.620143 0.850328 -0.577563
C28   C     C_3   0.745022 0.720769 0.916127 -0.392761
H24   H     H_    0.794801 0.778648 0.838818 0.192792
H25   H     H_    0.676570 0.782516 0.965054 0.178080
H26   H     H_    0.816901 0.685760 0.990535 0.164779
O11   O     O_3   0.108994 0.401696 0.277042 -0.624312
C29   C     C_3   0.019366 0.382702 0.171983 -0.435746
H27   H     H_    0.945705 0.455275 0.171106 0.184145
H28   H     H_    0.979011 0.286842 0.176191 0.166214
H29   H     H_    0.067106 0.393537 0.073298 0.198081
O12   O     O_3   0.125874 0.272160 0.472556 -0.664055
C30   C     C_3   0.106828 0.165975 0.392524 -0.328905
H30   H     H_    0.161968 0.173394 0.298125 0.197750
H31   H     H_    0.005777 0.148780 0.369145 0.149248
H32   H     H_    0.141933 0.083068 0.450860 0.178442

loop_
_geom_bond_atom_site_label_1
_geom_bond_atom_site_label_2
_ccdc_geom_bond_type
N2    Zn1   S    
C17   N2    A    
C15   N1    A    
C18   H13   S    
C16   N2    A    
C4    C25   S    
O1    Zn1   S    
C7    C8    A    
C4    H20   S    
C23   H16   S    
C27   H23   S    
C24   C26   S    
C13   H9    S    
C8    O9    S    
O6    Zn2   S    
C5    C6    A    
C15   C16   A    
C23   H17   S    
C27   H22   S    
C25   O12   S    
C24   H3    S    
C12   O4    A    
C8    C9    A    
C28   H25   S    
C29   H27   S    
O3    Zn1   S    
C1    O2    A    
C5    C13   S    
O9    C27   S    
C14   C17   A    
C3    C24   S    
C2    C21   S    
C4    H2    S    
C7    H5    S    
O12   C30   S    
C1    C6    S    
O2    Zn2   S    
C11   H7    S    
C20   O6    A    
C19   H14   S    
C21   O7    A    
O5    Zn1   S    
C18   C19   S    
C25   C26   S    
C22   H11   S    
C3    H19   S    
C12   C26   S    
C27   H21   S    
C3    H4    S    
C2    C4    S    
C30   H30   S    
C9    C20   S    
C28   H26   S    
C29   H29   S    
C17   C18   S    
C30   H31   S    
C6    C7    A    
O4    Zn2   S    
C11   H6    S    
C22   H1    S    
O7    Zn1   S    
C24   H18   S    
C25   O11   S    
C15   H10   S    
C12   O3    A    
C9    C10   A    
C14   C19   S    
C20   O5    A    
C21   O8    A    
C14   N1    A    
O10   C28   S    
C2    C3    S    
C18   H12   S    
C5    C10   A    
N1    Zn2   S    
C11   C13   S    
O8    Zn2   S    
O11   C29   S    
C30   H32   S    
C10   C11   S    
C13   H8    S    
C28   H24   S    
C22   C26   S    
C2    C23   S    
C22   C23   S    
C29   H28   S    
C16   O10   S    
C1    O1    A    
C19   H15   S    
