data_mof_unit_27091.cif
_audit_creation_date              2012-12-11T16:45:55-0500
_audit_creation_method            fapswitch 2.2
_symmetry_space_group_name_H-M    P1
_symmetry_Int_Tables_number       1
_space_group_crystal_system       triclinic
_cell_length_a                    19.870969
_cell_length_b                    17.027549
_cell_length_c                    15.331425
_cell_angle_alpha                 90.0
_cell_angle_beta                  52.464056
_cell_angle_gamma                 89.999984
_cell_volume                      4113.49683323

loop_
_atom_site_label
_atom_site_type_symbol
_atom_type_description
_atom_site_fract_x
_atom_site_fract_y
_atom_site_fract_z
_atom_type_partial_charge
C1    C     C_R   0.841640 0.675297 0.043596 -0.115539
C2    C     C_R   0.158359 0.675297 0.956405 -0.115540
C3    C     C_R   0.341640 0.175297 0.043596 -0.115539
C4    C     C_R   0.658359 0.175297 0.956404 -0.115539
C5    C     C_R   0.806533 0.363400 0.323018 0.065978
C6    C     C_R   0.193467 0.363400 0.676981 0.065977
C7    C     C_R   0.306533 0.863400 0.323018 0.065978
C8    C     C_R   0.693467 0.863400 0.676981 0.065978
C9    C     C_R   0.855885 0.308535 0.922655 0.118017
C10   C     C_R   0.144115 0.308535 0.077345 0.118017
C11   C     C_R   0.355885 0.808535 0.922655 0.118019
C12   C     C_R   0.644115 0.808535 0.077345 0.118017
C13   C     C_R   0.887043 0.684956 0.305890 0.079502
C14   C     C_R   0.112957 0.684956 0.694110 0.079503
C15   C     C_R   0.387043 0.184955 0.305890 0.079503
C16   C     C_R   0.612957 0.184956 0.694110 0.079503
C17   C     C_R   0.855760 0.717435 0.485024 0.162290
C18   C     C_R   0.144240 0.717435 0.514976 0.162290
C19   C     C_R   0.355760 0.217435 0.485024 0.162290
C20   C     C_R   0.644240 0.217435 0.514976 0.162290
C21   C     C_R   0.870518 0.742387 0.387663 0.030377
C22   C     C_R   0.129482 0.742387 0.612337 0.030377
C23   C     C_R   0.370518 0.242387 0.387663 0.030377
C24   C     C_R   0.629482 0.242387 0.612337 0.030377
C25   C     C_R   0.355917 0.321947 0.379323 -0.202555
C26   C     C_R   0.644083 0.321947 0.620676 -0.202555
C27   C     C_R   0.855917 0.821947 0.379323 -0.202555
C28   C     C_R   0.144083 0.821947 0.620676 -0.202556
C29   C     C_R   0.307528 0.368078 0.474511 -0.198735
C30   C     C_R   0.692472 0.368078 0.525489 -0.198735
C31   C     C_R   0.807528 0.868078 0.474511 -0.198735
C32   C     C_R   0.192472 0.868078 0.525489 -0.198735
C33   C     C_R   0.273039 0.334021 0.577603 0.033547
C34   C     C_R   0.726960 0.334021 0.422397 0.033547
C35   C     C_R   0.773039 0.834021 0.577603 0.033547
C36   C     C_R   0.226960 0.834021 0.422397 0.033546
C37   C     C_R   0.807215 0.762428 0.579041 0.168690
C38   C     C_R   0.192785 0.762428 0.420959 0.168690
C39   C     C_R   0.307215 0.262428 0.579041 0.168691
C40   C     C_R   0.692785 0.262428 0.420959 0.168691
C41   C     C_3   0.766297 0.691118 0.650567 -0.530642
C42   C     C_3   0.233703 0.691118 0.349433 -0.530641
C43   C     C_3   0.266297 0.191118 0.650567 -0.530642
C44   C     C_3   0.733703 0.191118 0.349433 -0.530643
C45   C     C_R   0.847916 0.332237 0.218591 -0.146931
C46   C     C_R   0.152084 0.332237 0.781409 -0.146931
C47   C     C_R   0.347916 0.832237 0.218591 -0.146931
C48   C     C_R   0.652084 0.832237 0.781409 -0.146934
C49   C     C_3   0.819882 0.642179 0.547848 -0.522841
C50   C     C_3   0.180118 0.642179 0.452152 -0.522840
C51   C     C_3   0.319882 0.142179 0.547848 -0.522841
C52   C     C_3   0.680118 0.142179 0.452152 -0.522841
C53   C     C_2   0.777648 0.188335 0.968498 -0.216339
C54   C     C_2   0.222352 0.188335 0.031502 -0.216339
C55   C     C_2   0.277646 0.688337 0.968501 -0.216337
C56   C     C_2   0.722352 0.688335 0.031502 -0.216338
C57   C     C_2   0.312767 0.751178 0.902622 -0.186052
C58   C     C_2   0.687233 0.751178 0.097378 -0.186048
C59   C     C_2   0.812767 0.251179 0.902622 -0.186047
C60   C     C_2   0.187233 0.251179 0.097378 -0.186048
C61   C     C_R   0.868823 0.387139 0.893257 -0.206789
C62   C     C_R   0.131177 0.387139 0.106743 -0.206788
C63   C     C_R   0.368823 0.887139 0.893257 -0.206788
C64   C     C_R   0.631177 0.887139 0.106743 -0.206789
C65   C     C_R   0.907517 0.607470 0.303432 -0.157737
C66   C     C_R   0.092483 0.607470 0.696568 -0.157738
C67   C     C_R   0.407517 0.107470 0.303432 -0.157737
C68   C     C_R   0.592483 0.107470 0.696568 -0.157738
C69   C     C_R   0.884555 0.296661 0.983921 0.153773
C70   C     C_R   0.115445 0.296661 0.016079 0.153773
C71   C     C_R   0.384555 0.796661 0.983921 0.153772
C72   C     C_R   0.615444 0.796661 0.016079 0.153773
C73   C     C_R   0.896401 0.698443 0.209904 -0.133406
C74   C     C_R   0.103599 0.698443 0.790096 -0.133407
C75   C     C_R   0.396401 0.198443 0.209904 -0.133406
C76   C     C_R   0.603599 0.198443 0.790096 -0.133406
C77   C     C_R   0.858264 0.422066 0.316412 -0.126499
C78   C     C_R   0.141736 0.422066 0.683588 -0.126499
C79   C     C_R   0.358264 0.922066 0.316412 -0.126500
C80   C     C_R   0.641736 0.922066 0.683588 -0.126499
C81   C     C_R   0.832457 0.582378 0.946827 -0.154268
C82   C     C_R   0.167542 0.582378 0.053174 -0.154268
C83   C     C_R   0.332457 0.082378 0.946827 -0.154267
C84   C     C_R   0.667543 0.082378 0.053173 -0.154267
C85   C     C_R   0.792192 0.647033 0.015264 0.150780
C86   C     C_R   0.207807 0.647033 0.984737 0.150781
C87   C     C_R   0.292192 0.147033 0.015264 0.150780
C88   C     C_R   0.707808 0.147033 0.984736 0.150780
H1    H     H_    0.832467 0.727547 0.089598 0.090018
H2    H     H_    0.167533 0.727547 0.910403 0.090018
H3    H     H_    0.332467 0.227547 0.089598 0.090018
H4    H     H_    0.667533 0.227547 0.910402 0.090018
H5    H     H_    0.288326 0.425938 0.468260 0.126968
H6    H     H_    0.711674 0.425938 0.531740 0.126968
H7    H     H_    0.788326 0.925938 0.468260 0.126968
H8    H     H_    0.211674 0.925938 0.531740 0.126968
H9    H     H_    0.783327 0.683184 0.706958 0.187264
H10   H     H_    0.216672 0.683185 0.293042 0.187264
H11   H     H_    0.283328 0.183185 0.706958 0.187264
H12   H     H_    0.716672 0.183185 0.293042 0.187264
H13   H     H_    0.697504 0.685787 0.689717 0.203369
H14   H     H_    0.302496 0.685787 0.310283 0.203369
H15   H     H_    0.197504 0.185787 0.689717 0.203369
H16   H     H_    0.802496 0.185787 0.310283 0.203369
H17   H     H_    0.868185 0.606558 0.544770 0.187559
H18   H     H_    0.131815 0.606558 0.455230 0.187559
H19   H     H_    0.368185 0.106558 0.544770 0.187559
H20   H     H_    0.631815 0.106558 0.455230 0.187559
H21   H     H_    0.781232 0.609501 0.529683 0.200012
H22   H     H_    0.218768 0.609501 0.470317 0.200012
H23   H     H_    0.281232 0.109501 0.529683 0.200012
H24   H     H_    0.718768 0.109501 0.470317 0.200012
H25   H     H_    0.789767 0.173297 0.026144 0.131931
H26   H     H_    0.210233 0.173297 0.973856 0.131931
H27   H     H_    0.289763 0.673300 0.026150 0.131929
H28   H     H_    0.710233 0.673296 0.973856 0.131931
H29   H     H_    0.298424 0.767000 0.847009 0.128378
H30   H     H_    0.701578 0.767002 0.152989 0.128377
H31   H     H_    0.798422 0.267002 0.847011 0.128377
H32   H     H_    0.201578 0.267002 0.152989 0.128377
H33   H     H_    0.823846 0.289499 0.192448 0.103071
H34   H     H_    0.176154 0.289499 0.807552 0.103071
H35   H     H_    0.323846 0.789499 0.192448 0.103071
H36   H     H_    0.676154 0.789499 0.807552 0.103071
H37   H     H_    0.862587 0.414451 0.834815 0.108216
H38   H     H_    0.137413 0.414451 0.165185 0.108216
H39   H     H_    0.362587 0.914451 0.834815 0.108216
H40   H     H_    0.637413 0.914451 0.165185 0.108217
H41   H     H_    0.922257 0.579931 0.353369 0.101648
H42   H     H_    0.077743 0.579931 0.646631 0.101648
H43   H     H_    0.422257 0.079931 0.353369 0.101648
H44   H     H_    0.577743 0.079931 0.646631 0.101648
H45   H     H_    0.898006 0.754953 0.176632 0.083683
H46   H     H_    0.101995 0.754953 0.823368 0.083683
H47   H     H_    0.398006 0.254953 0.176632 0.083683
H48   H     H_    0.601994 0.254953 0.823368 0.083683
H49   H     H_    0.845843 0.459081 0.381923 0.093858
H50   H     H_    0.154157 0.459081 0.618077 0.093858
H51   H     H_    0.345843 0.959081 0.381923 0.093858
H52   H     H_    0.654157 0.959081 0.618077 0.093858
H53   H     H_    0.813064 0.549111 0.905478 0.098531
H54   H     H_    0.186935 0.549112 0.094523 0.098531
H55   H     H_    0.313063 0.049111 0.905478 0.098531
H56   H     H_    0.686936 0.049111 0.094521 0.098531
H57   H     H_    0.372104 0.345951 0.303402 0.125809
H58   H     H_    0.627896 0.345951 0.696597 0.125809
H59   H     H_    0.872104 0.845951 0.303402 0.125809
H60   H     H_    0.127896 0.845951 0.696597 0.125809
N1    N     N_R   0.908660 0.628630 0.995840 -0.045925
N2    N     N_R   0.091340 0.628630 0.004160 -0.045925
N3    N     N_R   0.408660 0.128630 0.995840 -0.045925
N4    N     N_R   0.591340 0.128630 0.004160 -0.045925
N5    N     N_R   0.922310 0.368460 0.151950 -0.034394
N6    N     N_R   0.077690 0.368460 0.848050 -0.034394
N7    N     N_R   0.422310 0.868460 0.151950 -0.034394
N8    N     N_R   0.577690 0.868460 0.848050 -0.034394
N9    N     N_R   0.903470 0.421430 0.936420 -0.048846
N10   N     N_R   0.096530 0.421430 0.063580 -0.048846
N11   N     N_R   0.403470 0.921430 0.936420 -0.048846
N12   N     N_R   0.596530 0.921430 0.063580 -0.048846
N13   N     N_R   0.927500 0.575670 0.211370 -0.037208
N14   N     N_R   0.072500 0.575670 0.788630 -0.037208
N15   N     N_R   0.427500 0.075670 0.211370 -0.037208
N16   N     N_R   0.572500 0.075670 0.788630 -0.037208
N17   N     N_R   0.908660 0.365680 0.995820 -0.061769
N18   N     N_R   0.091340 0.365680 0.004180 -0.061769
N19   N     N_R   0.408660 0.865680 0.995820 -0.061769
N20   N     N_R   0.591340 0.865680 0.004180 -0.061769
N21   N     N_R   0.922310 0.631420 0.151980 -0.038941
N22   N     N_R   0.077690 0.631420 0.848020 -0.038941
N23   N     N_R   0.422310 0.131420 0.151980 -0.038941
N24   N     N_R   0.577690 0.131420 0.848020 -0.038941
N25   N     N_R   0.927500 0.426330 0.211360 -0.040831
N26   N     N_R   0.072500 0.426330 0.788640 -0.040831
N27   N     N_R   0.427500 0.926330 0.211360 -0.040831
N28   N     N_R   0.572500 0.926330 0.788640 -0.040831
N29   N     N_R   0.903470 0.570760 0.936440 -0.039609
N30   N     N_R   0.096530 0.570760 0.063560 -0.039609
N31   N     N_R   0.403470 0.070760 0.936440 -0.039609
N32   N     N_R   0.596530 0.070760 0.063560 -0.039609
Ni1   Ni    Ni4+2 0.000000 0.630300 0.000000 0.205392
Ni2   Ni    Ni4+2 0.500000 0.130300 0.000000 0.205392
Ni3   Ni    Ni4+2 0.000000 0.369700 0.000000 0.236257
Ni4   Ni    Ni4+2 0.500000 0.869700 0.000000 0.236256
Ni5   Ni    Ni4+2 0.988090 0.497570 0.863760 0.207096
Ni6   Ni    Ni4+2 0.011910 0.497570 0.136240 0.207096
Ni7   Ni    Ni4+2 0.488090 0.997570 0.863760 0.207096
Ni8   Ni    Ni4+2 0.511910 0.997570 0.136240 0.207096
N33   N     N_2   0.922283 0.226370 0.986423 -0.104734
H61   H     H_    0.884545 0.191772 0.055357 0.142523
C89   C     C_3   0.980243 0.184772 0.883745 -0.901319
H62   H     H_    0.944806 0.149009 0.863514 0.252988
H63   H     H_    0.020380 0.144775 0.891586 0.238661
H64   H     H_    0.022430 0.226535 0.815578 0.256546
N34   N     N_2   0.077717 0.226370 0.013577 -0.104734
H65   H     H_    0.115455 0.191772 0.944643 0.142523
C90   C     C_3   0.019757 0.184772 0.116255 -0.901319
H66   H     H_    0.055194 0.149010 0.136487 0.252988
H67   H     H_    0.979621 0.144774 0.108414 0.238660
H68   H     H_    0.977569 0.226535 0.184421 0.256546
N35   N     N_2   0.422283 0.726370 0.986423 -0.104734
H69   H     H_    0.384545 0.691772 0.055357 0.142523
C91   C     C_3   0.480243 0.684772 0.883745 -0.901308
H70   H     H_    0.444805 0.649011 0.863513 0.252988
H71   H     H_    0.520377 0.644772 0.891587 0.238658
H72   H     H_    0.522432 0.726534 0.815578 0.256544
N36   N     N_2   0.577717 0.726370 0.013577 -0.104734
H73   H     H_    0.615454 0.691772 0.944643 0.142523
C92   C     C_3   0.519757 0.684772 0.116255 -0.901320
H74   H     H_    0.555194 0.649010 0.136487 0.252988
H75   H     H_    0.479620 0.644775 0.108414 0.238660
H76   H     H_    0.477569 0.726535 0.184421 0.256546

loop_
_geom_bond_atom_site_label_1
_geom_bond_atom_site_label_2
_ccdc_geom_bond_type
C2    N2    A    
C83   C87   A    
C91   H70   S    
C77   H49   S    
C29   C33   A    
N35   C91   S    
N35   H69   S    
N23   Ni2   S    
C79   H51   S    
C50   H22   S    
C82   H54   S    
N16   Ni7   S    
C8    C48   A    
C53   C59   D    
C54   C60   D    
C91   H71   S    
C18   C50   S    
C33   C39   A    
C11   C71   A    
C55   H27   S    
N28   Ni7   S    
C37   C41   S    
C9    C61   A    
C14   C74   A    
C7    C79   A    
C35   C37   A    
C43   H11   S    
C38   C42   S    
C11   C63   A    
C70   N18   A    
N26   Ni5   S    
C54   C87   S    
C20   C40   A    
C75   H47   S    
C6    C78   A    
N31   Ni7   S    
C52   H24   S    
C16   C76   A    
N5    N25   A    
C58   H30   S    
C92   H76   S    
N29   Ni5   S    
C66   N14   A    
C25   C29   A    
C3    H3    S    
C7    C36   S    
N11   Ni7   S    
C84   N32   A    
C8    C80   A    
N32   Ni8   S    
N27   Ni8   S    
N3    N31   A    
C20   C24   A    
N11   N19   A    
C70   N34   S    
N20   Ni4   S    
C1    H1    S    
N8    Ni4   S    
C1    N1    A    
C16   C68   A    
C63   N11   A    
N2    Ni1   S    
N15   N23   A    
C41   H13   S    
C81   C85   A    
N2    N30   A    
C12   C58   S    
C44   C52   S    
C15   C23   S    
C21   C27   A    
C52   H20   S    
C16   C24   S    
C22   C28   A    
C5    C34   S    
N1    Ni1   S    
C72   N20   A    
C76   N24   A    
C10   C62   A    
C46   N6    A    
N10   Ni6   S    
C41   C49   S    
C53   H25   S    
C72   N36   S    
C69   N17   A    
C68   N16   A    
C44   H16   S    
C4    N4    A    
C91   H72   S    
N25   Ni6   S    
C28   H60   S    
C30   C34   A    
C3    C87   A    
C89   H62   S    
N17   Ni3   S    
N5    Ni3   S    
C28   C32   A    
C78   N26   A    
C80   N28   A    
N9    N17   A    
C74   H46   S    
C62   H38   S    
N6    N26   A    
N7    Ni4   S    
N4    Ni2   S    
C13   C65   A    
C26   H58   S    
C80   H52   S    
C27   C31   A    
C90   H66   S    
C17   C21   A    
N36   H73   S    
C61   H37   S    
N15   Ni8   S    
C9    C59   S    
C8    C35   S    
C68   H44   S    
N4    N32   A    
C90   H68   S    
C19   C23   A    
N34   C90   S    
C89   H63   S    
C13   C73   A    
N13   Ni6   S    
N30   Ni6   S    
C61   N9    A    
C65   H41   S    
C47   H35   S    
N19   Ni4   S    
N14   N22   A    
C15   C67   A    
N6    Ni3   S    
C82   N30   A    
N1    N29   A    
C92   H74   S    
C56   H28   S    
C13   C21   S    
C5    C45   A    
C17   C37   A    
C14   C66   A    
N21   Ni1   S    
C19   C39   A    
C42   C50   S    
C10   C70   A    
C77   N25   A    
C32   H8    S    
C73   H45   S    
C81   H53   S    
C26   C30   A    
C55   C57   D    
N22   Ni1   S    
C75   N23   A    
C9    C69   A    
C31   C35   A    
N16   N24   A    
C1    C85   A    
C45   N5    A    
N12   Ni8   S    
C57   H29   S    
C17   C49   S    
C32   C36   A    
C50   H18   S    
N10   N18   A    
N3    Ni2   S    
C49   H21   S    
C15   C75   A    
N7    N27   A    
C71   N35   S    
C10   C60   S    
N8    N28   A    
C73   N21   A    
C59   H31   S    
C2    H2    S    
C6    C46   A    
C18   C22   A    
C64   N12   A    
C67   H43   S    
N18   Ni3   S    
C84   C88   A    
N9    Ni5   S    
C69   N33   S    
C42   H10   S    
C48   H36   S    
N14   Ni5   S    
C49   H17   S    
C4    C88   A    
C3    N3    A    
C51   H23   S    
C6    C33   S    
C83   N31   A    
C20   C52   S    
C45   H33   S    
C14   C22   S    
C55   C86   S    
C90   H67   S    
C18   C38   A    
C89   H64   S    
N13   N21   A    
C30   H6    S    
C27   H59   S    
C82   C86   A    
C78   H50   S    
C29   H5    S    
C44   H12   S    
C79   N27   A    
C43   C51   S    
C56   C85   S    
C47   N7    A    
C19   C51   S    
C12   C64   A    
C54   H26   S    
C71   N19   A    
C36   C38   A    
C92   H75   S    
C56   C58   D    
C62   N10   A    
C2    C86   A    
C53   C88   S    
C41   H9    S    
N12   N20   A    
C12   C72   A    
N33   H61   S    
C48   N8    A    
C43   H15   S    
C74   N22   A    
C46   H34   S    
C31   H7    S    
C60   H32   S    
C81   N29   A    
N34   H65   S    
C76   H48   S    
C67   N15   A    
N24   Ni2   S    
C40   C44   S    
C23   C25   A    
C42   H14   S    
C24   C26   A    
C51   H19   S    
C39   C43   S    
C65   N13   A    
N36   C92   S    
C84   H56   S    
C34   C40   A    
C83   H55   S    
C25   H57   S    
C4    H4    S    
C64   H40   S    
C11   C57   S    
C5    C77   A    
C63   H39   S    
C7    C47   A    
N33   C89   S    
C66   H42   S    
