data_mof_unit_52146.cif
_audit_creation_date              2012-12-10T17:52:33-0500
_audit_creation_method            fapswitch 2.2
_symmetry_space_group_name_H-M    P1
_symmetry_Int_Tables_number       1
_space_group_crystal_system       triclinic
_cell_length_a                    14.657255
_cell_length_b                    14.822747
_cell_length_c                    23.444077
_cell_angle_alpha                 76.729704
_cell_angle_beta                  102.610228
_cell_angle_gamma                 114.414071
_cell_volume                      4470.18608412

loop_
_atom_site_label
_atom_site_type_symbol
_atom_type_description
_atom_site_fract_x
_atom_site_fract_y
_atom_site_fract_z
_atom_type_partial_charge
C1    C     C_R   0.880399 0.312861 0.508818 0.806873
C2    C     C_R   0.119648 0.687104 0.492417 0.900170
C3    C     C_R   0.969892 0.555963 0.752324 -0.158057
C4    C     C_R   0.970377 0.548677 0.223211 -0.156855
C5    C     C_R   0.977109 0.568959 0.692123 -0.068039
C6    C     C_R   0.975936 0.562905 0.281086 -0.042603
C7    C     C_R   0.997292 0.497155 0.671594 -0.142089
C8    C     C_R   0.998701 0.494148 0.328997 -0.106891
C9    C     C_R   0.012011 0.416484 0.711699 -0.242533
C10   C     C_R   0.015735 0.413771 0.317706 -0.231135
C11   C     C_R   0.006670 0.405003 0.771923 0.203231
C12   C     C_R   0.011493 0.400635 0.259779 0.199279
C13   C     C_R   0.985259 0.475660 0.792115 0.305361
C14   C     C_R   0.989113 0.469473 0.212303 0.313551
C15   C     C_R   0.812571 0.206798 0.519599 -0.100506
C16   C     C_R   0.188396 0.793358 0.484977 -0.086345
C17   C     C_R   0.772729 0.058673 0.593526 -0.148381
C18   C     C_R   0.229970 0.946111 0.414793 -0.120839
C19   C     C_R   0.843540 0.145385 0.567522 -0.206641
C20   C     C_R   0.157861 0.860366 0.440884 -0.165776
C21   C     C_R   0.711542 0.172480 0.490618 -0.074284
C22   C     C_R   0.290106 0.823952 0.513229 -0.066202
C23   C     C_R   0.000156 0.501017 0.608846 0.864662
C24   C     C_R   0.000717 0.500366 0.391007 0.879743
C25   C     C_R   0.640375 0.077716 0.513564 0.029091
C26   C     C_R   0.362439 0.918153 0.490810 0.023442
C27   C     C_R   0.669852 0.027623 0.569628 0.072082
C28   C     C_R   0.333298 0.968849 0.435160 0.070747
C29   C     C_R   0.538677 0.034718 0.485465 0.064527
C30   C     C_R   0.464232 0.960308 0.518813 0.062968
C31   C     C_R   0.493258 0.932507 0.579360 -0.183415
C32   C     C_R   0.509734 0.061211 0.424671 -0.189183
C33   C     C_R   0.594626 0.954775 0.602824 -0.018561
C34   C     C_R   0.408315 0.037071 0.400480 -0.022218
C35   C     C_R   0.712106 0.662957 0.399076 -0.239588
C36   C     C_R   0.290013 0.341977 0.604444 -0.256014
C37   C     C_R   0.797121 0.638763 0.417750 0.106199
C38   C     C_R   0.204587 0.365261 0.584743 0.079512
C39   C     C_R   0.713905 0.509140 0.490979 0.090482
C40   C     C_R   0.285264 0.488262 0.508118 0.112340
C41   C     C_R   0.628983 0.537097 0.478323 -0.006238
C42   C     C_R   0.371032 0.461280 0.522365 0.013899
C43   C     C_R   0.624618 0.608373 0.427003 0.055226
C44   C     C_R   0.376060 0.392495 0.574855 0.065157
C45   C     C_R   0.078152 0.510937 0.128749 0.527813
C46   C     C_R   0.897188 0.420894 0.877603 0.533565
C47   C     C_R   0.547225 0.493782 0.513112 0.005296
C48   C     C_R   0.453284 0.504438 0.488044 0.017155
C49   C     C_R   0.444180 0.556897 0.429219 -0.097843
C50   C     C_R   0.556250 0.441247 0.572102 -0.102728
C51   C     C_R   0.531990 0.619196 0.402738 -0.074050
C52   C     C_R   0.468671 0.381940 0.599464 -0.065374
C53   C     C_R   0.900189 0.413878 0.119030 0.548550
C54   C     C_R   0.075170 0.517893 0.887675 0.545024
C55   C     C_R   0.897874 0.412562 0.059040 -0.022370
C56   C     C_R   0.078055 0.515417 0.948153 -0.021730
C57   C     C_R   0.988431 0.462554 0.033913 -0.014731
C58   C     C_R   0.987631 0.464512 0.973335 -0.015142
C59   C     C_R   0.079630 0.511599 0.069067 -0.020870
C60   C     C_R   0.896276 0.416481 0.937948 -0.021904
C61   C     C_R   0.807401 0.363978 0.023516 -0.149465
C62   C     C_R   0.168726 0.563078 0.983777 -0.151536
C63   C     C_R   0.806605 0.365944 0.963586 -0.144233
C64   C     C_R   0.169508 0.561177 0.043627 -0.143612
Cu1   Cu    Cu3+1 0.081740 0.475680 0.515360 0.986134
Cu2   Cu    Cu3+1 0.918260 0.524320 0.484640 1.022328
H1    H     H_    0.736837 0.324897 0.041787 0.195303
H2    H     H_    0.239251 0.602460 0.965481 0.196397
H3    H     H_    0.799125 0.021095 0.634835 0.182009
H4    H     H_    0.204354 0.991539 0.376990 0.171916
H5    H     H_    0.437392 0.890160 0.608835 0.178552
H6    H     H_    0.565786 0.100424 0.395000 0.173815
H7    H     H_    0.282839 0.550512 0.474262 0.144771
H8    H     H_    0.715187 0.444396 0.522855 0.144019
H9    H     H_    0.139372 0.327020 0.608020 0.120130
H10   H     H_    0.863524 0.680041 0.395814 0.137487
H11   H     H_    0.715192 0.722868 0.362197 0.169556
H12   H     H_    0.288718 0.286692 0.643772 0.162328
H13   H     H_    0.735472 0.328231 0.937385 0.197410
H14   H     H_    0.240590 0.599245 0.069755 0.199501
H15   H     H_    0.956082 0.610599 0.769320 0.185779
H16   H     H_    0.954893 0.601545 0.185939 0.174670
H17   H     H_    0.026415 0.361058 0.695809 0.150042
H18   H     H_    0.031346 0.360044 0.354358 0.158462
H19   H     H_    0.079289 0.840769 0.421654 0.154471
H20   H     H_    0.920788 0.170681 0.589730 0.155382
N1    N     N_R   0.989295 0.463025 0.152263 -0.473745
N2    N     N_R   0.985775 0.470912 0.853935 -0.470876
N3    N     N_R   0.795430 0.560810 0.461550 -0.192139
N4    N     N_R   0.204570 0.439190 0.538450 -0.195299
O1    O     O_R   0.977900 0.338110 0.520250 -0.600007
O2    O     O_R   0.022100 0.661890 0.479750 -0.569487
O3    O     O_R   0.839850 0.379180 0.494310 -0.575875
O4    O     O_R   0.160150 0.620820 0.505690 -0.579995
O5    O     O_R   0.069020 0.479430 0.595090 -0.584664
O6    O     O_R   0.930980 0.520570 0.404910 -0.558168
O7    O     O_R   0.930970 0.520500 0.569150 -0.564134
O8    O     O_R   0.069030 0.479500 0.430850 -0.584327
O9    O     O_2   0.164516 0.558362 0.163014 -0.503592
O10   O     O_2   0.810576 0.375728 0.842831 -0.504248
O11   O     O_2   0.814225 0.367327 0.143878 -0.515921
O12   O     O_2   0.160796 0.567171 0.862605 -0.524996
C65   C     C_2   0.523668 0.687071 0.346153 0.891756
O13   O     O_2   0.540911 0.672867 0.300930 -0.560179
O14   O     O_R   0.494744 0.766403 0.344855 -0.705310
H21   H     H_    0.491050 0.807159 0.303902 0.353282
C66   C     C_2   0.476154 0.316464 0.657162 0.895929
O15   O     O_2   0.520613 0.353631 0.701842 -0.541420
O16   O     O_R   0.430858 0.212319 0.660094 -0.735119
H22   H     H_    0.440549 0.175495 0.701675 0.350201
C67   C     C_2   0.344351 0.528858 0.390609 0.828652
O17   O     O_2   0.316607 0.593139 0.358585 -0.536370
O18   O     O_R   0.281804 0.427454 0.391610 -0.749724
H23   H     H_    0.216783 0.416988 0.363159 0.332648
C68   C     C_2   0.656773 0.458581 0.608987 0.851209
O19   O     O_2   0.717048 0.544390 0.612828 -0.545870
O20   O     O_R   0.682819 0.377366 0.638565 -0.734336
H24   H     H_    0.753416 0.399312 0.661691 0.343602
C69   C     C_2   0.968877 0.660856 0.653501 0.919714
O21   O     O_2   0.014526 0.699121 0.610681 -0.580866
O22   O     O_R   0.911561 0.706179 0.667615 -0.714920
H25   H     H_    0.912185 0.768578 0.638469 0.351513
C70   C     C_2   0.963724 0.653253 0.289462 0.869792
O23   O     O_2   0.903965 0.684251 0.254492 -0.571773
O24   O     O_R   0.023388 0.705669 0.335632 -0.766244
H26   H     H_    0.010162 0.767855 0.334892 0.319194
C71   C     C_3   0.023180 0.316704 0.813265 -0.406566
C72   C     C_3   0.133986 0.329608 0.822491 -0.761066
H27   H     H_    0.158195 0.333878 0.779909 0.246433
H28   H     H_    0.182798 0.398929 0.841642 0.286471
H29   H     H_    0.143970 0.264419 0.853556 0.245730
H30   H     H_    0.000262 0.306498 0.857143 0.215116
H31   H     H_    0.975303 0.246800 0.794396 0.209377
C73   C     C_3   0.031128 0.313228 0.250030 -0.401915
C74   C     C_3   0.942182 0.214470 0.263219 -0.762872
H32   H     H_    0.930332 0.200192 0.310187 0.251273
H33   H     H_    0.872084 0.216538 0.234037 0.285159
H34   H     H_    0.957910 0.151795 0.254957 0.245933
H35   H     H_    0.044196 0.321649 0.203888 0.218457
H36   H     H_    0.100858 0.309997 0.279224 0.214626
C75   C     C_2   0.617842 0.903955 0.663281 0.853899
O25   O     O_2   0.573356 0.899424 0.702981 -0.559711
O26   O     O_R   0.686658 0.856943 0.674189 -0.743123
H37   H     H_    0.694819 0.823700 0.716855 0.353345
C76   C     C_2   0.384864 0.076685 0.337160 0.849141
O27   O     O_2   0.437219 0.161892 0.316638 -0.552949
O28   O     O_R   0.306003 0.015739 0.300351 -0.748354
H38   H     H_    0.298656 0.051246 0.258171 0.348301
C77   C     C_2   0.321393 0.750525 0.559292 0.837056
O29   O     O_2   0.390001 0.728273 0.553280 -0.576001
O30   O     O_R   0.270203 0.705188 0.608604 -0.733167
H39   H     H_    0.297032 0.655449 0.636278 0.348213
C78   C     C_2   0.678686 0.243223 0.443161 0.852676
O31   O     O_2   0.721549 0.280063 0.399170 -0.575241
O32   O     O_R   0.600007 0.268680 0.449585 -0.740549
H40   H     H_    0.585192 0.318054 0.414802 0.353988

loop_
_geom_bond_atom_site_label_1
_geom_bond_atom_site_label_2
_ccdc_geom_bond_type
C18   H4    S    
C74   H34   S    
C17   H3    S    
O20   H24   S    
C41   C43   A    
C67   O17   D    
C19   H20   S    
C72   H27   S    
C49   C51   A    
C76   O27   D    
C70   O23   D    
C39   C41   A    
C63   H13   S    
C27   C33   A    
C15   C19   A    
C59   C64   A    
C21   C25   A    
C5    C69   S    
C60   C63   A    
C24   O8    A    
Cu2   O7    S    
C45   N1    A    
Cu1   O8    S    
C29   C32   A    
C77   O30   S    
C73   H36   S    
C30   C31   A    
C34   C76   S    
C70   O24   S    
C58   C60   A    
O26   H37   S    
C35   C43   A    
C40   H7    S    
Cu1   O1    S    
C50   C68   S    
C39   H8    S    
C10   H18   S    
C61   C63   A    
C71   H30   S    
C62   C64   A    
C17   C19   A    
C67   O18   S    
O28   H38   S    
C52   C66   S    
C53   O11   S    
C68   O20   S    
C3    H15   S    
C50   C52   A    
O30   H39   S    
C31   C33   A    
C1    C15   S    
C47   C50   A    
C74   H32   S    
C3    C13   A    
C49   C67   S    
C46   C60   A    
C44   C52   A    
C40   C42   A    
C22   C77   S    
C28   C34   A    
C1    O1    A    
C12   C73   S    
C64   H14   S    
C42   C44   A    
C6    C70   S    
C53   N1    A    
C76   O28   S    
Cu2   N3    S    
C46   N2    A    
C38   H9    S    
C53   C55   A    
C25   C29   A    
Cu1   N4    S    
C54   C56   A    
Cu1   O4    S    
C17   C27   A    
C2    O4    A    
C18   C28   A    
C4    C6    A    
C45   O9    S    
C73   H35   S    
C5    C7    A    
Cu2   O2    S    
C33   C75   S    
C35   H11   S    
C75   O26   S    
C32   C34   A    
C11   C71   S    
C29   C30   A    
C61   H1    S    
C47   C48   A    
C15   C21   A    
C16   C20   A    
C20   H19   S    
C41   C47   A    
C65   O14   S    
C42   C48   A    
C2    O2    A    
C9    C11   A    
O22   H25   S    
C69   O22   S    
C10   C12   A    
C9    H17   S    
Cu2   O3    S    
C1    O3    A    
C48   C49   A    
C23   O7    A    
C37   H10   S    
C12   C14   A    
C26   C30   A    
C55   C57   A    
O24   H26   S    
C56   C62   A    
C36   C44   A    
C78   O32   S    
C66   O15   D    
C71   C72   S    
C72   H29   S    
O32   H40   S    
C2    C16   S    
Cu2   O6    S    
O18   H23   S    
C74   H33   S    
C46   O10   S    
C45   C59   A    
C16   C22   A    
C35   C37   A    
C54   O12   S    
C71   H31   S    
C3    C5    A    
C72   H28   S    
C14   N1    S    
C6    C8    A    
C69   O21   D    
C73   C74   S    
C62   H2    S    
C25   C27   A    
O14   H21   S    
C38   N4    A    
C26   C28   A    
C37   N3    A    
C24   O6    A    
C36   H12   S    
C77   O29   D    
C54   N2    A    
C11   C13   A    
C43   C51   A    
C57   C58   A    
C66   O16   S    
C7    C23   S    
C55   C61   A    
C13   N2    S    
C36   C38   A    
C8    C24   S    
C56   C58   A    
C18   C20   A    
C4    C14   A    
C57   C59   A    
C7    C9    A    
Cu1   O5    S    
C4    H16   S    
C8    C10   A    
Cu1   Cu2   S    
C22   C26   A    
O16   H22   S    
C65   O13   D    
C21   C78   S    
C23   O5    A    
C40   N4    A    
C78   O31   D    
C75   O25   D    
C51   C65   S    
C39   N3    A    
C68   O19   D    
C31   H5    S    
C32   H6    S    
