data_mof_unit_37663.cif
_audit_creation_date              2012-12-10T17:14:45-0500
_audit_creation_method            fapswitch 2.2
_symmetry_space_group_name_H-M    P1
_symmetry_Int_Tables_number       1
_space_group_crystal_system       triclinic
_cell_length_a                    10.645859
_cell_length_b                    13.003303
_cell_length_c                    11.760336
_cell_angle_alpha                 100.784219
_cell_angle_beta                  94.901771
_cell_angle_gamma                 92.065667
_cell_volume                      1591.14427921

loop_
_atom_site_label
_atom_site_type_symbol
_atom_type_description
_atom_site_fract_x
_atom_site_fract_y
_atom_site_fract_z
_atom_type_partial_charge
C1    C     C_R   0.499862 0.299292 0.477829 0.808038
C2    C     C_R   0.500143 0.700708 0.522170 0.808040
C3    C     C_R   0.569592 0.137866 0.544522 0.109931
C4    C     C_R   0.430447 0.862137 0.455471 0.109890
C5    C     C_R   0.540361 0.030927 0.547321 0.049821
C6    C     C_R   0.459695 0.969071 0.452665 0.049825
C7    C     C_R   0.385594 0.395105 0.014668 0.409680
C8    C     C_R   0.614432 0.604875 0.985331 0.409676
C9    C     C_R   0.391941 0.407327 0.137786 0.270847
C10   C     C_R   0.608067 0.592665 0.862213 0.270832
C11   C     C_R   0.552075 0.542810 0.159552 -0.020563
C12   C     C_R   0.447930 0.457189 0.840451 -0.020657
C13   C     C_R   0.542047 0.537222 0.036614 -0.142317
C14   C     C_R   0.457966 0.462774 0.963390 -0.142439
C15   C     C_R   0.259523 0.500557 0.499294 0.833511
C16   C     C_R   0.740477 0.499443 0.500706 0.833502
C17   C     C_3   0.043037 0.410927 0.531455 -0.379042
C18   C     C_3   0.956962 0.589075 0.468545 -0.379036
C19   C     C_3   0.948019 0.415577 0.425576 0.086411
C20   C     C_3   0.051981 0.584425 0.574424 0.086411
C21   C     C_3   0.876943 0.499393 0.501726 -0.146062
C22   C     C_3   0.123057 0.500609 0.498275 -0.146062
C23   C     C_3   0.971455 0.495897 0.606663 0.562126
C24   C     C_3   0.028544 0.504104 0.393338 0.562126
C25   C     C_R   0.501206 0.814516 0.535767 -0.100398
C26   C     C_R   0.498820 0.185483 0.464229 -0.100398
C27   C     C_R   0.412823 0.016689 0.358700 0.199104
C28   C     C_R   0.587245 0.983304 0.641280 0.199111
C29   C     C_R   0.425190 0.124927 0.370854 -0.262154
C30   C     C_R   0.574858 0.875066 0.629130 -0.262140
Cu1   Cu    Cu3+1 0.509400 0.507730 0.615930 0.937650
Cu2   Cu    Cu3+1 0.490600 0.492270 0.384070 0.937647
H1    H     H_    0.080861 0.338742 0.555726 0.156475
H2    H     H_    0.919139 0.661260 0.444275 0.156483
H3    H     H_    0.620923 0.837672 0.695099 0.159243
H4    H     H_    0.379128 0.162317 0.304879 0.159252
H5    H     H_    0.380051 0.402522 0.784266 0.178863
H6    H     H_    0.619965 0.597465 0.215737 0.178763
N1    N     N_R   0.523540 0.519360 0.790140 -0.206333
N2    N     N_R   0.476460 0.480640 0.209860 -0.206342
O1    O     O_R   0.506670 0.354460 0.582000 -0.574990
O2    O     O_R   0.493330 0.645540 0.418000 -0.575004
O3    O     O_R   0.490800 0.341410 0.386200 -0.599527
O4    O     O_R   0.509200 0.658590 0.613800 -0.599524
O5    O     O_R   0.324790 0.506500 0.597880 -0.593835
O6    O     O_R   0.675210 0.493500 0.402120 -0.593843
O7    O     O_R   0.308910 0.493440 0.402080 -0.555230
O8    O     O_R   0.691090 0.506560 0.597920 -0.555228
C31   C     C_3   0.888234 0.319549 0.341456 -0.817439
H7    H     H_    0.962883 0.275730 0.296154 0.238266
H8    H     H_    0.838291 0.267915 0.390076 0.221978
H9    H     H_    0.819627 0.343612 0.276275 0.238490
C32   C     C_3   0.111766 0.680452 0.658545 -0.817431
H10   H     H_    0.037117 0.724272 0.703846 0.238266
H11   H     H_    0.180372 0.656389 0.723727 0.238489
H12   H     H_    0.161710 0.732085 0.609925 0.221974
O9    O     O_3   0.932329 0.495870 0.718389 -0.579412
C33   C     C_3   0.027289 0.456833 0.787117 -0.273944
H13   H     H_    0.121540 0.496195 0.785703 0.166313
H14   H     H_    0.031212 0.370633 0.758875 0.173325
H15   H     H_    0.003313 0.471915 0.878511 0.186519
O10   O     O_3   0.067670 0.504133 0.281612 -0.579422
C34   C     C_3   0.972708 0.543167 0.212884 -0.273934
H16   H     H_    0.968782 0.629367 0.241125 0.173342
H17   H     H_    0.878459 0.503804 0.214297 0.166307
H18   H     H_    0.996684 0.528086 0.121489 0.186518
C35   C     C_3   0.312265 0.803037 0.390092 -0.797017
H19   H     H_    0.277962 0.740835 0.434666 0.220622
H20   H     H_    0.233153 0.856114 0.388925 0.221960
H21   H     H_    0.330284 0.764594 0.301044 0.245404
C36   C     C_3   0.687765 0.196979 0.609902 -0.797016
H22   H     H_    0.722042 0.259202 0.565345 0.220630
H23   H     H_    0.669749 0.235398 0.698959 0.245379
H24   H     H_    0.766894 0.143916 0.611043 0.221951
C37   C     C_3   0.360499 0.956769 0.240284 -0.873226
H25   H     H_    0.368585 0.005074 0.172347 0.222062
H26   H     H_    0.416018 0.887358 0.213654 0.227991
H27   H     H_    0.258892 0.934542 0.239027 0.237240
C38   C     C_3   0.639606 0.043215 0.759687 -0.873223
H28   H     H_    0.631566 0.994901 0.827622 0.222068
H29   H     H_    0.741204 0.065456 0.760913 0.237240
H30   H     H_    0.584078 0.112614 0.786346 0.227979
C39   C     C_3   0.699687 0.663952 0.817768 -0.677697
H31   H     H_    0.683710 0.746959 0.853851 0.178989
H32   H     H_    0.797717 0.647858 0.847096 0.244915
H33   H     H_    0.695258 0.658419 0.724272 0.250223
C40   C     C_3   0.300296 0.336063 0.182235 -0.677647
H34   H     H_    0.316239 0.253050 0.146164 0.178908
H35   H     H_    0.304732 0.341592 0.275731 0.250222
H36   H     H_    0.202273 0.352179 0.152910 0.244917
O11   O     O_3   0.301548 0.320319 0.945604 -0.595753
C41   C     C_3   0.367293 0.230032 0.905898 -0.362483
H37   H     H_    0.298003 0.167253 0.859369 0.199601
H38   H     H_    0.417999 0.199992 0.978722 0.158083
H39   H     H_    0.435138 0.245130 0.843487 0.163953
O12   O     O_3   0.698485 0.679664 0.054380 -0.595771
C42   C     C_3   0.632777 0.769993 0.094006 -0.362515
H40   H     H_    0.581212 0.799544 0.021243 0.157802
H41   H     H_    0.702208 0.833042 0.139646 0.199609
H42   H     H_    0.565704 0.755163 0.157172 0.164259

loop_
_geom_bond_atom_site_label_1
_geom_bond_atom_site_label_2
_ccdc_geom_bond_type
C40   H34   S    
C34   H17   S    
C16   C21   S    
C27   C29   A    
C18   C21   S    
C8    O12   S    
C15   O7    A    
C16   O8    A    
C42   H40   S    
C15   C22   S    
C32   H10   S    
C29   H4    S    
C17   C23   S    
C30   H3    S    
C18   C24   S    
C19   C21   S    
C5    C6    A    
C33   H14   S    
C10   C39   S    
C7    C9    A    
C12   H5    S    
C28   C38   S    
C36   H24   S    
C1    O3    A    
C7    C14   A    
Cu1   Cu2   S    
C2    O4    A    
C31   H8    S    
C6    C27   A    
C33   H15   S    
Cu2   N2    S    
C34   H18   S    
C13   C14   A    
C17   H1    S    
C27   C37   S    
C42   H41   S    
C4    C25   A    
C32   H11   S    
Cu1   O4    S    
C35   H19   S    
C4    C6    A    
C16   O6    A    
O11   C41   S    
C38   H29   S    
C33   H13   S    
C9    N2    A    
C34   H16   S    
C10   N1    A    
C35   H20   S    
C11   H6    S    
C3    C36   S    
C37   H25   S    
O10   C34   S    
C38   H30   S    
C5    C28   A    
C37   H26   S    
C19   C31   S    
C39   H31   S    
C20   C23   S    
C31   H9    S    
C7    O11   S    
O12   C42   S    
C41   H38   S    
C18   H2    S    
C1    O1    A    
C39   H32   S    
C12   C14   A    
Cu1   O8    S    
C21   C23   S    
C1    C26   S    
Cu2   O7    S    
C22   C24   S    
C15   O5    A    
C42   H42   S    
C36   H23   S    
C32   H12   S    
C25   C30   A    
C23   O9    S    
C24   O10   S    
Cu1   O1    S    
Cu2   O6    S    
C3    C26   A    
C20   C22   S    
C20   C32   S    
C3    C5    A    
C4    C35   S    
C17   C22   S    
C35   H21   S    
C12   N1    A    
C28   C30   A    
C19   C24   S    
C36   H22   S    
C9    C40   S    
C11   C13   A    
O9    C33   S    
C2    O2    A    
C41   H37   S    
C17   C19   S    
Cu2   O3    S    
Cu1   N1    S    
C2    C25   S    
C18   C20   S    
C41   H39   S    
C11   N2    A    
C37   H27   S    
C38   H28   S    
C8    C13   A    
C39   H33   S    
C26   C29   A    
C8    C10   A    
C31   H7    S    
Cu1   O5    S    
C40   H36   S    
C40   H35   S    
Cu2   O2    S    
