data_mof_unit_48092.cif
_audit_creation_date              2013-03-05T15:50:05-0500
_audit_creation_method            fapswitch 2.2
_symmetry_space_group_name_H-M    P1
_symmetry_Int_Tables_number       1
_space_group_crystal_system       triclinic
_cell_length_a                    18.306451
_cell_length_b                    25.804618
_cell_length_c                    18.313761
_cell_angle_alpha                 89.80379
_cell_angle_beta                  90.154744
_cell_angle_gamma                 89.53652
_cell_volume                      8650.88943408

loop_
_atom_site_label
_atom_site_type_symbol
_atom_site_description
_atom_site_fract_x
_atom_site_fract_y
_atom_site_fract_z
_atom_type_partial_charge
Zn1   Zn    Zn3+2 0.249990 0.293780 0.913250 0.947545
Zn2   Zn    Zn3+2 0.249990 0.706220 0.086750 0.959107
Zn3   Zn    Zn3+2 0.249990 0.706220 0.913250 0.950577
Zn4   Zn    Zn3+2 0.249990 0.293780 0.086750 0.950102
Zn5   Zn    Zn3+2 0.749990 0.793780 0.413250 0.951229
Zn6   Zn    Zn3+2 0.749990 0.206220 0.586750 0.969981
Zn7   Zn    Zn3+2 0.749990 0.206220 0.413250 0.947040
Zn8   Zn    Zn3+2 0.749990 0.793780 0.586750 0.980124
Zn9   Zn    Zn3+2 0.336760 0.206240 0.000000 0.997723
Zn10  Zn    Zn3+2 0.336760 0.793760 0.000000 1.003837
Zn11  Zn    Zn3+2 0.836760 0.706240 0.500000 1.001431
Zn12  Zn    Zn3+2 0.836760 0.293760 0.500000 0.995864
Zn13  Zn    Zn3+2 0.163250 0.206230 0.000000 0.978426
Zn14  Zn    Zn3+2 0.163250 0.793770 0.000000 0.952600
Zn15  Zn    Zn3+2 0.663250 0.706230 0.500000 0.988856
Zn16  Zn    Zn3+2 0.663250 0.293770 0.500000 1.001546
O1    O     O_3   0.249990 0.250010 0.000000 -0.489762
O2    O     O_3   0.249990 0.749990 0.000000 -0.485786
O3    O     O_3   0.749990 0.750010 0.500000 -0.483033
O4    O     O_3   0.749990 0.249990 0.500000 -0.483052
O5    O     O_R   0.335430 0.280650 0.146160 -0.638231
O6    O     O_R   0.335430 0.719350 0.853840 -0.637488
O7    O     O_R   0.335430 0.719350 0.146160 -0.653213
O8    O     O_R   0.335430 0.280650 0.853840 -0.648318
O9    O     O_R   0.835430 0.780650 0.646160 -0.629462
O10   O     O_R   0.835430 0.219350 0.353840 -0.638962
O11   O     O_R   0.835430 0.219350 0.646160 -0.634785
O12   O     O_R   0.835430 0.780650 0.353840 -0.640088
O13   O     O_R   0.164550 0.280640 0.853840 -0.633493
O14   O     O_R   0.164550 0.719360 0.146160 -0.637735
O15   O     O_R   0.164550 0.719360 0.853840 -0.632936
O16   O     O_R   0.164550 0.280640 0.146160 -0.643015
O17   O     O_R   0.664550 0.780640 0.353840 -0.638074
O18   O     O_R   0.664550 0.219360 0.646160 -0.639346
O19   O     O_R   0.664550 0.219360 0.353840 -0.638476
O20   O     O_R   0.664550 0.780640 0.646160 -0.626208
O21   O     O_R   0.396160 0.219380 0.914560 -0.613649
O22   O     O_R   0.396160 0.780620 0.085440 -0.598681
O23   O     O_R   0.396160 0.780620 0.914560 -0.642109
O24   O     O_R   0.396160 0.219380 0.085440 -0.640600
O25   O     O_R   0.896160 0.719380 0.414560 -0.638107
O26   O     O_R   0.896160 0.280620 0.585440 -0.619039
O27   O     O_R   0.896160 0.280620 0.414560 -0.647710
O28   O     O_R   0.896160 0.719380 0.585440 -0.631860
O29   O     O_R   0.103840 0.219370 0.085450 -0.629455
O30   O     O_R   0.103840 0.780630 0.914550 -0.655513
O31   O     O_R   0.103840 0.780630 0.085450 -0.634301
O32   O     O_R   0.103840 0.219370 0.914550 -0.636739
O33   O     O_R   0.603840 0.719370 0.585450 -0.634757
O34   O     O_R   0.603840 0.280630 0.414550 -0.652299
O35   O     O_R   0.603840 0.280630 0.585450 -0.620870
O36   O     O_R   0.603840 0.719370 0.414550 -0.646592
O37   O     O_R   0.310730 0.133160 0.000000 -0.598897
O38   O     O_R   0.310730 0.866840 0.000000 -0.601545
O39   O     O_R   0.810730 0.633160 0.500000 -0.617998
O40   O     O_R   0.810730 0.366840 0.500000 -0.627804
O41   O     O_R   0.249970 0.366860 0.060720 -0.643752
O42   O     O_R   0.249970 0.633140 0.939280 -0.651987
O43   O     O_R   0.249970 0.633140 0.060720 -0.645454
O44   O     O_R   0.249970 0.366860 0.939280 -0.658218
O45   O     O_R   0.749970 0.866860 0.560720 -0.657986
O46   O     O_R   0.749970 0.133140 0.439280 -0.642818
O47   O     O_R   0.749970 0.133140 0.560720 -0.662518
O48   O     O_R   0.749970 0.866860 0.439280 -0.643208
O49   O     O_R   0.189290 0.133150 0.000000 -0.638956
O50   O     O_R   0.189290 0.866850 0.000000 -0.675666
O51   O     O_R   0.689290 0.633150 0.500000 -0.623789
O52   O     O_R   0.689290 0.366850 0.500000 -0.606991
C1    C     C_R   0.390018 0.250021 0.139621 0.784517
C2    C     C_R   0.389391 0.750322 0.859983 0.774269
C3    C     C_R   0.389725 0.749900 0.139833 0.807184
C4    C     C_R   0.393796 0.253461 0.863608 0.812590
C5    C     C_R   0.890035 0.749789 0.639825 0.815942
C6    C     C_R   0.889621 0.250028 0.360038 0.767483
C7    C     C_R   0.889703 0.249833 0.639876 0.808373
C8    C     C_R   0.889866 0.749932 0.360117 0.783293
C9    C     C_R   0.110432 0.249946 0.860049 0.784686
C10   C     C_R   0.110052 0.750024 0.139832 0.796303
C11   C     C_R   0.110529 0.750533 0.859994 0.788835
C12   C     C_R   0.110163 0.250081 0.139773 0.780027
C13   C     C_R   0.610422 0.750026 0.359983 0.771081
C14   C     C_R   0.606264 0.246649 0.636552 0.844394
C15   C     C_R   0.610126 0.250124 0.360255 0.780765
C16   C     C_R   0.610194 0.749816 0.639964 0.811821
C17   C     C_R   0.251035 0.109344 0.991095 0.833883
C18   C     C_R   0.248696 0.891392 0.004440 0.861741
C19   C     C_R   0.750191 0.609265 0.500868 0.908558
C20   C     C_R   0.749760 0.390629 0.501249 0.908522
C21   C     C_R   0.249992 0.391356 0.999812 0.737399
C22   C     C_R   0.249965 0.608639 0.999970 0.734550
C23   C     C_R   0.750035 0.891362 0.500039 0.731915
C24   C     C_R   0.750016 0.108644 0.500199 0.734242
C25   C     C_3   0.180940 0.470323 0.038478 -0.394005
C26   C     C_3   0.250303 0.529951 0.920074 -0.377285
C27   C     C_3   0.180938 0.530241 0.038606 -0.395425
C28   C     C_3   0.250319 0.470443 0.919959 -0.385730
C29   C     C_3   0.750371 0.970047 0.579986 -0.379059
C30   C     C_3   0.681049 0.030468 0.461170 -0.393974
C31   C     C_3   0.750385 0.029560 0.580107 -0.386693
C32   C     C_3   0.681071 0.970558 0.461026 -0.391681
H1    H     H_    0.179216 0.455876 0.095774 0.185013
H2    H     H_    0.299492 0.543965 0.890572 0.178068
H3    H     H_    0.179232 0.544337 0.095948 0.186202
H4    H     H_    0.299509 0.456038 0.890428 0.171297
H5    H     H_    0.799547 0.955468 0.609783 0.176505
H6    H     H_    0.679335 0.044942 0.403868 0.188243
H7    H     H_    0.799582 0.043391 0.609909 0.176950
H8    H     H_    0.679411 0.956494 0.403666 0.188597
H9    H     H_    0.130907 0.456253 0.010418 0.152398
H10   H     H_    0.201338 0.544513 0.889918 0.180174
H11   H     H_    0.130912 0.545087 0.010590 0.149939
H12   H     H_    0.201365 0.456610 0.889780 0.180986
H13   H     H_    0.701394 0.956049 0.609854 0.178886
H14   H     H_    0.631003 0.045100 0.488945 0.150691
H15   H     H_    0.701435 0.043965 0.610028 0.172939
H16   H     H_    0.631033 0.956279 0.488734 0.151285
H17   H     H_    0.094778 0.920609 0.009791 0.223541
H18   H     H_    0.140425 0.089809 0.895262 0.174797
H19   H     H_    0.759819 0.404434 0.366946 0.138389
H20   H     H_    0.745364 0.595603 0.366065 0.139386
H21   H     H_    0.320036 0.455069 0.096703 0.186482
H22   H     H_    0.368963 0.543725 0.012163 0.149420
H23   H     H_    0.319982 0.543522 0.096882 0.185123
H24   H     H_    0.368998 0.454891 0.011989 0.149872
H25   H     H_    0.869075 0.954914 0.488630 0.148497
H26   H     H_    0.820182 0.044130 0.403779 0.188160
H27   H     H_    0.869085 0.043753 0.488804 0.150420
H28   H     H_    0.820166 0.955671 0.403604 0.188580
C33   C     C_3   0.318747 0.469533 0.039386 -0.394176
C34   C     C_3   0.318728 0.529451 0.039516 -0.396106
C35   C     C_3   0.818860 0.969762 0.460959 -0.395491
C36   C     C_3   0.818860 0.029683 0.461088 -0.392080
C37   C     C_3   0.249999 0.449103 0.999391 0.200568
C38   C     C_3   0.249983 0.550883 0.999604 0.198608
C39   C     C_3   0.750087 0.949119 0.500441 0.197823
C40   C     C_3   0.750079 0.050899 0.500659 0.200543
H29   H     H_    0.911356 0.365931 0.932593 0.130026
H30   H     H_    0.178682 0.869735 0.334205 0.142824
H31   H     H_    0.112602 0.916391 0.729430 0.123757
H32   H     H_    0.874213 0.295591 0.029278 0.144980
H33   H     H_    0.719407 0.700690 0.126154 0.141684
H34   H     H_    0.402409 0.367510 0.572857 0.144320
H35   H     H_    0.681906 0.366390 0.162305 0.168069
H36   H     H_    0.598773 0.578421 0.755599 0.156389
C41   C     C_R   0.126435 0.186848 0.732385 -0.155704
C42   C     C_R   0.982808 0.686661 0.124945 -0.146535
C43   C     C_R   0.020715 0.661597 0.840222 -0.144262
C44   C     C_R   0.145614 0.222712 0.288249 -0.139399
C45   C     C_R   0.463533 0.781500 0.393701 -0.142038
C46   C     C_R   0.593549 0.162535 0.747805 -0.124442
C47   C     C_R   0.481640 0.188522 0.376989 -0.154088
C48   C     C_R   0.521010 0.840499 0.664052 -0.158962
C49   C     C_R   0.134462 0.155782 0.670775 -0.152671
C50   C     C_R   0.921401 0.655552 0.117262 -0.145304
C51   C     C_R   0.980530 0.616851 0.828063 -0.166038
C52   C     C_R   0.163561 0.209709 0.359982 -0.144940
C53   C     C_R   0.392330 0.796354 0.410841 -0.142461
C54   C     C_R   0.609295 0.135113 0.811642 -0.127981
C55   C     C_R   0.419800 0.157920 0.385201 -0.140706
C56   C     C_R   0.478411 0.884715 0.675280 -0.145653
C57   C     C_R   0.338457 0.796003 0.357364 -0.132922
C58   C     C_R   0.583124 0.153062 0.878034 -0.088610
C59   C     C_R   0.366511 0.157451 0.331005 -0.147126
C60   C     C_R   0.424765 0.884872 0.728744 -0.131117
C61   C     C_R   0.080543 0.155647 0.617196 -0.167424
C62   C     C_R   0.867965 0.655373 0.171030 -0.135462
C63   C     C_R   0.931365 0.615011 0.770350 -0.114771
C64   C     C_R   0.109944 0.209488 0.413374 -0.146031
C65   C     C_R   0.355541 0.780890 0.286457 -0.098777
C66   C     C_R   0.535768 0.195573 0.879688 -0.074817
C67   C     C_R   0.374598 0.187770 0.268472 -0.145088
C68   C     C_R   0.413467 0.840820 0.771279 -0.144567
C69   C     C_R   0.018346 0.186625 0.624879 -0.159810
C70   C     C_R   0.875513 0.686349 0.232725 -0.145147
C71   C     C_R   0.921239 0.658291 0.725698 -0.114277
C72   C     C_R   0.038099 0.222325 0.395340 -0.142127
C73   C     C_R   0.427381 0.764789 0.267848 0.076363
C74   C     C_R   0.513438 0.220827 0.814341 0.081757
C75   C     C_R   0.436984 0.219168 0.258871 0.074229
C76   C     C_R   0.456755 0.795553 0.761680 0.075237
C77   C     C_R   0.008832 0.218369 0.687123 0.075700
C78   C     C_R   0.937403 0.718323 0.241763 0.073017
C79   C     C_R   0.960108 0.704616 0.737687 0.050952
C80   C     C_R   0.018587 0.236903 0.323039 0.074571
C81   C     C_R   0.063615 0.218526 0.741538 0.077297
C82   C     C_R   0.991797 0.718459 0.187159 0.073630
C83   C     C_R   0.012219 0.705712 0.794349 0.080249
C84   C     C_R   0.073156 0.237066 0.268661 0.072627
C85   C     C_R   0.482129 0.765084 0.322226 0.071250
C86   C     C_R   0.551008 0.208676 0.749511 0.075270
C87   C     C_R   0.491248 0.219481 0.313772 0.072404
C88   C     C_R   0.511318 0.795377 0.707254 0.076601
C89   C     C_R   0.445871 0.749839 0.195941 -0.152228
C90   C     C_R   0.455822 0.257978 0.812043 -0.225092
C91   C     C_R   0.446318 0.249832 0.195573 -0.149991
C92   C     C_R   0.445512 0.750374 0.804092 -0.152163
C93   C     C_R   0.945619 0.249408 0.696306 -0.164544
C94   C     C_R   0.945999 0.749860 0.304088 -0.145898
C95   C     C_R   0.947358 0.749755 0.695082 -0.172416
C96   C     C_R   0.945666 0.249697 0.303795 -0.157289
C97   C     C_R   0.518442 0.736227 0.177096 0.070153
C98   C     C_R   0.449464 0.291795 0.751180 0.080705
C99   C     C_R   0.509043 0.280687 0.186064 0.072320
C100  C     C_R   0.487186 0.704882 0.792513 0.079965
C101  C     C_R   0.935779 0.280011 0.759422 0.053434
C102  C     C_R   0.007986 0.781584 0.312686 0.075052
C103  C     C_R   0.989516 0.794879 0.705330 0.073397
C104  C     C_R   0.926177 0.261615 0.230704 0.070216
C105  C     C_R   0.990880 0.280615 0.813443 0.082084
C106  C     C_R   0.062354 0.781736 0.258070 0.069861
C107  C     C_R   0.044163 0.795092 0.759834 0.076839
C108  C     C_R   0.980829 0.262114 0.176416 0.072914
C109  C     C_R   0.573327 0.737003 0.231309 0.072865
C110  C     C_R   0.487022 0.279699 0.686323 0.086167
C111  C     C_R   0.563309 0.281005 0.240987 0.072293
C112  C     C_R   0.539911 0.704130 0.736509 0.053306
C113  C     C_R   0.054379 0.249968 0.803905 -0.146299
C114  C     C_R   0.053863 0.750104 0.195829 -0.152769
C115  C     C_R   0.054260 0.750719 0.804371 -0.155582
C116  C     C_R   0.053968 0.250080 0.195880 -0.159186
C117  C     C_R   0.554427 0.750569 0.303694 -0.152725
C118  C     C_R   0.544488 0.242388 0.688481 -0.230392
C119  C     C_R   0.553914 0.250358 0.304284 -0.146395
C120  C     C_R   0.553151 0.749818 0.695523 -0.169969
C121  C     C_R   0.537452 0.720987 0.105198 -0.147524
C122  C     C_R   0.407021 0.337965 0.753117 -0.120531
C123  C     C_R   0.518746 0.311592 0.122818 -0.154427
C124  C     C_R   0.478063 0.660010 0.836507 -0.149328
C125  C     C_R   0.871872 0.310278 0.769832 -0.116546
C126  C     C_R   0.016856 0.813517 0.374783 -0.142846
C127  C     C_R   0.980150 0.839385 0.660541 -0.151917
C128  C     C_R   0.853178 0.273966 0.210500 -0.154236
C129  C     C_R   0.609432 0.708954 0.087106 -0.143748
C130  C     C_R   0.391411 0.365584 0.689430 -0.143704
C131  C     C_R   0.580702 0.342099 0.114567 -0.149679
C132  C     C_R   0.518149 0.614961 0.823238 -0.165061
C133  C     C_R   0.863381 0.340963 0.831751 -0.118363
C134  C     C_R   0.078026 0.844887 0.382240 -0.142075
C135  C     C_R   0.023911 0.882817 0.669736 -0.147919
C136  C     C_R   0.834737 0.284976 0.138276 -0.142722
C137  C     C_R   0.917982 0.341988 0.884599 -0.175796
C138  C     C_R   0.131394 0.845160 0.328390 -0.142606
C139  C     C_R   0.078340 0.882729 0.722712 -0.178571
C140  C     C_R   0.888537 0.286033 0.085105 -0.148429
C141  C     C_R   0.663608 0.710484 0.140191 -0.140183
C142  C     C_R   0.417595 0.347775 0.622966 -0.134454
C143  C     C_R   0.633995 0.342547 0.168770 -0.138646
C144  C     C_R   0.568081 0.613586 0.766418 -0.119668
C145  C     C_R   0.981088 0.312077 0.875977 -0.146952
C146  C     C_R   0.124054 0.813907 0.266932 -0.144253
C147  C     C_R   0.088707 0.839446 0.767337 -0.178954
C148  C     C_R   0.960960 0.275591 0.103790 -0.143764
C149  C     C_R   0.645909 0.723359 0.211791 -0.158593
C150  C     C_R   0.464761 0.305162 0.621101 -0.111656
C151  C     C_R   0.625776 0.312350 0.231388 -0.144977
C152  C     C_R   0.579010 0.657563 0.723660 -0.114620
H37   H     H_    0.169688 0.185536 0.772770 0.120064
H38   H     H_    0.023009 0.685465 0.081741 0.114432
H39   H     H_    0.058040 0.661141 0.886108 0.125068
H40   H     H_    0.189174 0.220733 0.248623 0.135232
H41   H     H_    0.503666 0.783776 0.436966 0.132534
H42   H     H_    0.613420 0.146366 0.697175 0.149017
H43   H     H_    0.521742 0.187524 0.420516 0.109626
H44   H     H_    0.560689 0.842068 0.620497 0.125599
H45   H     H_    0.182645 0.131606 0.664706 0.134968
H46   H     H_    0.915304 0.631451 0.069396 0.135497
H47   H     H_    0.987908 0.583433 0.863299 0.131140
H48   H     H_    0.219204 0.199276 0.374077 0.139601
H49   H     H_    0.379094 0.808666 0.465725 0.139874
H50   H     H_    0.643174 0.100568 0.809714 0.140408
H51   H     H_    0.413302 0.134386 0.433760 0.130178
H52   H     H_    0.486613 0.918834 0.641822 0.131119
H53   H     H_    0.283314 0.807922 0.370731 0.138360
H54   H     H_    0.598250 0.133408 0.928226 0.145077
H55   H     H_    0.318705 0.133459 0.337393 0.132524
H56   H     H_    0.391282 0.919128 0.736907 0.140187
H57   H     H_    0.086814 0.131332 0.569540 0.127385
H58   H     H_    0.820447 0.631145 0.164902 0.174762
H59   H     H_    0.900718 0.580036 0.760230 0.157708
H60   H     H_    0.123940 0.198831 0.468903 0.142640
H61   H     H_    0.311906 0.782604 0.246604 0.141696
H62   H     H_    0.519009 0.209177 0.932831 0.157084
H63   H     H_    0.331697 0.186137 0.227787 0.113992
H64   H     H_    0.369990 0.842670 0.811056 0.130893
H65   H     H_    0.977750 0.185119 0.581885 0.107387
H66   H     H_    0.832501 0.684871 0.273106 0.111661
H67   H     H_    0.883398 0.654824 0.681284 0.206544
H68   H     H_    0.998304 0.219978 0.438686 0.133428
H69   H     H_    0.497226 0.717961 0.062132 0.128382
H70   H     H_    0.387075 0.353960 0.803835 0.150088
H71   H     H_    0.478650 0.312585 0.079284 0.109884
H72   H     H_    0.440412 0.659164 0.881881 0.126707
H73   H     H_    0.827873 0.310330 0.730444 0.179688
H74   H     H_    0.976682 0.814688 0.418014 0.113076
H75   H     H_    0.939916 0.840962 0.617234 0.122042
H76   H     H_    0.809411 0.275722 0.249885 0.134367
H77   H     H_    0.814235 0.364021 0.838706 0.147579
H78   H     H_    0.083948 0.869155 0.429960 0.132008
H79   H     H_    0.016027 0.916478 0.635070 0.124877
H80   H     H_    0.778634 0.293753 0.123766 0.141488
H81   H     H_    0.623068 0.697847 0.031814 0.143047
H82   H     H_    0.357566 0.400140 0.691515 0.139796
H83   H     H_    0.587303 0.365564 0.065956 0.132652
H84   H     H_    0.510239 0.580979 0.857048 0.131318
H85   H     H_    0.021977 0.313980 0.918656 0.109850
H86   H     H_    0.167011 0.815399 0.226503 0.127752
H87   H     H_    0.132183 0.841193 0.807335 0.127559
H88   H     H_    0.000783 0.278486 0.060548 0.134634
H89   H     H_    0.689862 0.722090 0.251277 0.132564
H90   H     H_    0.481227 0.291569 0.567868 0.156955
H91   H     H_    0.668665 0.314005 0.272099 0.111246
H92   H     H_    0.617905 0.654434 0.680205 0.205900
C153  C     C_R   0.390412 0.042527 0.982248 0.445354
C154  C     C_R   0.366673 0.955607 0.070231 0.434436
C155  C     C_R   0.748171 0.553597 0.641889 0.350718
C156  C     C_R   0.740339 0.445275 0.641743 0.375974
C157  C     C_R   0.448598 0.019071 0.019527 -0.262178
C158  C     C_R   0.435845 0.977919 0.066956 -0.235708
C159  C     C_R   0.745140 0.525882 0.706939 -0.265114
C160  C     C_R   0.740836 0.472707 0.706858 -0.227327
C161  C     C_R   0.309180 0.975636 0.025707 -0.077978
C162  C     C_R   0.318127 0.024674 0.993692 -0.071409
C163  C     C_R   0.745670 0.472043 0.572771 -0.059773
C164  C     C_R   0.748294 0.527252 0.572792 -0.044208
C165  C     C_R   0.244219 0.948397 0.010482 -0.089966
C166  C     C_R   0.254552 0.053426 0.974935 -0.090381
C167  C     C_R   0.749090 0.446090 0.504256 -0.082143
C168  C     C_R   0.750251 0.553631 0.504143 -0.080030
C169  C     C_R   0.181431 0.975797 0.982716 0.008398
C170  C     C_R   0.189456 0.027355 0.959140 0.018646
C171  C     C_R   0.752477 0.472863 0.437034 0.018983
C172  C     C_R   0.750531 0.527057 0.436888 0.015360
C173  C     C_R   0.110047 0.954695 0.979594 -0.340783
C174  C     C_R   0.132630 0.051857 0.919172 -0.333395
C175  C     C_R   0.757410 0.446293 0.369358 -0.394865
C176  C     C_R   0.748366 0.553748 0.368913 -0.392167
C177  C     C_R   0.053367 0.979492 0.941119 0.429013
C178  C     C_R   0.065569 0.027429 0.908061 0.449382
C179  C     C_R   0.758614 0.473270 0.302856 0.475410
C180  C     C_R   0.749603 0.526845 0.302627 0.479292
H93   H     H_    0.503741 0.032973 0.012091 0.186956
H94   H     H_    0.480326 0.962347 0.099599 0.194542
H95   H     H_    0.745296 0.545919 0.758854 0.183800
H96   H     H_    0.737352 0.452509 0.758700 0.178888
O53   O     O_3   0.008821 0.052366 0.871811 -0.564501
C181  C     C_3   0.026259 0.056982 0.796954 0.085492
H97   H     H_    0.040302 0.018498 0.773043 0.106197
H98   H     H_    0.072614 0.083926 0.788601 0.144056
C182  C     C_3   0.960474 0.078854 0.755937 -0.756108
H99   H     H_    0.912802 0.052983 0.763101 0.249224
H100  H     H_    0.946526 0.118062 0.776854 0.264523
H101  H     H_    0.973171 0.081854 0.696827 0.197871
O54   O     O_3   0.984533 0.957919 0.938812 -0.572345
C183  C     C_3   0.984490 0.918560 0.885456 0.099257
H102  H     H_    0.024815 0.887395 0.899145 0.156033
H103  H     H_    0.997031 0.934998 0.830651 0.142644
C184  C     C_3   0.909219 0.894223 0.881767 -0.746388
H104  H     H_    0.867549 0.924139 0.867434 0.256733
H105  H     H_    0.908829 0.863505 0.839398 0.212111
H106  H     H_    0.895305 0.876645 0.935375 0.255645
O55   O     O_3   0.746261 0.552654 0.236392 -0.602531
C185  C     C_3   0.676980 0.576636 0.228093 0.099311
H107  H     H_    0.679229 0.616813 0.249513 0.136611
H108  H     H_    0.632253 0.555471 0.256635 0.138198
C186  C     C_3   0.657319 0.578500 0.147378 -0.802851
H109  H     H_    0.653537 0.538502 0.125556 0.261762
H110  H     H_    0.603730 0.598305 0.139907 0.212851
H111  H     H_    0.699596 0.599842 0.116375 0.242238
O56   O     O_3   0.762910 0.447668 0.236682 -0.599857
C187  C     C_3   0.829469 0.419674 0.232234 0.104193
H112  H     H_    0.821727 0.379918 0.254198 0.133829
H113  H     H_    0.875145 0.438509 0.262503 0.139577
C188  C     C_3   0.852185 0.416015 0.152591 -0.808638
H114  H     H_    0.861275 0.455449 0.130069 0.259844
H115  H     H_    0.903713 0.393262 0.148112 0.214899
H116  H     H_    0.808919 0.396800 0.120140 0.243576
Cl1   Cl    Cl    0.412484 0.085224 0.910192 -0.626796
Cl2   Cl    Cl    0.352064 0.908568 0.138884 -0.645289
Cl3   Cl    Cl    0.751747 0.621028 0.655500 -0.747484
Cl4   Cl    Cl    0.730361 0.377846 0.655290 -0.684303

loop_
_geom_bond_atom_site_label_1
_geom_bond_atom_site_label_2
_geom_bond_distance
_ccdc_geom_bond_type
C154  C158  1.396625 A    
C184  H104  1.111202 S    
C63   H59   1.082791 S    
C94   C102  1.413347 A    
C109  C149  1.418824 A    
C168  C172  1.411754 A    
C99   C123  1.416413 A    
C177  C178  1.395220 A    
C75   C91   1.412830 A    
C97   C121  1.418914 A    
O26   C7    1.278936 A    
C73   C89   1.414695 A    
C66   C74   1.418350 A    
C99   C111  1.411886 A    
C4    C90   1.483859 S    
O30   C11   1.273127 A    
C22   C38   1.490409 S    
C30   H14   1.113072 S    
C91   C99   1.413412 A    
C136  C140  1.387221 A    
C89   C97   1.415347 A    
Zn12  O26   1.930541 S    
C110  C118  1.420702 A    
C51   C63   1.387569 A    
H34   C142  1.082534 S    
C165  C169  1.435583 A    
C92   C100  1.411771 A    
C43   C51   1.392329 A    
C76   C92   1.415393 A    
C32   C39   1.550615 S    
C29   H5    1.113654 S    
C96   C104  1.416499 A    
C34   C38   1.550778 S    
C44   H40   1.080690 S    
O11   C7    1.277419 A    
C20   C167  1.432347 S    
C45   H41   1.081166 S    
C42   C82   1.416364 A    
O34   C15   1.275216 A    
H17   C173  1.076613 S    
C55   H51   1.082517 S    
C62   C70   1.393465 A    
H19   C175  1.081765 S    
C41   H37   1.082288 S    
C163  C164  1.425855 A    
C137  C145  1.393787 A    
Zn14  O30   1.935760 S    
C188  H116  1.110066 S    
C25   H1    1.112977 S    
Zn2   O43   1.946706 S    
C108  C116  1.416388 A    
C141  C149  1.392231 A    
Zn5   O48   1.946701 S    
H32   C140  1.081979 S    
Zn6   O47   1.946706 S    
C112  C120  1.418321 A    
Zn7   O46   1.943541 S    
C46   C86   1.417925 A    
C158  H94   1.082750 S    
C11   C115  1.446716 S    
C42   C50   1.393717 A    
C173  C177  1.401708 A    
Zn16  O4    1.941310 S    
Zn12  O4    1.956503 S    
Zn1   O13   1.935740 S    
C71   H67   1.071409 S    
C98   C110  1.408698 A    
C26   C28   1.535590 S    
C72   H68   1.080766 S    
Zn4   O16   1.939181 S    
C57   H53   1.081857 S    
C104  C128  1.419147 A    
C9    C113  1.450667 S    
C33   C37   1.551356 S    
C6    C96   1.455772 S    
C184  H106  1.111143 S    
C28   H4    1.113611 S    
C150  H90   1.080068 S    
C125  C133  1.393619 A    
C87   C119  1.412788 A    
C31   H7    1.113674 S    
C64   H60   1.082115 S    
C71   C79   1.413584 A    
C72   C80   1.419215 A    
C159  H95   1.083815 S    
C14   C118  1.484116 S    
C44   C84   1.419120 A    
C45   C85   1.418670 A    
C30   H6    1.112993 S    
Zn10  O22   1.930541 S    
C105  C113  1.412241 A    
C48   C88   1.418098 A    
C186  H109  1.110687 S    
O25   C8    1.273368 A    
C167  C171  1.411404 A    
C129  C141  1.387803 A    
C177  O54   1.382317 S    
C13   C117  1.451765 S    
Zn10  O2    1.956503 S    
C62   H58   1.081160 S    
C31   C40   1.553913 S    
O29   C12   1.279621 A    
C163  C167  1.425607 A    
Zn15  O33   1.937425 S    
C153  Cl1   1.765996 S    
C75   C87   1.411589 A    
C26   H2    1.113610 S    
C147  H87   1.081542 S    
C161  C162  1.403795 A    
C41   C81   1.416175 A    
C135  C139  1.388811 A    
O48   C23   1.281692 A    
C130  C142  1.387788 A    
Zn13  O29   1.937425 S    
C182  H99   1.110830 S    
C132  C144  1.387241 A    
C101  C125  1.415074 A    
Zn16  O35   1.938628 S    
C77   C93   1.412749 A    
C70   C78   1.416642 A    
C187  H112  1.110923 S    
C82   C114  1.413478 A    
Zn7   O10   1.939136 S    
C123  H71   1.082334 S    
O33   C16   1.278172 A    
C25   C37   1.551402 S    
C86   C118  1.418150 A    
C78   C82   1.413142 A    
O40   C20   1.269758 A    
C185  H107  1.110776 S    
C52   C64   1.387374 A    
H20   C176  1.082085 S    
C1    C91   1.451360 S    
C156  Cl4   1.767732 S    
C102  C106  1.412961 A    
C80   C96   1.415908 A    
Zn5   O17   1.935740 S    
H33   C141  1.082163 S    
H31   C139  1.082671 S    
C65   H61   1.081106 S    
C57   C65   1.392804 A    
C53   H49   1.082673 S    
C25   C27   1.546176 S    
C129  H81   1.082603 S    
C103  C107  1.411342 A    
C67   C75   1.416615 A    
C61   H57   1.082440 S    
C65   C73   1.418766 A    
C27   H3    1.112980 S    
C32   H8    1.112981 S    
Zn8   O3    1.952437 S    
C21   C37   1.490139 S    
C186  H111  1.109860 S    
O38   C18   1.298797 A    
C145  H85   1.082291 S    
H22   C34   1.113122 S    
O5    C1    1.275206 A    
C47   C55   1.393685 A    
O32   C9    1.276765 A    
C155  C164  1.438527 A    
C151  H91   1.082473 S    
H25   C35   1.113157 S    
C181  H98   1.111956 S    
C52   H48   1.081846 S    
H26   C36   1.112965 S    
C36   C40   1.551398 S    
Zn15  O51   1.941377 S    
C111  C151  1.416999 A    
Zn11  O28   1.935507 S    
C182  H101  1.110399 S    
C121  H69   1.081038 S    
H23   C34   1.112971 S    
C42   H38   1.082375 S    
C29   C39   1.555384 S    
H28   C35   1.112973 S    
C17   C166  1.474900 S    
O8    C4    1.285247 A    
C181  C182  1.521305 S    
C63   C71   1.392823 A    
C33   C34   1.546160 S    
C64   C72   1.392305 A    
C49   C61   1.389963 A    
O50   C18   1.265457 A    
O37   C17   1.268494 A    
C153  C157  1.396373 A    
C107  C115  1.414173 A    
C100  C112  1.410366 A    
Zn1   O1    1.946134 S    
C122  C130  1.392535 A    
C133  C137  1.389929 A    
Zn2   O14   1.936057 S    
C15   C119  1.450461 S    
C58   H54   1.082581 S    
C48   H44   1.081157 S    
C162  C166  1.416027 A    
C171  C175  1.421188 A    
H29   C137  1.082619 S    
O9    C5    1.278765 A    
C43   H39   1.081625 S    
O36   C13   1.278967 A    
C60   C68   1.392973 A    
O13   C9    1.278455 A    
Zn1   O8    1.936014 S    
C184  H105  1.111183 S    
C183  H102  1.114698 S    
Zn2   O7    1.935695 S    
C169  C173  1.420854 A    
Zn3   O6    1.939136 S    
O18   C14   1.285030 A    
O31   C10   1.273228 A    
C106  C146  1.416471 A    
C25   H9    1.113077 S    
C110  C150  1.418507 A    
C70   H66   1.082489 S    
C93   C101  1.413237 A    
C32   H16   1.113117 S    
C153  C162  1.420528 A    
O54   C183  1.411812 S    
C98   C122  1.417702 A    
C59   H55   1.082468 S    
Zn15  O3    1.956203 S    
C74   C90   1.420013 A    
Zn11  O3    1.941611 S    
C178  O53   1.384394 S    
O41   C21   1.280234 A    
C56   C60   1.388638 A    
C66   H62   1.080176 S    
Zn16  O34   1.935760 S    
C188  H115  1.110420 S    
C31   H15   1.113593 S    
C74   C86   1.408704 A    
C3    C89   1.451390 S    
Zn2   O2    1.946132 S    
C90   C98   1.417194 A    
Zn8   O20   1.939181 S    
C179  O56   1.384382 S    
O10   C6    1.279235 A    
C109  C117  1.415365 A    
C166  C170  1.403134 A    
C108  C148  1.419316 A    
C59   C67   1.393620 A    
C135  H79   1.082622 S    
C47   H43   1.082327 S    
C68   C76   1.417938 A    
C84   C116  1.416060 A    
C69   C77   1.416326 A    
C112  C152  1.414411 A    
C155  Cl3   1.760350 S    
Zn8   O9    1.929953 S    
C24   C40   1.490089 S    
C131  H83   1.082516 S    
C132  H84   1.082640 S    
H18   C174  1.082065 S    
C133  H77   1.082651 S    
C7    C93   1.452576 S    
C154  Cl2   1.767012 S    
C56   H52   1.082639 S    
C138  C146  1.393710 A    
O7    C3    1.278876 A    
C88   C120  1.415205 A    
C95   C103  1.414901 A    
C16   C120  1.459971 S    
O19   C15   1.274799 A    
Zn13  O49   1.941377 S    
C142  C150  1.393165 A    
C43   C83   1.419783 A    
C26   H10   1.113610 S    
C27   C38   1.550702 S    
Zn6   O18   1.936057 S    
Zn10  O23   1.937174 S    
C49   H45   1.082436 S    
C171  C172  1.398591 A    
C79   C83   1.408163 A    
C174  C178  1.399273 A    
C179  C180  1.390953 A    
C58   C66   1.393117 A    
C164  C168  1.428281 A    
C180  O55   1.382790 S    
C130  H82   1.082546 S    
Zn15  O36   1.930794 S    
O15   C11   1.275195 A    
O42   C22   1.276809 A    
C97   C109  1.410935 A    
C28   C37   1.553722 S    
C157  H93   1.082837 S    
C46   H42   1.080822 S    
Zn4   O1    1.952437 S    
C30   C32   1.545968 S    
Zn1   O44   1.946701 S    
Zn9   O37   1.948811 S    
C35   C36   1.546254 S    
O12   C8    1.273020 A    
C53   C57   1.388108 A    
Zn11  O39   1.948811 S    
C146  H86   1.082367 S    
C46   C54   1.392775 A    
C60   H56   1.082623 S    
H21   C33   1.112983 S    
C187  H113  1.117405 S    
Zn5   O3    1.946134 S    
Zn13  O1    1.956203 S    
Zn6   O4    1.946132 S    
C155  C159  1.388876 A    
C54   H50   1.082542 S    
C156  C160  1.388909 A    
C121  C129  1.392460 A    
C139  C147  1.393141 A    
C8    C94   1.454149 S    
C10   C114  1.454457 S    
C136  H80   1.082170 S    
C185  H108  1.117819 S    
H35   C143  1.081967 S    
H24   C33   1.113070 S    
Zn9   O24   1.935507 S    
O28   C5    1.274702 A    
C187  C188  1.520805 S    
C159  C160  1.375062 A    
Zn3   O42   1.943541 S    
C23   C39   1.490467 S    
Zn7   O4    1.952438 S    
O21   C4    1.280458 A    
C50   C62   1.389900 A    
C44   C52   1.392537 A    
C45   C53   1.392633 A    
C105  C145  1.417021 A    
C185  C186  1.520953 S    
C143  C151  1.393421 A    
C48   C56   1.392950 A    
C102  C126  1.416419 A    
C169  C170  1.406277 A    
Zn14  O2    1.941310 S    
C78   C94   1.413258 A    
C176  C180  1.400636 A    
C83   C115  1.410664 A    
O44   C21   1.277995 A    
C28   H12   1.113501 S    
C152  H92   1.072109 S    
C81   C113  1.413012 A    
Zn12  O27   1.937174 S    
C35   C39   1.550722 S    
C186  H110  1.110426 S    
C85   C117  1.415068 A    
O16   C12   1.280443 A    
C61   C69   1.393606 A    
C30   C40   1.551227 S    
Zn3   O2    1.952438 S    
C127  C135  1.393300 A    
H27   C36   1.113098 S    
C26   C38   1.555165 S    
C156  C163  1.441507 A    
O46   C24   1.280382 A    
O47   C24   1.277824 A    
Zn16  O52   1.948854 S    
C100  C124  1.419607 A    
H30   C138  1.082459 S    
C104  C108  1.412464 A    
Zn8   O45   1.943535 S    
C41   C49   1.393744 A    
O27   C6    1.280938 A    
C47   C87   1.416527 A    
C182  H100  1.111104 S    
O39   C19   1.272698 A    
C67   H63   1.082280 S    
C131  C143  1.390084 A    
C29   C31   1.535727 S    
C148  H88   1.080633 S    
C73   C85   1.411069 A    
O24   C1    1.275509 A    
C149  H89   1.080600 S    
C76   C88   1.412999 A    
C77   C81   1.411944 A    
C79   C95   1.417193 A    
C80   C84   1.412494 A    
O43   C22   1.281539 A    
O14   C10   1.273130 A    
Zn4   O41   1.943535 S    
Zn3   O15   1.929994 S    
C127  H75   1.081355 S    
C128  H76   1.080284 S    
Zn5   O12   1.936014 S    
C154  C161  1.422477 A    
Zn6   O11   1.935695 S    
C101  C105  1.411185 A    
Zn9   O21   1.938377 S    
Zn14  O50   1.948854 S    
C124  H72   1.081327 S    
C125  H73   1.079795 S    
O35   C14   1.280728 A    
Zn12  O40   1.941336 S    
C19   C168  1.436673 S    
C134  H78   1.082599 S    
Zn9   O1    1.941611 S    
C183  H103  1.113527 S    
H36   C144  1.082557 S    
O52   C20   1.270197 A    
C55   C59   1.389950 A    
C126  C134  1.393729 A    
C18   C165  1.477152 S    
C29   H13   1.113591 S    
O56   C187  1.414137 S    
O22   C3    1.277226 A    
C140  C148  1.392340 A    
Zn7   O19   1.929994 S    
C172  C176  1.420959 A    
C50   H46   1.082595 S    
C111  C119  1.412716 A    
C12   C116  1.455952 S    
Zn13  O32   1.930794 S    
C144  C152  1.392654 A    
C2    C92   1.452208 S    
O49   C17   1.293093 A    
Zn14  O31   1.938628 S    
C183  C184  1.520342 S    
C123  C131  1.394102 A    
O55   C185  1.414304 S    
C134  C138  1.390113 A    
O51   C19   1.269562 A    
C106  C114  1.413226 A    
C126  H74   1.082377 S    
C27   H11   1.113156 S    
C188  H114  1.110631 S    
C175  C179  1.401044 A    
Zn4   O5    1.929953 S    
C103  C127  1.418029 A    
C181  H97   1.115113 S    
O20   C16   1.283941 A    
C161  C165  1.413890 A    
C5    C95   1.455854 S    
C122  H70   1.080941 S    
O23   C2    1.277440 A    
O6    C2    1.280641 A    
Zn11  O25   1.938377 S    
C157  C158  1.391204 A    
Zn10  O38   1.941336 S    
C124  C132  1.392114 A    
C54   C58   1.387763 A    
C68   H64   1.081269 S    
C69   H65   1.082251 S    
C170  C174  1.414133 A    
C128  C136  1.392001 A    
C107  C147  1.417537 A    
O53   C181  1.413266 S    
O17   C13   1.277203 A    
C160  H96   1.083793 S    
C51   H47   1.082643 S    
O45   C23   1.276683 A    
