data_mof_unit_46311.cif
_audit_creation_date              2012-12-10T17:26:13-0500
_audit_creation_method            fapswitch 2.2
_symmetry_space_group_name_H-M    P1
_symmetry_Int_Tables_number       1
_space_group_crystal_system       triclinic
_cell_length_a                    10.174938
_cell_length_b                    10.390334
_cell_length_c                    27.091421
_cell_angle_alpha                 91.063742
_cell_angle_beta                  82.582656
_cell_angle_gamma                 95.379751
_cell_volume                      2827.59451957

loop_
_atom_site_label
_atom_site_type_symbol
_atom_type_description
_atom_site_fract_x
_atom_site_fract_y
_atom_site_fract_z
_atom_type_partial_charge
C1    C     C_R   0.555473 0.735576 0.495657 0.863937
C2    C     C_R   0.573762 0.726144 0.127724 -0.035800
C3    C     C_R   0.511337 0.530216 0.646236 -0.110998
C4    C     C_R   0.497305 0.520900 0.352141 -0.108382
C5    C     C_R   0.575880 0.768607 0.025347 0.034022
C6    C     C_R   0.354166 0.676531 0.977724 0.031472
C7    C     C_R   0.354179 0.650587 0.028882 0.025752
C8    C     C_R   0.589898 0.758538 0.972672 0.028100
C9    C     C_R   0.464659 0.698586 0.052715 0.026465
C10   C     C_R   0.477983 0.713994 0.949028 0.027905
C11   C     C_R   0.671528 0.838604 0.051936 0.175585
C12   C     C_R   0.444196 0.264486 0.501701 0.922380
C13   C     C_R   0.238211 0.657680 0.953238 0.187491
C14   C     C_R   0.671654 0.813111 0.102384 -0.206700
C15   C     C_R   0.252284 0.644497 0.901528 -0.205709
C16   C     C_R   0.501842 0.501748 0.594068 0.947348
C17   C     C_R   0.498732 0.501400 0.405602 0.868705
C18   C     C_R   0.714623 0.780040 0.943417 -0.255552
C19   C     C_R   0.253692 0.567160 0.055400 -0.245754
C20   C     C_2   0.584543 0.873856 0.486053 -0.224408
C21   C     C_2   0.412798 0.125598 0.495636 -0.259011
C22   C     C_2   0.501456 0.928272 0.459366 -0.164270
C23   C     C_R   0.491113 0.699493 0.896707 -0.098977
C24   C     C_2   0.491797 0.066987 0.459953 -0.156772
C25   C     C_2   0.924990 0.489850 0.511008 -0.074079
C26   C     C_2   0.069935 0.474209 0.500242 -0.049951
C27   C     C_R   0.627323 0.691354 0.816471 0.606935
C28   C     C_R   0.373964 0.560637 0.179826 0.587648
C29   C     C_R   0.393896 0.628959 0.822768 0.527593
C30   C     C_R   0.579301 0.693586 0.177200 0.549064
C31   C     C_R   0.553638 0.476800 0.729591 -0.042361
C32   C     C_R   0.579084 0.489665 0.264136 -0.053512
C33   C     C_R   0.548391 0.439965 0.679063 -0.129728
C34   C     C_R   0.466752 0.672094 0.103568 -0.096962
C35   C     C_R   0.583104 0.461624 0.314960 -0.119669
C36   C     C_R   0.488726 0.655804 0.662146 -0.187724
C37   C     C_R   0.409852 0.606570 0.338633 -0.159211
C38   C     C_R   0.500009 0.693296 0.710658 -0.072791
C39   C     C_R   0.406663 0.634664 0.289276 -0.094186
C40   C     C_R   0.529878 0.604851 0.744615 0.220869
C41   C     C_R   0.489790 0.577304 0.252082 0.231261
C42   C     C_2   0.303251 0.056140 0.529731 0.968451
C43   C     C_2   0.693148 0.949347 0.508972 0.959248
C44   C     C_2   0.111089 0.364848 0.468355 0.984143
C45   C     C_R   0.617353 0.721078 0.867834 -0.059346
C46   C     C_2   0.876988 0.548485 0.559096 0.980085
C47   C     C_3   0.891101 0.920636 0.848955 -0.628929
C48   C     C_3   0.184243 0.311484 0.121587 -0.650024
C49   C     C_2   0.668413 0.364323 0.329132 0.975333
C50   C     C_2   0.581630 0.309624 0.660421 0.993224
C51   C     C_2   0.662954 0.425662 0.223465 0.939001
C52   C     C_2   0.572809 0.380861 0.767505 0.967769
C53   C     C_3   0.700014 0.053465 0.016849 -0.754899
C54   C     C_3   0.074891 0.779893 0.001684 -0.791882
C55   C     C_R   0.364241 0.588884 0.129811 -0.056574
C56   C     C_R   0.729275 0.764221 0.891754 0.218413
C57   C     C_R   0.257824 0.535104 0.104908 0.215765
C58   C     C_R   0.378248 0.657683 0.873562 -0.036843
H1    H     H_    0.463124 0.725744 0.636587 0.163474
H2    H     H_    0.175890 0.516295 0.037108 0.177344
H3    H     H_    0.566731 0.123731 0.435027 0.238130
H4    H     H_    0.425340 0.868814 0.442432 0.202687
H5    H     H_    0.177742 0.895348 0.544657 0.355296
H6    H     H_    0.822866 0.108972 0.507916 0.378001
H7    H     H_    0.112903 0.171578 0.461068 0.344577
H8    H     H_    0.798545 0.699065 0.595836 0.359432
H9    H     H_    0.932806 0.754622 0.882324 0.217179
H10   H     H_    0.989676 0.929873 0.825712 0.253056
H11   H     H_    0.895502 0.985693 0.881871 0.206298
H12   H     H_    0.344899 0.654468 0.366532 0.175706
H13   H     H_    0.815648 0.950720 0.826360 0.260443
H14   H     H_    0.062237 0.459179 0.120112 0.235577
H15   H     H_    0.104838 0.248251 0.143679 0.251265
H16   H     H_    0.280979 0.296452 0.134493 0.267265
H17   H     H_    0.187533 0.283398 0.081681 0.195441
H18   H     H_    0.852165 0.323283 0.340095 0.356764
H19   H     H_    0.539292 0.155867 0.616626 0.352461
H20   H     H_    0.676817 0.344319 0.154952 0.340138
H21   H     H_    0.660902 0.340992 0.827318 0.344436
H22   H     H_    0.843879 0.964827 0.047800 0.224756
H23   H     H_    0.124469 0.627681 0.541295 0.181044
H24   H     H_    0.777094 0.125077 0.997904 0.236248
H25   H     H_    0.651141 0.098620 0.051070 0.244857
H26   H     H_    0.625151 0.027177 0.991093 0.254648
H27   H     H_    0.032659 0.613850 0.960913 0.222080
H28   H     H_    0.975451 0.767150 0.024199 0.240532
H29   H     H_    0.072395 0.851920 0.972072 0.239248
H30   H     H_    0.148479 0.816554 0.026699 0.260292
H31   H     H_    0.881742 0.410700 0.446544 0.190034
H32   H     H_    0.479909 0.790334 0.722657 0.162070
H33   H     H_    0.339174 0.702099 0.279658 0.158791
H34   H     H_    0.748279 0.862904 0.121860 0.191000
H35   H     H_    0.163911 0.623209 0.883298 0.188019
H36   H     H_    0.804631 0.802017 0.960235 0.177182
N1    N     N_R   0.517364 0.641969 0.795956 -0.358588
N2    N     N_R   0.481873 0.610174 0.201580 -0.344652
N3    N     N_2   0.842700 0.448890 0.480020 -0.212450
N4    N     N_2   0.157300 0.551110 0.519980 -0.210899
N5    N     N_2   0.858606 0.787986 0.864735 -0.249388
N6    N     N_2   0.155956 0.445025 0.128445 -0.238462
N7    N     N_2   0.761824 0.940822 0.029610 -0.329913
N8    N     N_2   0.107412 0.657160 0.979632 -0.322745
O1    O     O_R   0.431060 0.692470 0.504020 -0.597842
O2    O     O_2   0.277436 0.484179 0.206811 -0.491500
O3    O     O_2   0.681265 0.744326 0.200874 -0.540966
O4    O     O_2   0.286992 0.585818 0.800305 -0.524185
O5    O     O_2   0.256010 0.110118 0.567526 -0.543813
O6    O     O_R   0.252051 0.930896 0.518539 -0.793632
O7    O     O_2   0.731903 0.908234 0.545978 -0.590901
O8    O     O_R   0.751549 0.066795 0.488426 -0.780228
O9    O     O_2   0.160953 0.383619 0.425327 -0.611747
O10   O     O_R   0.083096 0.239024 0.486563 -0.778808
O11   O     O_2   0.887805 0.493839 0.597755 -0.584848
O12   O     O_R   0.568940 0.307530 0.495980 -0.580853
O13   O     O_R   0.826554 0.668888 0.560554 -0.742316
O14   O     O_2   0.618504 0.256670 0.342087 -0.636077
O15   O     O_R   0.804829 0.397196 0.328977 -0.722789
O16   O     O_2   0.676367 0.261732 0.673828 -0.548602
O17   O     O_R   0.505685 0.242370 0.627083 -0.788273
O18   O     O_2   0.778370 0.409125 0.227638 -0.563840
O19   O     O_R   0.610035 0.385318 0.179992 -0.814834
O20   O     O_2   0.513614 0.272820 0.767577 -0.597230
O21   O     O_R   0.657242 0.414151 0.803431 -0.775575
O22   O     O_R   0.651120 0.659650 0.491200 -0.551053
O23   O     O_R   0.348880 0.340350 0.508800 -0.569584
O24   O     O_R   0.389980 0.516390 0.577660 -0.577974
O25   O     O_R   0.610020 0.483610 0.422340 -0.607439
O26   O     O_R   0.610040 0.483570 0.564830 -0.600868
O27   O     O_R   0.389960 0.516430 0.435170 -0.585695
O28   O     O_2   0.745425 0.707638 0.787305 -0.479246
Zn1   Zn    Zn3+2 0.353060 0.521910 0.508560 1.036250
Zn2   Zn    Zn3+2 0.646940 0.478090 0.491440 1.032834

loop_
_geom_bond_atom_site_label_1
_geom_bond_atom_site_label_2
_ccdc_geom_bond_type
C23   C58   A    
C38   C40   A    
C24   H3    S    
C23   C45   A    
C27   N1    A    
C31   C52   S    
C36   H1    S    
C26   C44   S    
C39   C41   A    
C19   C57   A    
C46   O13   S    
C53   H26   S    
C3    C36   A    
C5    C11   A    
C54   H29   S    
C11   C14   A    
C41   N2    S    
H23   N4    S    
C3    C33   A    
C47   N5    S    
C31   C40   A    
O22   Zn2   S    
H20   O19   S    
O23   Zn1   S    
O25   Zn2   S    
C47   H11   S    
C30   N2    A    
C52   O20   D    
C49   O15   S    
C45   C56   A    
C53   N7    S    
N4    Zn1   S    
C35   C49   S    
C32   C41   A    
C31   C33   A    
C43   O8    S    
C42   O5    D    
C1    O1    A    
H9    N5    S    
C2    C34   A    
C4    C35   A    
C34   C55   A    
C37   H12   S    
C48   H17   S    
C16   O24   A    
O26   Zn2   S    
C39   H33   S    
C28   C55   A    
C12   O12   A    
C48   N6    S    
H8    O13   S    
C17   O27   A    
C50   O17   S    
C32   C35   A    
C48   H16   S    
C29   N1    A    
C17   O25   A    
C12   O23   A    
C25   C26   S    
C57   N6    S    
H21   O21   S    
C12   C21   S    
C8    C18   A    
H31   N3    S    
C53   H24   S    
H7    O10   S    
C5    C9    A    
C22   H4    S    
C28   O2    S    
H6    O8    S    
C14   H34   S    
C51   O18   D    
H5    O6    S    
C11   N7    S    
C4    C37   A    
C16   O26   A    
C47   H13   S    
C26   N4    D    
C4    C17   S    
C44   O10   S    
C25   N3    D    
C20   C22   D    
C7    C19   A    
C13   C15   A    
C30   O3    S    
C9    C34   A    
C51   O19   S    
C15   C58   A    
C22   C24   S    
C29   O4    S    
C2    C30   A    
C40   N1    S    
C47   H10   S    
C20   C43   S    
C54   H28   S    
H14   N6    S    
C32   C51   S    
C7    C9    A    
C1    C20   S    
C46   O11   D    
C50   O16   D    
O12   Zn2   S    
C48   H15   S    
C54   N8    S    
N3    Zn2   S    
H19   O17   S    
C15   H35   S    
C5    C8    A    
C6    C7    A    
C18   C56   A    
C10   C23   A    
C38   H32   S    
H18   O15   S    
C53   H25   S    
H22   N7    S    
C28   N2    A    
C55   C57   A    
C33   C50   S    
C1    O22   A    
C37   C39   A    
C6    C13   A    
C54   H30   S    
C27   C45   A    
O1    Zn1   S    
O24   Zn1   S    
C18   H36   S    
C36   C38   A    
C52   O21   S    
C2    C14   A    
C6    C10   A    
C3    C16   S    
C21   C42   S    
C44   O9    D    
C49   O14   D    
C29   C58   A    
C8    C10   A    
C21   C24   D    
C27   O28   S    
C19   H2    S    
C43   O7    D    
C56   N5    S    
C13   N8    S    
C42   O6    S    
C25   C46   S    
H27   N8    S    
O27   Zn1   S    
