data_mof_unit_38740.cif
_audit_creation_date              2012-12-10T17:00:39-0500
_audit_creation_method            fapswitch 2.2
_symmetry_space_group_name_H-M    P1
_symmetry_Int_Tables_number       1
_space_group_crystal_system       triclinic
_cell_length_a                    27.745119
_cell_length_b                    10.892962
_cell_length_c                    9.702367
_cell_angle_alpha                 90.464455
_cell_angle_beta                  89.82921
_cell_angle_gamma                 90.577425
_cell_volume                      2932.05510983

loop_
_atom_site_label
_atom_site_type_symbol
_atom_type_description
_atom_site_fract_x
_atom_site_fract_y
_atom_site_fract_z
_atom_type_partial_charge
C1    C     C_R   0.501790 0.265303 0.499065 0.827454
C2    C     C_R   0.280272 0.488642 0.363284 -0.113032
C3    C     C_R   0.253045 0.505756 0.483427 0.350141
C4    C     C_R   0.101530 0.510099 0.454355 -0.075424
C5    C     C_R   0.127075 0.403425 0.420774 -0.033486
C6    C     C_R   0.102326 0.302012 0.366203 -0.199291
C7    C     C_R   0.126946 0.620826 0.481622 -0.058139
C8    C     C_R   0.354224 0.501527 0.496293 -0.041723
C9    C     C_R   0.645107 0.488043 0.499980 -0.062897
C10   C     C_R   0.974655 0.391525 0.443408 0.049228
C11   C     C_R   0.975139 0.606201 0.527879 0.033001
C12   C     C_R   0.407387 0.500398 0.499750 0.801742
C13   C     C_R   0.949642 0.498055 0.488049 0.033238
C14   C     C_R   0.948469 0.280183 0.436422 -0.205884
C15   C     C_R   0.898410 0.278172 0.439322 -0.160098
C16   C     C_R   0.873012 0.386159 0.464315 -0.008772
C17   C     C_R   0.898639 0.494484 0.497430 -0.053049
C18   C     C_R   0.873237 0.598279 0.542111 -0.049572
C19   C     C_R   0.822564 0.595154 0.542340 0.548726
C20   C     C_R   0.822468 0.387051 0.464121 0.533670
C21   C     C_R   0.720839 0.407252 0.583487 -0.109292
C22   C     C_R   0.670295 0.402348 0.581837 0.115549
C23   C     C_R   0.501528 0.734810 0.500817 0.878507
C24   C     C_R   0.671009 0.570031 0.416258 -0.252671
C25   C     C_R   0.721199 0.570807 0.416140 -0.104796
C26   C     C_R   0.746369 0.490266 0.500664 0.304940
C27   C     C_R   0.025273 0.397075 0.420093 0.034141
C28   C     C_R   0.050530 0.506000 0.459384 0.026584
C29   C     C_R   0.025353 0.612496 0.500292 0.002825
C30   C     C_R   0.052131 0.302932 0.350729 0.132285
C31   C     C_R   0.100617 0.732109 0.482221 0.161384
C32   C     C_R   0.949262 0.699476 0.601765 0.128961
C33   C     C_R   0.898736 0.698878 0.595965 -0.197672
C34   C     C_R   0.592318 0.495018 0.499928 0.786146
C35   C     C_R   0.050289 0.725200 0.494740 -0.193331
C36   C     C_2   0.513779 0.932166 0.390394 -0.149053
C37   C     C_2   0.508080 0.866686 0.505329 -0.371005
C38   C     C_2   0.523516 0.065164 0.396001 0.178352
C39   C     C_2   0.501906 0.132407 0.496249 -0.364765
C40   C     C_2   0.472719 0.427231 0.924906 0.211804
C41   C     C_2   0.483391 0.410714 0.076477 -0.079530
C42   C     C_R   0.177376 0.403865 0.431903 0.544455
C43   C     C_R   0.177312 0.614043 0.502955 0.520791
C44   C     C_R   0.276509 0.521304 0.610312 -0.089645
C45   C     C_R   0.326831 0.519915 0.616654 -0.227199
C46   C     C_R   0.330332 0.486026 0.369556 -0.208509
Cu1   Cu    Cu3+1 0.500010 0.500020 0.638630 0.924927
Cu2   Cu    Cu3+1 0.499990 0.499980 0.361370 0.934346
H1    H     H_    0.740599 0.634524 0.350664 0.155958
H2    H     H_    0.030190 0.808681 0.487153 0.148147
H3    H     H_    0.513221 0.887054 0.290162 0.171743
H4    H     H_    0.262513 0.477333 0.264675 0.143185
H5    H     H_    0.529801 0.535942 0.892473 0.184670
N1    N     N_R   0.201342 0.507388 0.475178 -0.460613
N2    N     N_R   0.798211 0.491250 0.501039 -0.460192
N3    N     N_2   0.499480 0.498660 0.846910 -0.313298
N4    N     N_2   0.499460 0.498630 0.153040 -0.301988
O1    O     O_R   0.500010 0.321960 0.617040 -0.593741
O2    O     O_2   0.797794 0.285002 0.425827 -0.547345
O3    O     O_2   0.201891 0.710410 0.556453 -0.561406
O4    O     O_2   0.797851 0.694523 0.585312 -0.544491
O5    O     O_R   0.499990 0.321920 0.382900 -0.581376
O6    O     O_R   0.430270 0.500040 0.617060 -0.597361
O7    O     O_R   0.430260 0.500000 0.382910 -0.568483
O8    O     O_R   0.500010 0.678080 0.617100 -0.569939
O9    O     O_R   0.499990 0.678040 0.382960 -0.578008
O10   O     O_R   0.569740 0.500000 0.617090 -0.585995
O11   O     O_R   0.569730 0.499960 0.382940 -0.570770
O12   O     O_2   0.202164 0.300994 0.401842 -0.545746
H6    H     H_    0.350268 0.471956 0.274687 0.159842
H7    H     H_    0.255759 0.534793 0.703813 0.148336
C47   C     C_3   0.123242 0.858096 0.456659 -0.331168
C48   C     C_3   0.101789 0.920685 0.330332 -0.889462
H8    H     H_    0.101240 0.856574 0.240684 0.265309
H9    H     H_    0.064731 0.953289 0.351519 0.237901
H10   H     H_    0.124226 0.001848 0.302858 0.252046
H11   H     H_    0.117973 0.917393 0.549088 0.208763
H12   H     H_    0.162213 0.853740 0.434905 0.261651
C49   C     C_3   0.971927 0.785018 0.709937 -0.401477
C50   C     C_3   0.999506 0.713965 0.819228 -0.790824
H13   H     H_    0.975888 0.642178 0.865321 0.252833
H14   H     H_    0.031957 0.670061 0.774705 0.256788
H15   H     H_    0.011436 0.777949 0.902338 0.235353
H16   H     H_    0.994816 0.858338 0.666197 0.187778
H17   H     H_    0.943418 0.836424 0.766056 0.199366
H18   H     H_    0.652261 0.634882 0.352026 0.158807
H19   H     H_    0.879067 0.773535 0.643659 0.182483
H20   H     H_    0.511644 0.909014 0.606522 0.155302
C51   C     C_3   0.555287 0.122071 0.284426 -0.352859
C52   C     C_3   0.596762 0.039160 0.239272 -0.856515
H21   H     H_    0.616853 0.006062 0.330351 0.262507
H22   H     H_    0.583087 0.959245 0.178858 0.245636
H23   H     H_    0.622027 0.091694 0.172523 0.251040
H24   H     H_    0.532783 0.143542 0.193396 0.199669
H25   H     H_    0.572312 0.208510 0.322628 0.215930
H26   H     H_    0.480314 0.089197 0.576013 0.135879
C53   C     C_3   0.427589 0.365371 0.866866 -0.304478
C54   C     C_3   0.401011 0.277020 0.963472 -0.942660
H27   H     H_    0.424354 0.198402 0.989807 0.253755
H28   H     H_    0.389129 0.325370 0.058762 0.261194
H29   H     H_    0.368406 0.240028 0.910818 0.263381
H30   H     H_    0.401800 0.438543 0.841714 0.209700
H31   H     H_    0.436022 0.312437 0.772753 0.242422
H32   H     H_    0.473227 0.325787 0.126367 0.173513
H33   H     H_    0.505330 0.581936 0.106135 0.194893
H34   H     H_    0.122627 0.225930 0.324184 0.176125
C55   C     C_3   0.645495 0.301088 0.663026 -0.432020
C56   C     C_3   0.655710 0.175143 0.599737 -0.801715
H35   H     H_    0.644423 0.173039 0.490084 0.258785
H36   H     H_    0.694662 0.153588 0.606145 0.269438
H37   H     H_    0.635100 0.103449 0.656235 0.242964
H38   H     H_    0.658481 0.303752 0.771276 0.208524
H39   H     H_    0.605920 0.310582 0.667083 0.229021
H40   H     H_    0.740650 0.344818 0.648115 0.152022
H41   H     H_    0.879780 0.190949 0.426597 0.185563
H42   H     H_    0.966102 0.192997 0.436370 0.141919
C57   C     C_3   0.031980 0.219505 0.236622 -0.405625
C58   C     C_3   0.005760 0.291976 0.125747 -0.786576
H43   H     H_    0.972237 0.333245 0.166641 0.260327
H44   H     H_    0.029596 0.366028 0.085342 0.250765
H45   H     H_    0.995827 0.229566 0.039095 0.235983
H46   H     H_    0.061890 0.171589 0.182594 0.201174
H47   H     H_    0.009388 0.143080 0.274506 0.186029
H48   H     H_    0.344097 0.534750 0.715106 0.147346

loop_
_geom_bond_atom_site_label_1
_geom_bond_atom_site_label_2
_ccdc_geom_bond_type
C10   C27   A    
N4    H33   S    
C21   C26   A    
C55   H38   S    
C37   H20   S    
C5    C42   A    
C26   N2    S    
C58   H44   S    
C53   C54   S    
Cu2   N4    S    
C2    C46   A    
C38   C51   S    
C28   C29   A    
C5    C6    A    
C23   O9    A    
C36   C37   D    
C20   N2    A    
Cu1   O6    S    
C49   H16   S    
C50   H13   S    
C3    N1    S    
C14   H42   S    
C9    C22   A    
Cu2   O7    S    
C22   C55   S    
C56   H35   S    
C44   H7    S    
C18   C19   A    
C48   H8    S    
C51   H24   S    
C58   H43   S    
C55   H39   S    
C47   H12   S    
C8    C45   A    
C52   H22   S    
C16   C17   A    
C40   N3    D    
C55   C56   S    
C7    C43   A    
C53   H30   S    
C16   C20   A    
C21   C22   A    
C1    O5    A    
C27   C30   A    
C48   H9    S    
C4    C7    A    
Cu1   O10   S    
C4    C28   A    
C25   H1    S    
C45   H48   S    
C3    C44   A    
C7    C31   A    
C24   C25   A    
C50   H14   S    
C10   C14   A    
C34   O11   A    
C40   C53   S    
C12   O6    A    
C4    C5    A    
C25   C26   A    
C23   C37   S    
C42   O12   S    
C58   H45   S    
C51   H25   S    
C57   H46   S    
C47   H11   S    
C21   H40   S    
C43   N1    A    
Cu2   O5    S    
Cu1   Cu2   S    
C8    C12   S    
C35   H2    S    
C17   C18   A    
C6    H34   S    
Cu2   O11   S    
C20   O2    S    
C53   H31   S    
C36   H3    S    
C2    H4    S    
C43   O3    S    
C31   C47   S    
C6    C30   A    
C11   C32   A    
C54   H28   S    
C9    C34   S    
C48   H10   S    
C15   H41   S    
C49   H17   S    
C44   C45   A    
C52   H23   S    
C50   H15   S    
H5    N3    S    
C19   N2    A    
C40   C41   S    
C47   C48   S    
C10   C13   A    
C34   O10   A    
C41   H32   S    
C9    C24   A    
C30   C57   S    
C54   H29   S    
C29   C35   A    
C56   H37   S    
C13   C17   A    
C32   C33   A    
C23   O8    A    
C36   C38   S    
C2    C3    A    
C57   H47   S    
C41   N4    D    
C1    O1    A    
C42   N1    A    
Cu1   O1    S    
C11   C13   A    
C52   H21   S    
C38   C39   D    
C19   O4    S    
C12   O7    A    
C56   H36   S    
C31   C35   A    
C33   H19   S    
C18   C33   A    
C8    C46   A    
C39   H26   S    
C46   H6    S    
C1    C39   S    
C49   C50   S    
C11   C29   A    
C54   H27   S    
C27   C28   A    
C14   C15   A    
Cu2   O9    S    
C51   C52   S    
C57   C58   S    
C24   H18   S    
Cu1   O8    S    
C15   C16   A    
Cu1   N3    S    
C32   C49   S    
