data_mof_unit_44760.cif
_audit_creation_date              2012-12-10T17:51:33-0500
_audit_creation_method            fapswitch 2.2
_symmetry_space_group_name_H-M    P1
_symmetry_Int_Tables_number       1
_space_group_crystal_system       triclinic
_cell_length_a                    9.902961
_cell_length_b                    10.688689
_cell_length_c                    16.803928
_cell_angle_alpha                 91.926679
_cell_angle_beta                  85.290199
_cell_angle_gamma                 88.867089
_cell_volume                      1771.22871377

loop_
_atom_site_label
_atom_site_type_symbol
_atom_type_description
_atom_site_fract_x
_atom_site_fract_y
_atom_site_fract_z
_atom_type_partial_charge
C1    C     C_R   0.498812 0.739438 0.492554 0.899947
C2    C     C_R   0.529184 0.529869 0.262394 -0.030087
C3    C     C_R   0.239767 0.900806 0.486621 0.579551
C4    C     C_R   0.480942 0.505324 0.653384 0.903348
C5    C     C_R   0.127945 0.959043 0.529910 -0.297864
C6    C     C_R   0.145461 0.061258 0.581374 -0.351546
C7    C     C_R   0.271896 0.116263 0.582114 0.613737
C8    C     C_R   0.382881 0.064118 0.532172 -0.157160
C9    C     C_R   0.372296 0.943871 0.498863 -0.103065
C10   C     C_R   0.494781 0.872886 0.483501 -0.171587
C11   C     C_R   0.619535 0.931721 0.477097 -0.292234
C12   C     C_R   0.345223 0.539992 0.786644 -0.034515
C13   C     C_R   0.625415 0.058586 0.490907 0.517125
C14   C     C_R   0.504710 0.126682 0.514585 -0.235995
C15   C     C_R   0.842833 0.666746 0.603982 -0.175684
C16   C     C_R   0.500995 0.260359 0.506370 0.958575
C17   C     C_R   0.904478 0.747088 0.656094 -0.231253
C18   C     C_R   0.044084 0.745267 0.656911 -0.219900
C19   C     C_R   0.122874 0.664178 0.604932 -0.112949
C20   C     C_R   0.063743 0.581352 0.551549 0.209878
C21   C     C_R   0.919175 0.581908 0.551291 0.165260
C22   C     C_R   0.936975 0.421609 0.450931 -0.122436
C23   C     C_R   0.418956 0.588945 0.146086 -0.175623
C24   C     C_R   0.080159 0.421708 0.450905 -0.106704
C25   C     C_R   0.518630 0.503340 0.347004 0.850148
C26   C     C_R   0.469557 0.540889 0.738768 -0.114647
C27   C     C_R   0.583803 0.592292 0.770243 -0.272946
C28   C     C_R   0.575463 0.645653 0.846237 -0.243648
C29   C     C_R   0.455454 0.639950 0.895618 0.073492
C30   C     C_R   0.340055 0.584843 0.866639 0.510287
C31   C     C_3   0.261016 0.838916 0.354436 -0.278158
C32   C     C_3   0.352883 0.176105 0.699588 -0.367008
C33   C     C_3   0.803333 0.128481 0.554413 -0.293075
C34   C     C_R   0.410847 0.549352 0.223815 -0.223572
C35   C     C_3   0.221434 0.467120 0.957086 -0.371660
C36   C     C_R   0.656185 0.549379 0.221933 -0.197307
C37   C     C_R   0.664335 0.588641 0.143812 -0.176455
C38   C     C_R   0.545992 0.609584 0.105616 0.208646
C39   C     C_2   0.456192 0.674200 0.980589 -0.197931
C40   C     C_2   0.559531 0.633389 0.020255 -0.263487
H1    H     H_    0.680208 0.595110 0.735478 0.185547
H2    H     H_    0.091954 0.808006 0.697414 0.156060
H3    H     H_    0.229519 0.669356 0.608126 0.193739
H4    H     H_    0.140953 0.357674 0.410849 0.143333
H5    H     H_    0.748994 0.535754 0.250762 0.158677
H6    H     H_    0.652352 0.597593 0.987642 0.161837
H7    H     H_    0.325451 0.598854 0.117785 0.130707
H8    H     H_    0.362561 0.709600 0.012124 0.183084
H9    H     H_    0.664792 0.688540 0.867242 0.165484
H10   H     H_    0.373313 0.832382 0.345326 0.162726
H11   H     H_    0.223847 0.934180 0.340585 0.148027
H12   H     H_    0.763177 0.601414 0.112804 0.130127
H13   H     H_    0.220715 0.771645 0.311106 0.184419
H14   H     H_    0.457087 0.139621 0.681001 0.149481
H15   H     H_    0.293263 0.103870 0.732285 0.162089
H16   H     H_    0.363190 0.256587 0.741751 0.191531
H17   H     H_    0.829197 0.035711 0.577810 0.145159
H18   H     H_    0.732995 0.181099 0.599310 0.158795
H19   H     H_    0.896645 0.183652 0.546350 0.199855
H20   H     H_    0.126118 0.463681 0.996462 0.197309
H21   H     H_    0.307051 0.462299 0.995774 0.174881
H22   H     H_    0.225692 0.383280 0.915951 0.156888
H23   H     H_    0.713804 0.879304 0.462913 0.193092
H24   H     H_    0.191593 0.416905 0.785638 0.200389
H25   H     H_    0.149478 0.564659 0.763352 0.214982
H26   H     H_    0.027752 0.922810 0.524559 0.200981
H27   H     H_    0.060876 0.099561 0.619881 0.169529
H28   H     H_    0.890060 0.357480 0.410940 0.173904
H29   H     H_    0.735294 0.673154 0.607514 0.204728
H30   H     H_    0.843315 0.810956 0.696185 0.150638
H31   H     H_    0.311545 0.535184 0.253811 0.161011
N1    N     N_R   0.857140 0.501200 0.500750 -0.123220
N2    N     N_R   0.142740 0.501280 0.500770 -0.105377
N3    N     N_3   0.224932 0.494709 0.754363 -0.401891
O1    O     O_R   0.385310 0.683220 0.500000 -0.593969
O2    O     O_3   0.286185 0.217615 0.633923 -0.579737
O3    O     O_3   0.749640 0.114624 0.479538 -0.594576
O4    O     O_3   0.220515 0.579378 0.915131 -0.626614
O5    O     O_R   0.614640 0.683250 0.500010 -0.653335
O6    O     O_R   0.371780 0.500010 0.615800 -0.585312
O7    O     O_R   0.601110 0.500030 0.615800 -0.656910
O8    O     O_R   0.385360 0.316750 0.499990 -0.588873
O9    O     O_R   0.614690 0.316780 0.500000 -0.579476
O10   O     O_R   0.398890 0.499970 0.384200 -0.615508
O11   O     O_R   0.628220 0.499990 0.384200 -0.620015
O12   O     O_3   0.214577 0.805347 0.432278 -0.588529
Zn1   Zn    Zn3+2 0.346870 0.499980 0.499990 0.992174
Zn2   Zn    Zn3+2 0.653130 0.500020 0.500010 0.940663

loop_
_geom_bond_atom_site_label_1
_geom_bond_atom_site_label_2
_ccdc_geom_bond_type
C33   H18   S    
C12   N3    S    
C19   C20   A    
O10   Zn1   S    
C7    C8    A    
C40   H6    S    
C26   C27   A    
C37   C38   A    
C36   C37   A    
C4    O6    A    
O6    Zn1   S    
C11   H23   S    
C18   H2    S    
C5    C6    A    
C24   N2    A    
O8    Zn1   S    
C18   C19   A    
C32   H14   S    
N2    Zn1   S    
C4    O7    A    
C8    C9    A    
C25   O10   A    
C33   H17   S    
C2    C25   S    
C9    C10   A    
C32   H15   S    
C2    C34   A    
O9    Zn2   S    
C17   H30   S    
C33   H19   S    
C31   O12   S    
C13   C14   A    
C3    O12   S    
C22   N1    A    
O5    Zn2   S    
N1    Zn2   S    
C19   H3    S    
C15   H29   S    
C13   O3    S    
C23   H7    S    
C21   N1    A    
C1    O1    A    
C39   C40   D    
C37   H12   S    
C16   O9    A    
H25   N3    S    
C12   C26   A    
C35   H20   S    
C29   C30   A    
C3    C9    A    
C28   H9    S    
C27   H1    S    
C23   C34   A    
C29   C39   S    
C25   O11   A    
C17   C18   A    
C36   H5    S    
C35   H21   S    
C31   H13   S    
C22   H28   S    
C7    O2    S    
O1    Zn1   S    
C6    H27   S    
C24   H4    S    
C14   C16   S    
C31   H10   S    
O11   Zn2   S    
C2    C36   A    
C15   C17   A    
C28   C29   A    
C8    C14   A    
C12   C30   A    
C1    C10   S    
C31   H11   S    
C5    H26   S    
C3    C5    A    
C32   O2    S    
C4    C26   S    
C6    C7    A    
C23   C38   A    
C35   O4    S    
C38   C40   S    
C11   C13   A    
C33   O3    S    
C1    O5    A    
C20   N2    A    
C35   H22   S    
C22   C24   A    
O7    Zn2   S    
C10   C11   A    
C30   O4    S    
C15   C21   A    
C20   C21   A    
C16   O8    A    
C27   C28   A    
H24   N3    S    
C34   H31   S    
C32   H16   S    
C39   H8    S    
