data_mof_unit_63529.cif
_audit_creation_date              2012-12-10T18:12:01-0500
_audit_creation_method            fapswitch 2.2
_symmetry_space_group_name_H-M    P1
_symmetry_Int_Tables_number       1
_space_group_crystal_system       triclinic
_cell_length_a                    28.533004
_cell_length_b                    18.3617
_cell_length_c                    18.353405
_cell_angle_alpha                 89.99592
_cell_angle_beta                  130.224696
_cell_angle_gamma                 89.965052
_cell_volume                      7341.68942162

loop_
_atom_site_label
_atom_site_type_symbol
_atom_type_description
_atom_site_fract_x
_atom_site_fract_y
_atom_site_fract_z
_atom_type_partial_charge
C1    C     C_R   0.499950 0.999982 0.360053 0.844415
C2    C     C_R   0.500027 0.999982 0.639924 0.842519
C3    C     C_R   0.999950 0.499982 0.360053 0.844416
C4    C     C_R   0.000028 0.499981 0.639924 0.842521
C5    C     C_R   0.814095 0.999252 0.812955 -0.144766
C6    C     C_R   0.185912 0.000112 0.187202 -0.106096
C7    C     C_R   0.314094 0.499252 0.812955 -0.144765
C8    C     C_R   0.685912 0.500112 0.187202 -0.106100
C9    C     C_R   0.781250 0.045373 0.732028 -0.046562
C10   C     C_R   0.218860 0.044824 0.269296 -0.070390
C11   C     C_R   0.281250 0.545375 0.732029 -0.046561
C12   C     C_R   0.718860 0.544821 0.269299 -0.070389
C13   C     C_R   0.716959 0.046996 0.670632 0.099539
C14   C     C_R   0.283146 0.046291 0.330497 0.098015
C15   C     C_R   0.216959 0.546997 0.670632 0.099541
C16   C     C_R   0.783146 0.546289 0.330500 0.098013
C17   C     C_R   0.685790 0.998915 0.685980 -0.118980
C18   C     C_R   0.314167 0.999197 0.313766 -0.091201
C19   C     C_R   0.185790 0.498915 0.685980 -0.118981
C20   C     C_R   0.814167 0.499198 0.313766 -0.091200
C21   C     C_R   0.718504 0.948036 0.761585 -0.020182
C22   C     C_R   0.281289 0.949714 0.236542 -0.061298
C23   C     C_R   0.218504 0.448035 0.761584 -0.020181
C24   C     C_R   0.781289 0.449716 0.236541 -0.061300
C25   C     C_R   0.825568 0.060804 0.650577 0.141366
C26   C     C_R   0.175153 0.057780 0.351919 0.142860
C27   C     C_R   0.325572 0.560818 0.650587 0.141371
C28   C     C_R   0.675153 0.557758 0.351924 0.142865
C29   C     C_R   0.854226 0.104573 0.626386 -0.026272
C30   C     C_R   0.146313 0.100348 0.376804 -0.026700
C31   C     C_R   0.354230 0.604594 0.626400 -0.026269
C32   C     C_R   0.646309 0.600315 0.376810 -0.026704
C33   C     C_R   0.868283 0.177962 0.656079 0.091080
C34   C     C_R   0.131047 0.173655 0.346985 0.092218
C35   C     C_R   0.368280 0.677984 0.656092 0.091080
C36   C     C_R   0.631039 0.673623 0.346997 0.092219
C37   C     C_R   0.853721 0.206914 0.710187 0.035034
C38   C     C_R   0.144618 0.203751 0.292090 0.037809
C39   C     C_R   0.353712 0.706930 0.710194 0.035026
C40   C     C_R   0.644608 0.703731 0.292105 0.037817
C41   C     C_R   0.827170 0.162747 0.737037 -0.300063
C42   C     C_R   0.171767 0.160898 0.265151 -0.300367
C43   C     C_R   0.327163 0.662756 0.737042 -0.300071
C44   C     C_R   0.671763 0.660888 0.265166 -0.300360
C45   C     C_R   0.618906 0.999772 0.619614 0.842119
C46   C     C_R   0.381083 0.999834 0.380190 0.848009
C47   C     C_R   0.118906 0.499771 0.619614 0.842119
C48   C     C_R   0.881082 0.499834 0.380190 0.848010
C49   C     C_R   0.812921 0.089935 0.707675 0.062469
C50   C     C_R   0.187228 0.088189 0.294671 0.059736
C51   C     C_R   0.312921 0.589943 0.707682 0.062466
C52   C     C_R   0.687228 0.588178 0.294681 0.059738
C53   C     C_1   0.500075 0.999934 0.282641 -0.157218
C54   C     C_1   0.499892 0.999948 0.717325 -0.157701
C55   C     C_1   0.000075 0.499934 0.282641 -0.157219
C56   C     C_1   0.999892 0.499948 0.717325 -0.157700
C57   C     C_1   0.500170 0.999924 0.217419 -0.140149
C58   C     C_1   0.499806 0.999963 0.782556 -0.138332
C59   C     C_1   0.000170 0.499924 0.217419 -0.140152
C60   C     C_1   0.999806 0.499963 0.782556 -0.138331
C61   C     C_R   0.000005 0.139945 0.000003 0.842233
C62   C     C_R   0.500005 0.639945 0.000002 0.842233
C63   C     C_R   0.881037 0.000226 0.880788 0.802582
C64   C     C_R   0.118958 0.000808 0.119268 0.847025
C65   C     C_R   0.381037 0.500226 0.880788 0.802584
C66   C     C_R   0.618958 0.500808 0.119268 0.847020
C67   C     C_R   0.999970 0.860117 0.999973 0.836541
C68   C     C_R   0.499970 0.360117 0.999973 0.836540
C69   C     C_R   0.499978 0.139680 0.999981 0.820853
C70   C     C_R   0.999978 0.639679 0.999981 0.820853
C71   C     C_R   0.500066 0.999961 0.139760 0.841194
C72   C     C_R   0.499930 0.999999 0.860236 0.841697
C73   C     C_R   0.000066 0.499961 0.139760 0.841189
C74   C     C_R   0.999930 0.499999 0.860236 0.841702
C75   C     C_R   0.500019 0.860311 0.000002 0.859823
C76   C     C_R   0.000019 0.360311 0.000003 0.859823
C77   C     C_1   0.000033 0.217471 0.000021 -0.163100
C78   C     C_1   0.500033 0.717471 0.000021 -0.163100
C79   C     C_R   0.647278 0.765168 0.738356 0.087788
C80   C     C_R   0.354299 0.768461 0.258640 0.093371
C81   C     C_R   0.147279 0.265168 0.738359 0.087784
C82   C     C_R   0.854301 0.268462 0.258644 0.093372
C83   C     C_1   0.500046 0.782771 0.000027 -0.141894
C84   C     C_1   0.000046 0.282771 0.000027 -0.141895
C85   C     C_1   0.999938 0.782565 0.999946 -0.164374
C86   C     C_1   0.499938 0.282565 0.999946 -0.164374
C87   C     C_1   0.499935 0.217246 0.999943 -0.151512
C88   C     C_1   0.999935 0.717245 0.999943 -0.151513
C89   C     C_R   0.677110 0.820851 0.729596 0.036639
C90   C     C_R   0.324557 0.823433 0.268656 0.022723
C91   C     C_R   0.177110 0.320850 0.729598 0.036641
C92   C     C_R   0.824557 0.323435 0.268656 0.022725
C93   C     C_R   0.686584 0.889651 0.771627 0.018753
C94   C     C_R   0.313330 0.892192 0.225470 -0.036682
C95   C     C_R   0.186585 0.389651 0.771627 0.018753
C96   C     C_R   0.813330 0.392193 0.225470 -0.036684
C97   C     C_R   0.666808 0.902054 0.823935 -0.059434
C98   C     C_R   0.331403 0.905269 0.170951 -0.071321
C99   C     C_R   0.166809 0.402055 0.823935 -0.059435
C100  C     C_R   0.831405 0.405269 0.170953 -0.071319
C101  C     C_R   0.638075 0.845601 0.834580 -0.075490
C102  C     C_R   0.359735 0.849374 0.158656 -0.072922
C103  C     C_R   0.138076 0.345602 0.834582 -0.075489
C104  C     C_R   0.859739 0.349373 0.158661 -0.072921
C105  C     C_R   0.627803 0.777447 0.791036 -0.050292
C106  C     C_R   0.371788 0.781311 0.203366 -0.050083
C107  C     C_R   0.127805 0.277448 0.791040 -0.050293
C108  C     C_R   0.871791 0.281311 0.203372 -0.050084
C109  C     C_R   0.782555 0.949711 0.826657 0.110545
C110  C     C_R   0.216961 0.952070 0.171458 0.111865
C111  C     C_R   0.282555 0.449710 0.826655 0.110546
C112  C     C_R   0.716961 0.452072 0.171456 0.111866
Cu1   Cu    Cu3+1 0.500000 0.927480 0.500000 0.977102
Cu2   Cu    Cu3+1 0.000000 0.427480 0.500000 0.977100
Cu3   Cu    Cu3+1 0.500000 0.072500 0.500000 1.013176
Cu4   Cu    Cu3+1 0.000000 0.572500 0.500000 1.013175
Cu5   Cu    Cu3+1 0.999980 0.000040 0.072510 0.988197
Cu6   Cu    Cu3+1 0.000020 0.000040 0.927490 1.008050
Cu7   Cu    Cu3+1 0.499980 0.500040 0.072510 0.988194
Cu8   Cu    Cu3+1 0.500020 0.500040 0.927490 1.008051
Cu9   Cu    Cu3+1 0.561800 0.999990 0.061810 1.029639
Cu10  Cu    Cu3+1 0.438200 0.999990 0.938190 1.032552
Cu11  Cu    Cu3+1 0.061800 0.499990 0.061810 1.029645
Cu12  Cu    Cu3+1 0.938200 0.499990 0.938190 1.032546
H1    H     H_    0.816046 0.185448 0.778799 0.159851
H2    H     H_    0.182139 0.184471 0.222807 0.159049
H3    H     H_    0.316034 0.685452 0.778800 0.159855
H4    H     H_    0.682132 0.684469 0.222823 0.159045
O1    O     O_R   0.500010 0.938760 0.394210 -0.582751
O2    O     O_R   0.499990 0.938760 0.605790 -0.584640
O3    O     O_R   0.000010 0.438760 0.394210 -0.582754
O4    O     O_R   0.999990 0.438760 0.605790 -0.584638
O5    O     O_R   0.552180 0.999990 0.157990 -0.573254
O6    O     O_R   0.447820 0.999990 0.842010 -0.573233
O7    O     O_R   0.052180 0.499990 0.157990 -0.573253
O8    O     O_R   0.947820 0.499990 0.842010 -0.573233
O9    O     O_R   0.447790 0.000000 0.053610 -0.565441
O10   O     O_R   0.552210 0.000000 0.946390 -0.566126
O11   O     O_R   0.947790 0.500000 0.053610 -0.565441
O12   O     O_R   0.052210 0.500000 0.946390 -0.566126
O13   O     O_R   0.552190 0.894190 0.052180 -0.560746
O14   O     O_R   0.447810 0.894190 0.947820 -0.559937
O15   O     O_R   0.052190 0.394190 0.052180 -0.560744
O16   O     O_R   0.947810 0.394190 0.947820 -0.559937
O17   O     O_R   0.499990 0.061230 0.394210 -0.575717
O18   O     O_R   0.500010 0.061230 0.605790 -0.575155
O19   O     O_R   0.999990 0.561230 0.394210 -0.575716
O20   O     O_R   0.000010 0.561230 0.605790 -0.575155
O21   O     O_R   0.590180 0.938760 0.590180 -0.603918
O22   O     O_R   0.409820 0.938760 0.409820 -0.597130
O23   O     O_R   0.090180 0.438760 0.590180 -0.603919
O24   O     O_R   0.909820 0.438760 0.409820 -0.597129
O25   O     O_R   0.590160 0.061230 0.590180 -0.554658
O26   O     O_R   0.409840 0.061230 0.409820 -0.558095
O27   O     O_R   0.090160 0.561230 0.590180 -0.554658
O28   O     O_R   0.909840 0.561230 0.409820 -0.558096
O29   O     O_R   0.999970 0.105830 0.061210 -0.571273
O30   O     O_R   0.000030 0.105830 0.938790 -0.574186
O31   O     O_R   0.499970 0.605830 0.061210 -0.571275
O32   O     O_R   0.500030 0.605830 0.938790 -0.574186
O33   O     O_R   0.909810 0.000030 0.971060 -0.588206
O34   O     O_R   0.090190 0.000030 0.028940 -0.551618
O35   O     O_R   0.409810 0.500030 0.971060 -0.588205
O36   O     O_R   0.590190 0.500030 0.028940 -0.551616
O37   O     O_R   0.909820 0.000000 0.848600 -0.591404
O38   O     O_R   0.090180 0.000000 0.151400 -0.601441
O39   O     O_R   0.409820 0.500000 0.848600 -0.591407
O40   O     O_R   0.590180 0.500000 0.151400 -0.601440
O41   O     O_R   0.000000 0.894230 0.061260 -0.585539
O42   O     O_R   0.000000 0.894230 0.938740 -0.574013
O43   O     O_R   0.500000 0.394230 0.061260 -0.585539
O44   O     O_R   0.500000 0.394230 0.938740 -0.574013
O45   O     O_R   0.552180 0.105790 0.052210 -0.582503
O46   O     O_R   0.447820 0.105790 0.947790 -0.581789
O47   O     O_R   0.052180 0.605790 0.052210 -0.582502
O48   O     O_R   0.947820 0.605790 0.947790 -0.581790
C113  C     C_1   0.597514 0.719609 0.800539 0.236417
N1    N     N_1   0.573340 0.673444 0.808175 -0.274676
C114  C     C_1   0.401855 0.724140 0.192376 0.233332
N2    N     N_1   0.425856 0.678519 0.183549 -0.274887
C115  C     C_1   0.097517 0.219610 0.800545 0.236421
N3    N     N_1   0.073342 0.173445 0.808183 -0.274676
C116  C     C_1   0.901861 0.224140 0.192387 0.233330
N4    N     N_1   0.925864 0.178519 0.183564 -0.274883
N5    N     N_3   0.896477 0.223872 0.630637 -0.574754
H5    H     H_    0.938365 0.200533 0.657558 0.238117
H6    H     H_    0.868077 0.225450 0.556242 0.244681
N6    N     N_3   0.102454 0.218277 0.372856 -0.574397
H7    H     H_    0.061054 0.193870 0.346502 0.237014
H8    H     H_    0.131121 0.219872 0.447285 0.243601
N7    N     N_3   0.396473 0.723901 0.630653 -0.574758
H9    H     H_    0.438363 0.700569 0.657579 0.238117
H10   H     H_    0.368075 0.725479 0.556259 0.244682
N8    N     N_3   0.602441 0.718233 0.372868 -0.574396
H11   H     H_    0.561037 0.693825 0.346496 0.237015
H12   H     H_    0.631102 0.719818 0.447297 0.243598
C117  C     C_1   0.863322 0.283115 0.734664 0.290261
N9    N     N_1   0.870581 0.344490 0.753155 -0.243333
C118  C     C_1   0.132918 0.279708 0.266227 0.290512
N10   N     N_1   0.123873 0.340865 0.246484 -0.247503
C119  C     C_1   0.363302 0.783132 0.734665 0.290258
N11   N     N_1   0.370551 0.844508 0.753150 -0.243318
C120  C     C_1   0.632895 0.779687 0.266237 0.290523
N12   N     N_1   0.623839 0.840843 0.246487 -0.247526
N13   N     N_3   0.637228 0.696091 0.693552 -0.578216
H13   H     H_    0.658850 0.655687 0.746157 0.240442
H14   H     H_    0.590060 0.685622 0.645739 0.228338
N14   N     N_3   0.366189 0.699469 0.304686 -0.577759
H15   H     H_    0.344397 0.658773 0.252532 0.237068
H16   H     H_    0.413492 0.689863 0.350958 0.228506
N15   N     N_3   0.137229 0.196091 0.693557 -0.578206
H17   H     H_    0.158852 0.155687 0.746163 0.240441
H18   H     H_    0.090061 0.185620 0.645745 0.228338
N16   N     N_3   0.866190 0.199471 0.304691 -0.577764
H19   H     H_    0.844400 0.158774 0.252539 0.237069
H20   H     H_    0.913494 0.189866 0.350966 0.228506
C121  C     C_1   0.697450 0.807300 0.676107 0.307641
N17   N     N_1   0.713764 0.796633 0.633434 -0.293842
C122  C     C_1   0.305951 0.809142 0.324387 0.299799
N18   N     N_1   0.291010 0.797892 0.368834 -0.293605
C123  C     C_1   0.197451 0.307298 0.676110 0.307648
N19   N     N_1   0.213766 0.296630 0.633438 -0.293857
C124  C     C_1   0.805950 0.309145 0.324385 0.299795
N20   N     N_1   0.791008 0.297895 0.368831 -0.293603
C125  C     C_1   0.676285 0.972666 0.866863 0.241724
N21   N     N_1   0.683798 0.029091 0.901018 -0.265329
C126  C     C_1   0.320490 0.975955 0.127309 0.235684
N22   N     N_1   0.311818 0.032437 0.092573 -0.260964
C127  C     C_1   0.176285 0.472667 0.866862 0.241722
N23   N     N_1   0.183799 0.529093 0.901016 -0.265330
C128  C     C_1   0.820492 0.475954 0.127309 0.235684
N24   N     N_1   0.811820 0.532436 0.092572 -0.260963
C129  C     C_1   0.620247 0.856750 0.891958 0.257474
N25   N     N_1   0.606204 0.865011 0.938082 -0.254509
C130  C     C_1   0.375025 0.860850 0.098012 0.252999
N26   N     N_1   0.386973 0.869318 0.049189 -0.249161
C131  C     C_1   0.120250 0.356752 0.891962 0.257475
N27   N     N_1   0.106207 0.365014 0.938087 -0.254504
C132  C     C_1   0.875029 0.360848 0.098019 0.252999
N28   N     N_1   0.886979 0.369315 0.049197 -0.249167
N29   N     N_3   0.814696 0.897543 0.903218 -0.575750
H21   H     H_    0.837933 0.924920 0.968081 0.254534
H22   H     H_    0.846110 0.869084 0.902403 0.216502
N30   N     N_3   0.182474 0.903190 0.091378 -0.564197
H23   H     H_    0.193149 0.849605 0.116581 0.219064
H24   H     H_    0.195353 0.911559 0.050089 0.238738
N31   N     N_3   0.314696 0.397541 0.903216 -0.575750
H25   H     H_    0.337933 0.424918 0.968080 0.254534
H26   H     H_    0.346110 0.369083 0.902400 0.216502
N32   N     N_3   0.682474 0.403194 0.091374 -0.564194
H27   H     H_    0.693149 0.349608 0.116575 0.219063
H28   H     H_    0.695354 0.411565 0.050085 0.238738
N33   N     N_3   0.682568 0.094964 0.589463 -0.562752
H29   H     H_    0.695731 0.148606 0.613524 0.237853
H30   H     H_    0.692823 0.082971 0.545446 0.218484
N34   N     N_3   0.317688 0.093165 0.412682 -0.564471
H31   H     H_    0.304377 0.147035 0.389780 0.238895
H32   H     H_    0.307663 0.079956 0.456699 0.219112
N35   N     N_3   0.182568 0.594965 0.589463 -0.562753
H33   H     H_    0.195729 0.648607 0.613524 0.237853
H34   H     H_    0.192824 0.582973 0.545449 0.218485
N36   N     N_3   0.817688 0.593160 0.412687 -0.564473
H35   H     H_    0.804376 0.647030 0.389788 0.238896
H36   H     H_    0.807663 0.579947 0.456704 0.219112
N37   N     N_3   0.808876 0.987292 0.615815 -0.575149
H37   H     H_    0.761454 0.981613 0.574572 0.224351
H38   H     H_    0.830489 0.951821 0.673888 0.245322
N38   N     N_3   0.192291 0.984041 0.385674 -0.574598
H39   H     H_    0.239706 0.978684 0.426510 0.225142
H40   H     H_    0.170653 0.949196 0.327029 0.244993
N39   N     N_3   0.308885 0.487307 0.615822 -0.575153
H41   H     H_    0.261462 0.481625 0.574574 0.224349
H42   H     H_    0.330498 0.451834 0.673892 0.245326
N40   N     N_3   0.692293 0.484016 0.385669 -0.574597
H43   H     H_    0.739708 0.478661 0.426505 0.225145
H44   H     H_    0.670656 0.449176 0.327019 0.244991
C133  C     C_1   0.868156 0.074430 0.569494 0.284112
N41   N     N_1   0.879315 0.050351 0.523949 -0.257491
C134  C     C_1   0.133226 0.068984 0.434231 0.282682
N42   N     N_1   0.122746 0.043926 0.480209 -0.258332
C135  C     C_1   0.368166 0.574458 0.569513 0.284117
N43   N     N_1   0.379330 0.550384 0.523972 -0.257488
C136  C     C_1   0.633222 0.568937 0.434231 0.282675
N44   N     N_1   0.622741 0.543870 0.480204 -0.258337

loop_
_geom_bond_atom_site_label_1
_geom_bond_atom_site_label_2
_ccdc_geom_bond_type
C104  C132  S    
C97   C125  S    
C120  N12   T    
C81   C107  A    
Cu10  O46   S    
C8    C66   S    
Cu2   Cu4   S    
C55   C59   T    
C68   C86   S    
Cu2   O3    S    
C14   C18   A    
Cu12  O11   S    
N8    H12   S    
C124  N20   T    
C24   C112  A    
Cu2   O24   S    
C44   H4    S    
C70   C88   S    
C76   C84   S    
C23   C95   S    
Cu11  Cu12  S    
C71   O9    A    
C71   O5    A    
C115  N3    T    
C67   O41   A    
C111  N31   S    
C15   C19   A    
Cu3   O18   S    
C79   C105  A    
C30   C134  S    
C123  N19   T    
Cu1   O1    S    
C107  C115  S    
C37   C41   A    
C3    O3    A    
C32   C36   A    
C72   O10   A    
C31   C135  S    
C132  N28   T    
C17   C45   S    
C38   C42   A    
C1    O1    A    
C8    C112  A    
C54   C58   T    
N33   H29   S    
C68   O43   A    
C19   C47   S    
N5    H6    S    
Cu6   O42   S    
N32   H28   S    
N39   H41   S    
C4    O20   A    
C80   C106  A    
C100  C104  A    
C131  N27   T    
C82   C92   A    
N30   H23   S    
C5    C63   S    
N6    H8    S    
N40   H43   S    
C119  N11   T    
C6    C64   S    
C9    C13   A    
Cu10  O6    S    
Cu4   O27   S    
C64   O38   A    
C75   O13   A    
C99   C127  S    
C82   N16   S    
C11   C15   A    
C78   C83   T    
Cu9   O45   S    
C12   C16   A    
C29   C33   A    
C61   C77   S    
N14   H15   S    
C22   C110  A    
N34   H32   S    
C110  N30   S    
C35   N7    S    
C130  N26   T    
C70   O48   A    
C82   C108  A    
C91   C123  S    
C32   C136  S    
N37   H37   S    
C59   C73   S    
N40   H44   S    
C69   C87   S    
C8    C12   A    
C16   N36   S    
C25   N37   S    
C44   C52   A    
N31   H26   S    
N8    H11   S    
C48   O28   A    
C118  N10   T    
C67   O42   A    
C34   C38   A    
C133  N41   T    
C4    C56   S    
C101  C105  A    
C22   C94   S    
C69   O45   A    
Cu2   O23   S    
C62   O31   A    
C18   C46   S    
C11   C51   S    
C41   C49   A    
C12   C52   S    
C92   C124  S    
C27   C51   A    
C90   C94   A    
C26   N38   S    
N13   H14   S    
C92   C96   A    
C25   C29   A    
C46   O26   A    
C67   C85   S    
Cu4   O28   S    
Cu1   O2    S    
C30   C34   A    
C27   C31   A    
N7    H9    S    
C7    C111  A    
Cu1   O21   S    
C28   C32   A    
C9    C49   S    
C45   O21   A    
C64   O34   A    
C99   C103  A    
C2    C54   S    
Cu7   O35   S    
C122  N18   T    
Cu4   O20   S    
Cu12  O8    S    
N16   H19   S    
Cu8   O44   S    
N36   H36   S    
C73   O11   A    
C77   C84   T    
Cu5   O33   S    
N32   H27   S    
C98   C102  A    
C74   O12   A    
Cu11  O12   S    
C81   N15   S    
C89   C93   A    
C33   C37   A    
C56   C60   T    
Cu11  O7    S    
N6    H7    S    
N29   H22   S    
C33   N5    S    
Cu9   O10   S    
C6    C110  A    
C19   C23   A    
C116  N4    T    
N7    H10   S    
N15   H17   S    
C5    C9    A    
C127  N23   T    
C73   O7    A    
C41   H1    S    
C4    O4    A    
C7    C65   S    
C105  C113  S    
C58   C72   S    
C97   C101  A    
C72   O6    A    
C126  N22   T    
C40   C120  S    
C109  N29   S    
Cu5   O38   S    
C16   C20   A    
C13   N33   S    
C1    C53   S    
C65   O35   A    
Cu9   O13   S    
Cu11  O15   S    
C125  N21   T    
Cu9   Cu10  S    
C66   O36   A    
Cu11  O47   S    
C57   C71   S    
C34   N6    S    
C103  C131  S    
N37   H38   S    
N16   H20   S    
C90   C122  S    
C20   C48   S    
C74   O8    A    
C42   C50   A    
C61   O29   A    
C76   O16   A    
N34   H31   S    
Cu7   O31   S    
N15   H18   S    
C47   O23   A    
C26   C30   A    
C37   C117  S    
C48   O24   A    
Cu3   O26   S    
C10   C14   A    
C62   O32   A    
Cu6   O30   S    
Cu7   O43   S    
C45   O25   A    
C1    O17   A    
Cu10  O14   S    
C42   H2    S    
C43   H3    S    
N35   H33   S    
C10   C50   S    
C93   C97   A    
C106  C114  S    
C104  C108  A    
C36   C40   A    
C15   N35   S    
C86   C87   T    
Cu8   O39   S    
N33   H30   S    
C98   C126  S    
C129  N25   T    
C85   C88   T    
N39   H42   S    
N13   H13   S    
Cu6   O34   S    
C53   C57   T    
C108  C116  S    
C46   O22   A    
C18   C22   A    
Cu2   O4    S    
Cu1   O22   S    
C62   C78   S    
C100  C128  S    
Cu12  O16   S    
Cu10  O9    S    
N38   H40   S    
N35   H34   S    
C65   O39   A    
C6    C10   A    
Cu4   O19   S    
C21   C109  A    
Cu7   Cu8   S    
C112  N32   S    
N36   H35   S    
Cu12  O48   S    
C66   O40   A    
C2    O18   A    
C23   C111  A    
Cu3   O17   S    
Cu6   O37   S    
C3    C55   S    
C13   C17   A    
C70   O47   A    
Cu9   O5    S    
C136  N44   T    
C36   N8    S    
C26   C50   A    
C135  N43   T    
C134  N42   T    
C63   O33   A    
C3    O19   A    
C75   O14   A    
C101  C129  S    
C28   C52   A    
C75   C83   S    
N5    H5    S    
Cu1   Cu3   S    
C21   C93   S    
C28   N40   S    
C43   C51   A    
N29   H21   S    
C35   C39   A    
C96   C100  A    
C31   C35   A    
C60   C74   S    
C2    O2    A    
N30   H24   S    
C102  C106  A    
C95   C99   A    
C80   N14   S    
C39   C119  S    
C80   C90   A    
C117  N9    T    
C25   C49   A    
C79   C89   A    
C121  N17   T    
C61   O30   A    
Cu8   O36   S    
C63   O37   A    
C89   C121  S    
C114  N2    T    
C81   C91   A    
C76   O15   A    
Cu5   O41   S    
C40   C44   A    
C14   N34   S    
N38   H39   S    
C39   C43   A    
C91   C95   A    
N14   H16   S    
C113  N1    T    
C69   O46   A    
C7    C11   A    
C102  C130  S    
C128  N24   T    
Cu8   O32   S    
C94   C98   A    
C38   C118  S    
Cu5   O29   S    
C103  C107  A    
C5    C109  A    
C24   C96   S    
Cu5   Cu6   S    
C29   C133  S    
Cu7   O40   S    
C20   C24   A    
Cu3   O25   S    
C68   O44   A    
N31   H25   S    
C27   N39   S    
C79   N13   S    
C47   O27   A    
C17   C21   A    
