data_mof_unit_25046.cif
_audit_creation_date              2012-12-10T17:31:06-0500
_audit_creation_method            fapswitch 2.2
_symmetry_space_group_name_H-M    P1
_symmetry_Int_Tables_number       1
_space_group_crystal_system       triclinic
_cell_length_a                    12.177248
_cell_length_b                    12.74082
_cell_length_c                    15.456453
_cell_angle_alpha                 84.90827
_cell_angle_beta                  115.658493
_cell_angle_gamma                 96.366816
_cell_volume                      2146.01750093

loop_
_atom_site_label
_atom_site_type_symbol
_atom_type_description
_atom_site_fract_x
_atom_site_fract_y
_atom_site_fract_z
_atom_type_partial_charge
C1    C     C_R   0.475485 0.299444 0.498921 0.878895
C2    C     C_R   0.658948 0.968981 0.581089 -0.203088
C3    C     C_R   0.349221 0.138470 0.427387 -0.214701
C4    C     C_R   0.652663 0.862461 0.565874 -0.204359
C5    C     C_R   0.558872 0.129868 0.548651 -0.269475
C6    C     C_R   0.441022 0.869877 0.447901 -0.267294
C7    C     C_R   0.555021 0.024894 0.531688 0.183575
C8    C     C_R   0.445801 0.975446 0.463276 0.182954
C9    C     C_R   0.028603 0.621734 0.436083 -0.292490
C10   C     C_R   0.965109 0.372614 0.555313 -0.294546
C11   C     C_R   0.141544 0.606727 0.437796 0.017772
C12   C     C_R   0.524307 0.700519 0.500221 0.880985
C13   C     C_R   0.850490 0.387095 0.550588 0.012278
C14   C     C_R   0.146096 0.441486 0.523607 0.248669
C15   C     C_R   0.862153 0.562651 0.487383 0.257247
C16   C     C_R   0.576094 0.496150 0.680012 0.898898
C17   C     C_R   0.424299 0.506641 0.319930 0.900206
C18   C     C_R   0.027577 0.451686 0.518899 0.061642
C19   C     C_R   0.971611 0.545735 0.479459 0.027439
C20   C     C_R   0.624193 0.509867 0.782993 -0.171320
C21   C     C_R   0.378511 0.519247 0.215618 -0.170443
C22   C     C_R   0.781086 0.578067 0.931294 0.736149
C23   C     C_R   0.638845 0.603763 0.097150 -0.314520
C24   C     C_R   0.214604 0.517079 0.055160 0.736250
C25   C     C_R   0.745705 0.546424 0.838086 -0.267305
C26   C     C_R   0.253552 0.510104 0.154499 -0.277298
C27   C     C_R   0.539944 0.502450 0.822008 -0.207725
C28   C     C_R   0.463544 0.540992 0.177378 -0.224417
C29   C     C_R   0.569552 0.543660 0.910556 -0.017941
C30   C     C_R   0.427338 0.551362 0.078484 -0.015936
C31   C     C_R   0.693433 0.577275 0.968320 -0.161986
C32   C     C_R   0.300996 0.534819 0.016294 -0.151905
C33   C     C_R   0.478625 0.549359 0.943413 0.026578
C34   C     C_R   0.352198 0.538142 0.881650 -0.321270
C35   C     C_R   0.515366 0.568718 0.040732 0.027873
C36   C     C_3   0.833564 0.676063 0.483762 -0.363851
C37   C     C_3   0.741290 0.713808 0.384749 -0.820619
C38   C     C_3   0.212453 0.345525 0.576858 -0.390660
C39   C     C_3   0.168873 0.250011 0.513531 -0.828432
C40   C     C_R   0.726039 0.609761 0.061018 0.666939
C41   C     C_R   0.264674 0.533326 0.917237 0.662924
C42   C     C_R   0.542511 0.813129 0.501502 -0.047291
C43   C     C_R   0.457428 0.186846 0.495145 -0.044912
C44   C     C_R   0.342745 0.031916 0.412353 -0.199587
F1    F     F_    0.842764 0.644906 0.118357 -0.615918
F2    F     F_    0.144781 0.522103 0.854457 -0.617106
F3    F     F_    0.899450 0.613339 0.983138 -0.561304
F4    F     F_    0.093160 0.502053 0.997806 -0.570839
H1    H     H_    0.804196 0.323841 0.576613 0.146014
H2    H     H_    0.318362 0.536007 0.804638 0.173051
H3    H     H_    0.356596 0.830403 0.397393 0.147646
H4    H     H_    0.642707 0.168835 0.600384 0.143024
H5    H     H_    0.730706 0.817627 0.608155 0.153502
H6    H     H_    0.272803 0.183893 0.382724 0.156084
H7    H     H_    0.259078 0.994596 0.359293 0.151863
H8    H     H_    0.743295 0.006770 0.632925 0.147626
H9    H     H_    0.777768 0.711646 0.330533 0.241545
H10   H     H_    0.654071 0.664398 0.360738 0.280342
H11   H     H_    0.722769 0.796461 0.387809 0.248406
H12   H     H_    0.183148 0.666337 0.404499 0.150050
H13   H     H_    0.808985 0.687676 0.542621 0.225691
H14   H     H_    0.917741 0.730479 0.504070 0.175619
H15   H     H_    0.166496 0.272812 0.441864 0.269727
H16   H     H_    0.231680 0.186499 0.548212 0.254895
H17   H     H_    0.075672 0.217852 0.502507 0.242181
H18   H     H_    0.311480 0.361455 0.604206 0.253057
H19   H     H_    0.200727 0.326107 0.643941 0.176557
H20   H     H_    0.986786 0.693107 0.399737 0.175037
H21   H     H_    0.001609 0.298037 0.586770 0.162467
H22   H     H_    0.559128 0.543721 0.226045 0.176219
H23   H     H_    0.449840 0.465343 0.780937 0.160892
H24   H     H_    0.186378 0.494196 0.183397 0.205582
H25   H     H_    0.812070 0.553524 0.808242 0.218901
H26   H     H_    0.669647 0.630841 0.168733 0.165370
N1    N     N_R   0.799120 0.480200 0.517090 -0.111265
N2    N     N_R   0.200880 0.519800 0.482910 -0.119934
O1    O     O_R   0.580150 0.341050 0.504560 -0.620348
O2    O     O_R   0.419850 0.658950 0.495440 -0.616648
O3    O     O_R   0.388090 0.353760 0.493600 -0.625366
O4    O     O_R   0.611910 0.646240 0.506400 -0.628689
O5    O     O_R   0.650890 0.490020 0.640860 -0.604357
O6    O     O_R   0.349110 0.509980 0.359140 -0.606250
O7    O     O_R   0.458830 0.502730 0.629890 -0.634771
O8    O     O_R   0.541170 0.497270 0.370110 -0.616874
Zn1   Zn    Zn3+2 0.628240 0.491510 0.507320 0.946338
Zn2   Zn    Zn3+2 0.371760 0.508490 0.492680 0.938079

loop_
_geom_bond_atom_site_label_1
_geom_bond_atom_site_label_2
_ccdc_geom_bond_type
C15   N1    A    
C21   C26   A    
C4    H5    S    
C27   C29   A    
C26   H24   S    
C14   C18   A    
C2    C7    A    
C7    C8    A    
C15   C19   A    
C39   H16   S    
C3    C43   A    
C30   C35   A    
C36   C37   S    
C24   C26   A    
C18   C19   A    
C11   N2    A    
C38   C39   S    
C3    H6    S    
C20   C25   A    
C23   C40   A    
C29   C33   A    
C1    O1    A    
C31   C40   A    
C17   O6    A    
C12   C42   S    
C1    C43   S    
C13   N1    A    
C9    C19   A    
C22   C25   A    
C12   O2    A    
C41   F2    S    
C5    H4    S    
C6    H3    S    
C37   H10   S    
O2    Zn2   S    
C22   F3    S    
C5    C43   A    
O1    Zn1   S    
C39   H17   S    
C34   C41   A    
C36   H14   S    
N1    Zn1   S    
C40   F1    S    
C3    C44   A    
C34   H2    S    
C22   C31   A    
C24   F4    S    
C38   H18   S    
O8    Zn1   S    
C5    C7    A    
C6    C8    A    
O6    Zn2   S    
C16   O7    A    
C17   C21   S    
C14   N2    A    
C2    C4    A    
C24   C32   A    
O4    Zn1   S    
C14   C38   S    
C16   C20   S    
C33   C34   A    
C9    C11   A    
C37   H11   S    
C13   H1    S    
C21   C28   A    
C23   C35   A    
C1    O3    A    
C32   C41   A    
C36   H13   S    
N2    Zn2   S    
C15   C36   S    
C27   H23   S    
C28   H22   S    
C8    C44   A    
C10   C13   A    
C20   C27   A    
C39   H15   S    
C17   O8    A    
C28   C30   A    
C9    H20   S    
C29   C31   A    
C2    H8    S    
C30   C32   A    
C44   H7    S    
C4    C42   A    
C10   C18   A    
C12   O4    A    
C16   O5    A    
C33   C35   A    
C25   H25   S    
C37   H9    S    
C10   H21   S    
O7    Zn2   S    
C38   H19   S    
C6    C42   A    
C23   H26   S    
O3    Zn2   S    
O5    Zn1   S    
C11   H12   S    
