data_mof_unit_7387.cif
_audit_creation_date              2012-12-10T16:59:20-0500
_audit_creation_method            fapswitch 2.2
_symmetry_space_group_name_H-M    P1
_symmetry_Int_Tables_number       1
_space_group_crystal_system       triclinic
_cell_length_a                    7.728739
_cell_length_b                    8.556511
_cell_length_c                    27.704256
_cell_angle_alpha                 90.896691
_cell_angle_beta                  86.151592
_cell_angle_gamma                 93.697287
_cell_volume                      1824.05751917

loop_
_atom_site_label
_atom_site_type_symbol
_atom_type_description
_atom_site_fract_x
_atom_site_fract_y
_atom_site_fract_z
_atom_type_partial_charge
C1    C     C_R   0.545948 0.794893 0.498734 0.964829
C2    C     C_R   0.498714 0.645037 0.128050 -0.028817
C3    C     C_R   0.511308 0.500436 0.646825 -0.164378
C4    C     C_R   0.488673 0.499496 0.353176 -0.164520
C5    C     C_R   0.530524 0.643675 0.025760 0.047352
C6    C     C_R   0.469452 0.356168 0.974240 0.047351
C7    C     C_R   0.449833 0.358846 0.025494 0.047322
C8    C     C_R   0.550147 0.640997 0.974506 0.047323
C9    C     C_R   0.481887 0.502336 0.050908 0.073254
C10   C     C_R   0.518091 0.497507 0.949092 0.073251
C11   C     C_R   0.556987 0.783587 0.053037 -0.224995
C12   C     C_R   0.454052 0.205107 0.501265 0.964714
C13   C     C_R   0.442984 0.216257 0.946962 -0.224996
C14   C     C_R   0.541879 0.783747 0.103125 -0.140620
C15   C     C_R   0.458087 0.216099 0.896874 -0.140627
C16   C     C_R   0.502849 0.500076 0.594067 0.900351
C17   C     C_R   0.497147 0.499909 0.405933 0.900196
C18   C     C_R   0.602079 0.777239 0.947487 -0.226293
C19   C     C_R   0.397906 0.222603 0.052513 -0.226289
C20   C     C_2   0.570274 0.958332 0.497975 -0.373174
C21   C     C_2   0.429725 0.041668 0.502023 -0.373102
C22   C     C_R   0.587159 0.631330 0.821645 0.510895
C23   C     C_R   0.533830 0.495516 0.897810 -0.049778
C24   C     C_R   0.412814 0.368517 0.178356 0.510952
C25   C     C_R   0.509655 0.356876 0.821399 0.521537
C26   C     C_R   0.490307 0.642974 0.178600 0.521558
C27   C     C_R   0.686077 0.484502 0.715923 -0.091374
C28   C     C_R   0.313872 0.515272 0.284078 -0.091186
C29   C     C_R   0.673060 0.485196 0.666227 -0.289113
C30   C     C_R   0.326898 0.514621 0.333775 -0.289025
C31   C     C_R   0.361542 0.517177 0.678281 0.510216
C32   C     C_R   0.638446 0.482823 0.321717 0.510179
C33   C     C_R   0.375996 0.512069 0.728174 -0.206510
C34   C     C_R   0.466144 0.504328 0.102190 -0.049777
C35   C     C_R   0.623988 0.487899 0.271826 -0.206366
C36   C     C_R   0.537485 0.497092 0.746704 0.254687
C37   C     C_R   0.462478 0.502768 0.253296 0.254486
C38   C     C_3   0.150289 0.682595 0.666435 -0.280053
C39   C     C_3   0.849183 0.317206 0.333816 -0.279930
C40   C     C_R   0.580359 0.634547 0.872206 -0.024387
C41   C     C_R   0.419618 0.365298 0.127794 -0.024400
C42   C     C_R   0.616015 0.773811 0.897394 -0.142824
C43   C     C_R   0.383968 0.226032 0.102607 -0.142810
C44   C     C_R   0.501253 0.354810 0.871950 -0.028816
H1    H     H_    0.014285 0.383581 0.463325 0.191452
H2    H     H_    0.434140 0.106253 0.877720 0.193498
H3    H     H_    0.590031 0.896236 0.037110 0.139991
H4    H     H_    0.409938 0.103609 0.962889 0.139993
H5    H     H_    0.633723 0.889626 0.963629 0.141667
H6    H     H_    0.366268 0.110215 0.036371 0.141665
H7    H     H_    0.702955 0.009515 0.494088 0.180609
H8    H     H_    0.297045 0.990484 0.505910 0.180629
H9    H     H_    0.250617 0.768012 0.649610 0.165149
H10   H     H_    0.122569 0.712169 0.705300 0.174424
H11   H     H_    0.029029 0.693983 0.647883 0.185372
H12   H     H_    0.985715 0.616419 0.536675 0.191506
H13   H     H_    0.875758 0.286523 0.294986 0.174411
H14   H     H_    0.749031 0.232448 0.351039 0.165129
H15   H     H_    0.970952 0.306081 0.352151 0.185291
H16   H     H_    0.188876 0.526787 0.269453 0.164109
H17   H     H_    0.811058 0.472896 0.730548 0.163978
H18   H     H_    0.261508 0.519660 0.752685 0.147447
H19   H     H_    0.738486 0.480326 0.247318 0.147607
H20   H     H_    0.654266 0.881706 0.878447 0.192496
H21   H     H_    0.345719 0.118138 0.121554 0.192497
H22   H     H_    0.209965 0.526619 0.356979 0.209058
H23   H     H_    0.789988 0.473145 0.643024 0.209088
H24   H     H_    0.565822 0.893594 0.122279 0.193498
N1    N     N_R   0.549094 0.494334 0.797651 -0.348671
N2    N     N_R   0.450869 0.505517 0.202349 -0.348671
N3    N     N_2   0.950320 0.457960 0.486880 -0.166376
N4    N     N_2   0.049680 0.542040 0.513120 -0.166345
O1    O     O_R   0.389250 0.738570 0.503220 -0.617453
O2    O     O_2   0.371687 0.235723 0.203426 -0.540660
O3    O     O_2   0.523602 0.776395 0.203925 -0.531966
O4    O     O_2   0.476349 0.223458 0.796074 -0.531982
O5    O     O_3   0.199636 0.527234 0.660488 -0.601280
O6    O     O_3   0.800378 0.472803 0.339490 -0.601294
O7    O     O_R   0.610750 0.261430 0.496780 -0.617517
O8    O     O_R   0.678390 0.711630 0.494810 -0.630572
O9    O     O_R   0.321610 0.288370 0.505190 -0.630585
O10   O     O_R   0.355440 0.513440 0.575450 -0.562241
O11   O     O_R   0.644560 0.486560 0.424550 -0.562427
O12   O     O_R   0.644590 0.486500 0.567040 -0.640255
O13   O     O_R   0.355410 0.513500 0.432960 -0.640218
O14   O     O_2   0.628292 0.764125 0.796575 -0.540715
Zn1   Zn    Zn3+2 0.306940 0.517990 0.505620 0.966243
Zn2   Zn    Zn3+2 0.693060 0.482010 0.494380 0.966125

loop_
_geom_bond_atom_site_label_1
_geom_bond_atom_site_label_2
_ccdc_geom_bond_type
H1    N3    S    
C11   H3    S    
C24   N2    A    
C17   O13   A    
C35   C37   A    
C15   C44   A    
C5    C11   A    
C20   H7    S    
C18   C42   A    
C11   C14   A    
C27   C29   A    
C23   C40   A    
C39   H13   S    
C12   O7    A    
C16   O12   A    
C33   C36   A    
C3    C29   A    
O1    Zn1   S    
C10   C23   A    
C27   H17   S    
C29   H23   S    
C38   H11   S    
C33   H18   S    
H12   N4    S    
C31   C33   A    
C22   N1    A    
C2    C34   A    
C40   C42   A    
O11   Zn2   S    
C22   C40   A    
C37   N2    S    
C24   C41   A    
C41   C43   A    
C34   C41   A    
C25   C44   A    
O7    Zn2   S    
C30   H22   S    
C19   C43   A    
C31   O5    S    
O13   Zn1   S    
C32   C35   A    
C39   H14   S    
C12   C21   S    
C8    C18   A    
C23   C44   A    
C17   O11   A    
C39   O6    S    
C5    C9    A    
C5    C8    A    
C38   H10   S    
C43   H21   S    
C39   H15   S    
C16   O10   A    
C26   O3    S    
C2    C26   A    
C4    C32   A    
C3    C31   A    
O9    Zn1   S    
C28   H16   S    
C4    C17   S    
C7    C19   A    
C13   C15   A    
C9    C34   A    
C26   N2    A    
C25   N1    A    
C42   H20   S    
N4    Zn1   S    
C36   N1    S    
C7    C9    A    
C1    C20   S    
O12   Zn2   S    
C6    C10   A    
C13   H4    S    
C6    C7    A    
C38   O5    S    
C27   C36   A    
C25   O4    S    
C1    O1    A    
C28   C30   A    
N3    N4    D    
O8    Zn2   S    
C6    C13   A    
C19   H6    S    
C24   O2    S    
C38   H9    S    
C28   C37   A    
C12   O9    A    
C22   O14   S    
C2    C14   A    
C32   O6    S    
N3    Zn2   S    
C20   C21   D    
C8    C10   A    
C1    O8    A    
C14   H24   S    
C35   H19   S    
C15   H2    S    
C21   H8    S    
C4    C30   A    
C3    C16   S    
O10   Zn1   S    
C18   H5    S    
