data_mof_unit_39431.cif
_audit_creation_date              2013-03-05T16:31:47-0500
_audit_creation_method            fapswitch 2.2
_symmetry_space_group_name_H-M    P1
_symmetry_Int_Tables_number       1
_space_group_crystal_system       triclinic
_cell_length_a                    11.684178
_cell_length_b                    10.974498
_cell_length_c                    9.637165
_cell_angle_alpha                 92.216105
_cell_angle_beta                  91.141142
_cell_angle_gamma                 91.579174
_cell_volume                      1234.08872259

loop_
_atom_site_label
_atom_site_type_symbol
_atom_site_description
_atom_site_fract_x
_atom_site_fract_y
_atom_site_fract_z
_atom_type_partial_charge
O1    O     O_R   0.500000 0.319640 0.618810 -0.568133
O2    O     O_R   0.500010 0.319680 0.381230 -0.631133
C1    C     C_R   0.497113 0.262532 0.496779 0.778477
O3    O     O_R   0.337190 0.499990 0.618790 -0.591606
O4    O     O_R   0.337200 0.500030 0.381210 -0.590737
C2    C     C_R   0.284197 0.498591 0.498588 0.811009
Cu1   Cu    Cu3+1 0.499990 0.499980 0.640670 0.939071
Cu2   Cu    Cu3+1 0.500010 0.500020 0.359330 0.933143
O5    O     O_R   0.499990 0.680320 0.618770 -0.598197
O6    O     O_R   0.500000 0.680360 0.381190 -0.580183
O7    O     O_R   0.662800 0.499970 0.618790 -0.565267
O8    O     O_R   0.662810 0.500010 0.381210 -0.574461
C3    C     C_R   0.492064 0.736976 0.501720 0.814582
C4    C     C_R   0.715701 0.498789 0.500754 0.839349
C5    C     C_1   0.162303 0.495302 0.495040 -0.181173
C6    C     C_1   0.059639 0.493132 0.493926 0.008987
C7    C     C_1   0.939753 0.493031 0.496769 0.021099
C8    C     C_1   0.837338 0.495226 0.500500 -0.169391
C9    C     C_R   0.469279 0.068847 0.611855 0.002071
C10   C     C_R   0.483690 0.129200 0.489671 -0.184462
C11   C     C_R   0.477444 0.055104 0.364677 -0.005531
C12   C     C_R   0.468772 0.926922 0.372235 -0.111297
H1    H     H_    0.464487 0.872684 0.276561 0.181426
C13   C     C_R   0.473914 0.869117 0.500483 -0.145721
C14   C     C_R   0.462312 0.944979 0.618364 -0.061642
C15   C     C_3   0.478788 0.950297 0.773177 -0.000879
C16   C     C_3   0.491175 0.092165 0.763112 -0.193817
H2    H     H_    0.421973 0.145370 0.811773 0.148895
C17   C     C_R   0.599173 0.517664 0.076465 0.094726
N1    N     N_R   0.500710 0.500930 0.147930 -0.242107
C18   C     C_R   0.407458 0.456315 0.068451 0.028925
C19   C     C_R   0.405944 0.463330 0.920754 -0.085568
H3    H     H_    0.330501 0.432450 0.861312 0.177498
N2    N     N_R   0.500710 0.500890 0.852020 -0.212340
C20   C     C_R   0.601316 0.512473 0.929702 0.194319
C21   C     C_3   0.688849 0.616637 0.935233 -0.297687
C22   C     C_3   0.687199 0.617611 0.093959 -0.270422
H4    H     H_    0.649421 0.694898 0.890170 0.164430
H5    H     H_    0.766307 0.586356 0.146102 0.179426
C23   C     C_2   0.489689 0.104514 0.225597 0.377229
H6    H     H_    0.551302 0.177461 0.209632 0.083541
O9    O     O_2   0.433658 0.060903 0.126597 -0.555253
C24   C     C_2   0.645758 0.734301 0.156995 0.563687
H7    H     H_    0.563880 0.767897 0.124988 0.074613
O10   O     O_2   0.704549 0.792416 0.243758 -0.553623
C25   C     C_R   0.371010 0.903901 0.845776 0.181459
C26   C     C_R   0.372889 0.799167 0.926195 -0.075992
C27   C     C_R   0.276008 0.760801 0.997178 -0.155915
C28   C     C_R   0.174552 0.823978 0.986200 -0.087570
C29   C     C_R   0.168880 0.923805 0.901367 -0.128280
C30   C     C_R   0.265633 0.962844 0.830560 -0.137702
H8    H     H_    0.448574 0.745727 0.933541 0.114726
H9    H     H_    0.279392 0.681522 0.060294 0.155877
H10   H     H_    0.099568 0.793940 0.041058 0.154260
H11   H     H_    0.089201 0.970853 0.889969 0.133862
H12   H     H_    0.257323 0.039178 0.763755 0.119622
C31   C     C_2   0.589106 0.894486 0.816591 0.316372
H13   H     H_    0.638125 0.843899 0.740849 0.062889
O11   O     O_2   0.627962 0.913771 0.934167 -0.549909
C32   C     C_R   0.610246 0.146497 0.799395 0.223975
C33   C     C_R   0.706954 0.121599 0.718152 -0.143549
C34   C     C_R   0.817296 0.146653 0.772254 -0.135654
C35   C     C_R   0.832362 0.194635 0.907786 -0.093628
C36   C     C_R   0.737079 0.224118 0.986434 -0.145586
C37   C     C_R   0.626944 0.204621 0.930126 -0.058871
H14   H     H_    0.697806 0.076043 0.616819 0.124670
H15   H     H_    0.891107 0.124662 0.710973 0.128403
H16   H     H_    0.917824 0.210371 0.951333 0.131679
H17   H     H_    0.748475 0.262790 0.091008 0.120410
H18   H     H_    0.553896 0.230153 0.990228 0.114027
C38   C     C_2   0.313282 0.386329 0.130235 0.399216
H19   H     H_    0.329768 0.330317 0.217941 0.126483
O12   O     O_2   0.216411 0.386662 0.080641 -0.612215
C39   C     C_R   0.807930 0.595705 0.880157 0.194167
C40   C     C_R   0.860395 0.685125 0.799885 -0.120008
C41   C     C_R   0.976151 0.678687 0.767152 -0.155362
C42   C     C_R   0.040674 0.582187 0.812648 -0.102498
C43   C     C_R   0.989076 0.491345 0.889173 -0.126943
C44   C     C_R   0.874154 0.499150 0.924528 -0.144603
H20   H     H_    0.813464 0.762543 0.766683 0.124303
H21   H     H_    0.016068 0.749015 0.707279 0.142243
H22   H     H_    0.130579 0.577811 0.788561 0.151895
H23   H     H_    0.038707 0.416400 0.924215 0.185130
H24   H     H_    0.838908 0.434448 0.993772 0.122743

loop_
_geom_bond_atom_site_label_1
_geom_bond_atom_site_label_2
_geom_bond_distance
_ccdc_geom_bond_type
C4    C8    1.422894 S    
C20   C21   1.511400 S    
C24   H7    1.078335 S    
Cu1   Cu2   2.711341 S    
C42   C43   1.393796 A    
Cu1   O7    1.918122 S    
C15   C16   1.566591 S    
C17   N1    1.364304 A    
C34   H15   1.082375 S    
C21   C22   1.529798 S    
N2    C20   1.381218 A    
C16   C32   1.527133 S    
C44   H24   1.072658 S    
O7    C4    1.305182 A    
C31   O11   1.220853 D    
C5    C6    1.198949 T    
C30   H12   1.081393 S    
O5    C3    1.311829 A    
C2    C5    1.423391 S    
C35   H16   1.082243 S    
C33   H14   1.081760 S    
C9    C10   1.384065 A    
C6    C7    1.401559 S    
C9    C16   1.486104 S    
C40   H20   1.079193 S    
C23   O9    1.220852 D    
C28   H10   1.082490 S    
C11   C12   1.412383 A    
O3    Cu1   1.909661 S    
C43   H23   1.080174 S    
C29   C30   1.397786 A    
C27   H9    1.081850 S    
C39   C40   1.407722 A    
C41   C42   1.396039 A    
O3    C2    1.301938 A    
C38   O12   1.219980 D    
C43   C44   1.395983 A    
C14   C15   1.499203 S    
C25   C30   1.414197 A    
C3    C13   1.471840 S    
C32   C33   1.414267 A    
O1    C1    1.310432 A    
C19   N2    1.363781 A    
C22   C24   1.493049 S    
C40   C41   1.397981 A    
C34   C35   1.395284 A    
C26   C27   1.397656 A    
N1    C18   1.386339 A    
Cu2   O8    1.909662 S    
C7    C8    1.198766 T    
C1    C10   1.466132 S    
C36   H17   1.082570 S    
C13   C14   1.393308 A    
C24   O10   1.220454 D    
C21   C39   1.519205 S    
C23   H6    1.079347 S    
O8    C4    1.297167 A    
C32   C37   1.397662 A    
C39   C44   1.404089 A    
Cu1   N2    2.036303 S    
C12   C13   1.411875 A    
Cu1   O5    1.998462 S    
C25   C26   1.411334 A    
C27   C28   1.393966 A    
O1    Cu1   1.982208 S    
C18   C19   1.428212 A    
O2    Cu2   1.998461 S    
O6    C3    1.302129 A    
C41   H21   1.082351 S    
O4    Cu2   1.918124 S    
C26   H8    1.077173 S    
C17   C20   1.414066 A    
C29   H11   1.082682 S    
Cu2   N1    2.037886 S    
C36   C37   1.394354 A    
C21   H4    1.086826 S    
O2    C1    1.299564 A    
C38   H19   1.081493 S    
C22   H5    1.112126 S    
C19   H3    1.080946 S    
C31   H13   1.082539 S    
O4    C2    1.300813 A    
C11   C23   1.473286 S    
C42   H22   1.082263 S    
C18   C38   1.473137 S    
C33   C34   1.397220 A    
C9    C14   1.363525 A    
C15   C31   1.501174 S    
C15   C25   1.536843 S    
C35   C36   1.397538 A    
C10   C11   1.426564 A    
Cu2   O6    1.982208 S    
C28   C29   1.394313 A    
C17   C22   1.485260 S    
C16   H2    1.111120 S    
C12   H1    1.077506 S    
C37   H18   1.078334 S    
