data_mof_unit_14238.cif
_audit_creation_date              2012-12-11T14:33:53-0500
_audit_creation_method            fapswitch 2.2
_symmetry_space_group_name_H-M    P1
_symmetry_Int_Tables_number       1
_space_group_crystal_system       triclinic
_cell_length_a                    13.856714
_cell_length_b                    13.977309
_cell_length_c                    27.315534
_cell_angle_alpha                 90.008976
_cell_angle_beta                  90.046809
_cell_angle_gamma                 119.616067
_cell_volume                      4599.29352322

loop_
_atom_site_label
_atom_site_type_symbol
_atom_type_description
_atom_site_fract_x
_atom_site_fract_y
_atom_site_fract_z
_atom_type_partial_charge
C1    C     C_R   0.233768 0.787334 0.568670 0.539314
C2    C     C_R   0.212610 0.446640 0.568822 0.542398
C3    C     C_R   0.552911 0.765373 0.568969 0.539248
C4    C     C_3   0.667602 0.738331 0.789364 -0.196518
C5    C     C_3   0.242582 0.950335 0.783405 -0.197683
C6    C     C_3   0.048970 0.304692 0.784899 -0.196158
C7    C     C_3   0.646817 0.725216 0.733463 -0.219395
C8    C     C_3   0.259213 0.936359 0.728480 -0.219737
C9    C     C_3   0.067286 0.340146 0.730397 -0.219115
C10   C     C_1   0.711902 0.864745 0.859494 -0.061524
C11   C     C_1   0.111383 0.879678 0.852415 -0.042261
C12   C     C_1   0.113305 0.230491 0.852215 -0.055220
C13   C     C_1   0.630241 0.815501 0.658714 -0.076086
C14   C     C_1   0.175563 0.819612 0.655911 -0.074535
C15   C     C_1   0.178469 0.359079 0.656514 -0.075912
C16   C     C_1   0.601901 0.796709 0.616527 -0.015461
C17   C     C_1   0.198349 0.806751 0.614868 -0.015954
C18   C     C_1   0.193011 0.393668 0.615321 -0.015826
C19   C     C_R   0.064824 0.150330 0.095954 0.580118
C20   C     C_R   0.777480 0.884065 0.088365 0.546909
C21   C     C_R   0.116429 0.893666 0.088150 0.560977
C22   C     C_R   0.069208 0.160204 0.943263 0.537585
C23   C     C_R   0.780132 0.887295 0.950648 0.537737
C24   C     C_R   0.090587 0.929656 0.943372 0.533892
C25   C     C_R   0.618774 0.895790 0.361598 -0.133036
C26   C     C_R   0.097241 0.732656 0.362889 -0.134643
C27   C     C_R   0.264211 0.357375 0.363804 -0.135499
C28   C     C_R   0.645051 0.911385 0.311955 0.014208
C29   C     C_R   0.080627 0.744149 0.313228 0.014289
C30   C     C_R   0.241193 0.306421 0.317714 0.013955
C31   C     C_R   0.681251 0.929254 0.210430 0.017212
C32   C     C_R   0.060541 0.760111 0.211579 0.016969
C33   C     C_R   0.200531 0.225554 0.220984 0.016886
C34   C     C_R   0.232541 0.788330 0.431818 0.547499
C35   C     C_R   0.211708 0.444488 0.431387 0.549621
C36   C     C_R   0.555610 0.767204 0.431916 0.548586
C37   C     C_R   0.653933 0.001094 0.234623 -0.138060
C38   C     C_R   0.977330 0.671176 0.237676 -0.127729
C39   C     C_R   0.302792 0.256261 0.243563 -0.124091
C40   C     C_R   0.635642 0.992067 0.285129 -0.130939
C41   C     C_R   0.987940 0.662530 0.288163 -0.128843
C42   C     C_R   0.323120 0.296732 0.291545 -0.128801
C43   C     C_R   0.704209 0.939679 0.160159 -0.150596
C44   C     C_R   0.050591 0.771243 0.161206 -0.135541
C45   C     C_R   0.182725 0.194842 0.171500 -0.128996
C46   C     C_R   0.728729 0.864777 0.137072 -0.003518
C47   C     C_R   0.135291 0.861301 0.136242 -0.005244
C48   C     C_R   0.082729 0.172457 0.148627 -0.008825
C49   C     C_R   0.658720 0.744765 0.364086 -0.131465
C50   C     C_R   0.266228 0.910734 0.361903 -0.128453
C51   C     C_R   0.076226 0.327920 0.368084 -0.130339
C52   C     C_R   0.682786 0.757565 0.314526 0.013455
C53   C     C_R   0.254450 0.920365 0.312195 0.013817
C54   C     C_R   0.052714 0.278916 0.322018 0.011699
C55   C     C_R   0.673468 0.839486 0.288032 0.063914
C56   C     C_R   0.162414 0.835943 0.287434 0.063291
C57   C     C_R   0.136091 0.270170 0.296175 0.062599
C58   C     C_R   0.707675 0.684125 0.290448 -0.126901
C59   C     C_R   0.337761 0.009394 0.286415 -0.127109
C60   C     C_R   0.949330 0.245186 0.300135 -0.129234
C61   C     C_R   0.719487 0.689195 0.239956 -0.127307
C62   C     C_R   0.331853 0.013122 0.235816 -0.129508
C63   C     C_R   0.930378 0.208013 0.251930 -0.122588
C64   C     C_R   0.709744 0.769757 0.213464 0.011014
C65   C     C_R   0.240678 0.929907 0.210907 0.014342
C66   C     C_R   0.013408 0.201617 0.225426 0.016547
C67   C     C_3   0.564059 0.849532 0.737573 -0.156947
C68   C     C_3   0.137747 0.731893 0.737765 -0.174318
C69   C     C_3   0.269476 0.396651 0.737877 -0.162613
C70   C     C_R   0.688621 0.846600 0.237327 0.065274
C71   C     C_R   0.154317 0.841961 0.236639 0.063814
C72   C     C_R   0.116074 0.230611 0.247783 0.062013
C73   C     C_R   0.724213 0.776341 0.163458 -0.123333
C74   C     C_R   0.232698 0.935912 0.160736 -0.132930
C75   C     C_R   0.997238 0.171856 0.176210 -0.129476
C76   C     C_R   0.618754 0.807926 0.386755 -0.003343
C77   C     C_R   0.193581 0.813132 0.386411 -0.003628
C78   C     C_R   0.183240 0.372403 0.388165 -0.004890
C79   C     C_3   0.769054 0.929394 0.722380 -0.237045
C80   C     C_3   0.053730 0.849070 0.713790 -0.234163
C81   C     C_3   0.130837 0.203149 0.713038 -0.234780
C82   C     C_3   0.790466 0.941723 0.778387 -0.265257
C83   C     C_3   0.036825 0.865422 0.768630 -0.270181
C84   C     C_3   0.112404 0.168717 0.767565 -0.270598
C85   C     C_1   0.737580 0.874369 0.902014 -0.038700
C86   C     C_1   0.101739 0.901071 0.894197 -0.021378
C87   C     C_1   0.095306 0.199249 0.893992 -0.032961
C88   C     C_3   0.652752 0.830217 0.711575 0.034670
C89   C     C_3   0.156260 0.833751 0.707561 0.038861
C90   C     C_3   0.161909 0.325191 0.708053 0.037055
C91   C     C_3   0.586194 0.865662 0.793725 0.193781
C92   C     C_3   0.115555 0.744722 0.792807 0.194057
C93   C     C_3   0.252721 0.361642 0.792726 0.196957
C94   C     C_3   0.688531 0.852706 0.806702 0.095056
C95   C     C_3   0.126321 0.859890 0.800788 0.097740
C96   C     C_3   0.131903 0.266359 0.800809 0.096879
Cr1   Cr    Cr6+3 0.164410 0.584450 0.499910 1.016934
Cr2   Cr    Cr6+3 0.415550 0.579960 0.499910 1.017446
Cr3   Cr    Cr6+3 0.420040 0.835590 0.499910 1.014408
Cr4   Cr    Cr6+3 0.155170 0.075460 0.019960 1.010234
Cr5   Cr    Cr6+3 0.924540 0.079710 0.019960 1.001997
Cr6   Cr    Cr6+3 0.920290 0.844830 0.019960 1.005712
H1    H     H_    0.607519 0.952293 0.802329 0.076303
H2    H     H_    0.027907 0.682111 0.801832 0.088046
H3    H     H_    0.309721 0.328404 0.801183 0.078725
H4    H     H_    0.479803 0.778498 0.730427 0.154344
H5    H     H_    0.212042 0.721368 0.734259 0.148998
H6    H     H_    0.293649 0.485124 0.734453 0.152859
H7    H     H_    0.740442 0.728295 0.798435 0.092906
H8    H     H_    0.252796 0.033315 0.789722 0.086500
H9    H     H_    0.962227 0.236653 0.790004 0.092017
H10   H     H_    0.706624 0.007129 0.139570 0.103836
H11   H     H_    0.975461 0.713620 0.142076 0.113787
H12   H     H_    0.247897 0.192637 0.150452 0.121731
H13   H     H_    0.589244 0.945888 0.379327 0.127284
H14   H     H_    0.039771 0.658090 0.382066 0.122942
H15   H     H_    0.346648 0.390543 0.379318 0.124422
H16   H     H_    0.646723 0.064100 0.214520 0.097814
H17   H     H_    0.905087 0.607612 0.218944 0.098159
H18   H     H_    0.368332 0.252525 0.223569 0.100337
H19   H     H_    0.612932 0.047233 0.303093 0.099428
H20   H     H_    0.924329 0.591718 0.307494 0.100549
H21   H     H_    0.403984 0.323454 0.307650 0.101736
H22   H     H_    0.741230 0.716743 0.145752 0.128948
H23   H     H_    0.298755 0.005025 0.141369 0.122810
H24   H     H_    0.919146 0.151841 0.158756 0.117792
H25   H     H_    0.736411 0.630341 0.221607 0.098066
H26   H     H_    0.397949 0.081491 0.216212 0.094156
H27   H     H_    0.852422 0.188352 0.234756 0.110382
H28   H     H_    0.714471 0.620712 0.310432 0.100968
H29   H     H_    0.409130 0.074168 0.305197 0.096909
H30   H     H_    0.884788 0.251923 0.319574 0.102902
H31   H     H_    0.565021 0.923546 0.721924 0.070832
H32   H     H_    0.065899 0.656134 0.722706 0.068867
H33   H     H_    0.339066 0.387882 0.722474 0.069883
H34   H     H_    0.660807 0.678406 0.383771 0.127735
H35   H     H_    0.339228 0.974757 0.380138 0.130965
H36   H     H_    0.012598 0.337387 0.386927 0.129949
H37   H     H_    0.834231 0.917602 0.704121 0.121041
H38   H     H_    0.065001 0.921761 0.692468 0.121664
H39   H     H_    0.053868 0.149920 0.691881 0.121737
H40   H     H_    0.774972 0.006213 0.707475 0.115129
H41   H     H_    0.978299 0.775712 0.699385 0.116028
H42   H     H_    0.198122 0.190472 0.697740 0.115253
H43   H     H_    0.809393 0.025425 0.790231 0.098617
H44   H     H_    0.952345 0.801362 0.780310 0.097698
H45   H     H_    0.169728 0.138325 0.778278 0.097460
H46   H     H_    0.864197 0.933256 0.787029 0.111366
H47   H     H_    0.041415 0.945959 0.773592 0.110515
H48   H     H_    0.026074 0.100722 0.772450 0.111771
H49   H     H_    0.563831 0.652465 0.726146 0.120374
H50   H     H_    0.334673 0.928228 0.723782 0.117998
H51   H     H_    0.088191 0.427758 0.727487 0.111133
H52   H     H_    0.709950 0.709391 0.715778 0.112647
H53   H     H_    0.273455 0.011277 0.708157 0.113573
H54   H     H_    0.988896 0.290016 0.709632 0.114828
H55   H     H_    0.594976 0.672176 0.808855 0.148761
H56   H     H_    0.308375 0.946410 0.805090 0.146141
H57   H     H_    0.059098 0.374263 0.808203 0.143836
O1    O     O_R   0.137150 0.468200 0.553200 -0.511742
O2    O     O_R   0.531800 0.668950 0.553200 -0.511873
O3    O     O_R   0.331050 0.862850 0.553200 -0.510246
O4    O     O_R   0.179100 0.982980 0.967000 -0.505180
O5    O     O_R   0.017020 0.196120 0.967000 -0.482870
O6    O     O_R   0.803880 0.820900 0.967000 -0.512365
O7    O     O_R   0.173970 0.688730 0.549930 -0.500888
O8    O     O_R   0.311270 0.485240 0.549930 -0.500262
O9    O     O_R   0.514760 0.826030 0.549930 -0.499022
O10   O     O_R   0.140110 0.470540 0.446010 -0.521688
O11   O     O_R   0.529460 0.669570 0.446010 -0.521608
O12   O     O_R   0.330430 0.859890 0.446010 -0.524153
O13   O     O_R   0.176710 0.690910 0.450560 -0.502121
O14   O     O_R   0.309090 0.485800 0.450560 -0.501220
O15   O     O_R   0.514200 0.823290 0.450560 -0.504051
O16   O     O_3   0.333333 0.666667 0.499990 -0.262967
O17   O     O_R   0.176750 0.985260 0.074180 -0.530081
O18   O     O_R   0.014740 0.191490 0.074180 -0.495050
O19   O     O_R   0.808510 0.823250 0.074180 -0.517609
O20   O     O_R   0.146100 0.172630 0.068980 -0.479811
O21   O     O_R   0.827370 0.973470 0.068980 -0.517480
O22   O     O_R   0.026530 0.853900 0.068980 -0.488510
O23   O     O_3   0.000000 0.000000 0.020040 -0.284864
O24   O     O_R   0.148270 0.170520 0.969620 -0.493918
O25   O     O_R   0.829480 0.977750 0.969620 -0.521300
O26   O     O_R   0.022250 0.851730 0.969620 -0.480569
O27   O     O_3   0.490866 0.785765 0.819261 -0.571490
C97   C     C_3   0.458717 0.835788 0.855787 -0.105255
H58   H     H_    0.428071 0.888048 0.838943 0.135987
H59   H     H_    0.527824 0.885331 0.881574 0.100802
H60   H     H_    0.390325 0.770651 0.877490 0.163964
O28   O     O_3   0.192037 0.733069 0.823348 -0.578919
C98   C     C_3   0.154478 0.620664 0.832499 -0.110693
H61   H     H_    0.142954 0.574346 0.797895 0.123033
H62   H     H_    0.076302 0.582965 0.854119 0.105986
H63   H     H_    0.217813 0.613536 0.854505 0.184821
O29   O     O_3   0.272483 0.453417 0.822207 -0.582773
C99   C     C_3   0.365426 0.485146 0.852787 -0.121727
H64   H     H_    0.440367 0.503148 0.831092 0.100694
H65   H     H_    0.348222 0.420260 0.880441 0.124718
H66   H     H_    0.382826 0.561362 0.872562 0.165058

loop_
_geom_bond_atom_site_label_1
_geom_bond_atom_site_label_2
_ccdc_geom_bond_type
C15   C18   T    
C79   H37   S    
C4    H7    S    
C10   C85   T    
C36   O15   A    
Cr1   O16   S    
C2    C18   S    
C33   C45   A    
C6    H9    S    
C14   C17   T    
C27   C78   A    
C81   C84   S    
C6    C9    S    
C6    H57   S    
C53   C59   A    
C50   H35   S    
C20   O21   A    
C54   C60   A    
C25   C28   A    
C21   O22   A    
C40   H19   S    
C7    H52   S    
C59   H29   S    
C67   C88   S    
C33   C39   A    
Cr1   O13   S    
C31   C43   A    
C60   C63   A    
C82   C94   S    
C67   H31   S    
C37   C40   A    
C69   C93   S    
C25   H13   S    
C34   C77   S    
C53   C56   A    
C79   H40   S    
Cr3   O12   S    
C5    H8    S    
C28   C40   A    
C11   C86   T    
Cr1   O7    S    
C83   H44   S    
C30   C57   A    
Cr2   O11   S    
Cr1   O10   S    
C84   C96   S    
C80   C89   S    
C99   H65   S    
C8    H53   S    
C97   H60   S    
C36   C76   S    
C33   C72   A    
C93   H3    S    
C23   O6    A    
C45   H12   S    
C28   C55   A    
C31   C70   A    
C66   C72   A    
C37   H16   S    
C7    C88   S    
C9    H54   S    
C42   H21   S    
Cr6   O23   S    
C64   C73   A    
C68   H5    S    
C32   C38   A    
C39   C42   A    
Cr4   O23   S    
C19   O18   A    
Cr2   O8    S    
C12   C87   T    
C44   C47   A    
C29   C41   A    
C56   C71   A    
C58   C61   A    
C81   H39   S    
C63   C66   A    
C9    H51   S    
C69   H33   S    
C27   C30   A    
C48   C75   A    
C60   H30   S    
C80   C83   S    
C79   C88   S    
C5    C95   S    
C69   H6    S    
C3    O9    A    
C10   C94   S    
C32   C71   A    
C81   H42   S    
C26   C77   A    
O28   C98   S    
C50   C53   A    
C98   H63   S    
C83   H47   S    
C47   C74   A    
C38   C41   A    
Cr2   O14   S    
C92   H2    S    
C19   C48   S    
C20   O19   A    
C4    C7    S    
C65   C71   A    
C92   C95   S    
C65   C74   A    
C31   C37   A    
C24   O26   A    
C35   O14   A    
C41   H20   S    
C99   H66   S    
Cr5   O23   S    
C64   C70   A    
Cr1   O1    S    
C14   C89   S    
Cr4   O17   S    
C22   O24   A    
C80   H41   S    
Cr4   O24   S    
Cr3   O3    S    
C22   O5    A    
C4    H55   S    
C73   H22   S    
C83   C95   S    
C67   C91   S    
C68   C89   S    
C32   C44   A    
C49   C76   A    
C61   H25   S    
C22   C87   S    
Cr5   O25   S    
C52   C58   A    
C26   C29   A    
C7    H49   S    
C81   C90   S    
C49   H34   S    
C1    O3    A    
C93   C96   S    
C6    C96   S    
C35   O10   A    
C4    C94   S    
C24   O4    A    
C43   H10   S    
C38   H17   S    
C69   C90   S    
C50   C77   A    
C19   O20   A    
Cr2   O2    S    
C34   O13   A    
Cr3   O9    S    
C45   C48   A    
C11   C95   S    
C34   O12   A    
C59   C62   A    
C62   C65   A    
C8    H50   S    
Cr6   O22   S    
C1    C17   S    
C91   O27   S    
Cr5   O5    S    
C30   C42   A    
C49   C52   A    
C91   H1    S    
O29   C99   S    
C9    C90   S    
C44   H11   S    
C79   C82   S    
C82   H46   S    
C52   C55   A    
C67   H4    S    
C29   C56   A    
C84   H45   S    
C92   O28   S    
Cr6   O26   S    
C35   C78   S    
C36   O11   A    
C51   C54   A    
C98   H61   S    
C75   H24   S    
C68   H32   S    
C51   C78   A    
C97   H58   S    
Cr5   O21   S    
C80   H38   S    
C91   C94   S    
C62   H26   S    
Cr2   O16   S    
Cr3   O15   S    
C43   C46   A    
C1    O7    A    
C58   H28   S    
Cr6   O19   S    
C66   C75   A    
C13   C88   S    
Cr6   O6    S    
C68   C92   S    
Cr4   O4    S    
C63   H27   S    
C57   C72   A    
C99   H64   S    
C21   O17   A    
C26   H14   S    
C74   H23   S    
C97   H59   S    
C55   C70   A    
Cr5   O18   S    
C3    O2    A    
C93   O29   S    
C51   H36   S    
C23   O25   A    
Cr3   O16   S    
C82   H43   S    
C25   C76   A    
C2    O1    A    
C5    H56   S    
C23   C85   S    
C13   C16   T    
C61   C64   A    
C5    C8    S    
C12   C96   S    
C8    C89   S    
C27   H15   S    
C21   C47   S    
O27   C97   S    
Cr4   O20   S    
C24   C86   S    
C2    O8    A    
C46   C73   A    
C20   C46   S    
C3    C16   S    
C39   H18   S    
C98   H62   S    
C15   C90   S    
C54   C57   A    
C84   H48   S    
