data_mof_unit_23810.cif
_audit_creation_date              2013-03-05T15:49:44-0500
_audit_creation_method            fapswitch 2.2
_symmetry_space_group_name_H-M    P1
_symmetry_Int_Tables_number       1
_space_group_crystal_system       triclinic
_cell_length_a                    13.490855
_cell_length_b                    13.507685
_cell_length_c                    27.587797
_cell_angle_alpha                 91.049149
_cell_angle_beta                  90.399905
_cell_angle_gamma                 60.049902
_cell_volume                      4355.2395858

loop_
_atom_site_label
_atom_site_type_symbol
_atom_site_description
_atom_site_fract_x
_atom_site_fract_y
_atom_site_fract_z
_atom_type_partial_charge
O1    O     O_R   0.301780 0.195490 0.553940 -0.509873
O2    O     O_R   0.522450 0.158840 0.550250 -0.495175
C1    C     C_R   0.620006 0.100734 0.570347 0.545530
O3    O     O_R   0.694460 0.003360 0.553820 -0.506095
O4    O     O_R   0.657750 0.819520 0.549120 -0.496823
C2    C     C_R   0.599671 0.779848 0.568434 0.546298
O5    O     O_R   0.501990 0.803120 0.552700 -0.505599
O6    O     O_R   0.318230 0.023430 0.549370 -0.493055
C3    C     C_R   0.278895 0.121476 0.569636 0.546157
O7    O     O_R   0.302950 0.194150 0.446980 -0.516386
O8    O     O_R   0.523540 0.157600 0.451100 -0.497928
C4    C     C_R   0.621008 0.098387 0.431017 0.539102
O9    O     O_R   0.695630 0.002030 0.446860 -0.522875
O10   O     O_R   0.658840 0.818280 0.449970 -0.506760
C5    C     C_R   0.602359 0.775466 0.430820 0.538007
O11   O     O_R   0.503160 0.801780 0.445740 -0.534362
O12   O     O_R   0.319320 0.022190 0.450230 -0.515412
C6    C     C_R   0.278337 0.119828 0.430852 0.536403
Cr1   Cr    Cr6+3 0.417550 0.169090 0.500530 1.020364
Cr2   Cr    Cr6+3 0.669180 0.913420 0.499920 1.016125
Cr3   Cr    Cr6+3 0.413260 0.917540 0.499520 1.007645
O13   O     O_3   0.499990 0.000010 0.499990 -0.243037
C7    C     C_3   0.731852 0.577269 0.734735 0.185520
C8    C     C_3   0.779028 0.630374 0.771443 -0.096593
H1    H     H_    0.869483 0.592915 0.783089 0.094380
H2    H     H_    0.736126 0.807372 0.736628 0.108111
C9    C     C_1   0.696179 0.607833 0.898645 -0.022114
C10   C     C_1   0.629862 0.735982 0.616201 -0.017780
C11   C     C_3   0.631320 0.602453 0.768320 -0.080793
C12   C     C_3   0.676400 0.658726 0.804746 0.026243
C13   C     C_3   0.559132 0.719599 0.743859 -0.122536
C14   C     C_3   0.660747 0.691527 0.710268 0.072062
C15   C     C_3   0.603868 0.775659 0.780950 -0.121151
C16   C     C_3   0.705793 0.747803 0.746624 -0.132709
C17   C     C_1   0.685978 0.635558 0.856799 -0.067114
C18   C     C_1   0.647119 0.711716 0.658254 -0.048646
H3    H     H_    0.549283 0.858035 0.800333 0.101523
H4    H     H_    0.468962 0.755611 0.732072 0.101453
H5    H     H_    0.596897 0.545646 0.776390 0.114098
C19   C     C_3   0.078035 0.181088 0.736623 -0.114255
C20   C     C_3   0.142524 0.081652 0.772337 -0.105857
H6    H     H_    0.115693 0.019700 0.783091 0.107874
H7    H     H_    0.999193 0.200400 0.716374 0.103232
H8    H     H_    0.325596 0.963617 0.736897 0.101061
C21   C     C_1   0.100585 0.197804 0.900786 -0.022758
C22   C     C_1   0.235660 0.136369 0.618077 -0.018948
C23   C     C_3   0.092886 0.262876 0.772075 -0.107807
C24   C     C_3   0.157785 0.163309 0.807069 0.052204
C25   C     C_3   0.207751 0.232137 0.747565 -0.099700
C26   C     C_3   0.192269 0.150584 0.712863 0.054768
C27   C     C_3   0.272413 0.132727 0.783288 -0.098563
C28   C     C_3   0.257562 0.050835 0.747699 -0.094559
C29   C     C_1   0.131589 0.177351 0.859092 -0.064853
C30   C     C_1   0.211989 0.144105 0.660500 -0.064738
H9    H     H_    0.352336 0.112129 0.802948 0.095106
H10   H     H_    0.234473 0.294186 0.736801 0.101600
H11   H     H_    0.025055 0.350302 0.782856 0.100222
C31   C     C_3   0.575455 0.265405 0.746227 0.050290
C32   C     C_3   0.545937 0.196122 0.781861 -0.139642
H12   H     H_    0.460365 0.222983 0.797401 0.101826
H13   H     H_    0.592599 0.022506 0.739303 0.108730
C33   C     C_1   0.684756 0.199592 0.904540 -0.031311
C34   C     C_1   0.633920 0.130295 0.619292 -0.015029
C35   C     C_3   0.683520 0.235935 0.775730 0.168882
C36   C     C_3   0.654627 0.168182 0.811407 0.063890
C37   C     C_3   0.756710 0.128343 0.744077 -0.071256
C38   C     C_3   0.647310 0.156633 0.715052 0.003416
C39   C     C_3   0.725529 0.061344 0.779744 0.148882
C40   C     C_3   0.618334 0.086055 0.750073 -0.126487
C41   C     C_1   0.665309 0.182871 0.863513 -0.054811
C42   C     C_1   0.641467 0.145926 0.662081 -0.061081
H14   H     H_    0.842664 0.100311 0.728620 0.098081
C43   C     C_R   0.641961 0.715667 0.384294 0.021208
C44   C     C_R   0.734321 0.715502 0.361084 -0.140234
C45   C     C_R   0.748834 0.696235 0.311529 -0.151036
C46   C     C_R   0.673251 0.673635 0.285081 0.049001
C47   C     C_R   0.590554 0.658870 0.309170 -0.092908
C48   C     C_R   0.574768 0.680016 0.358730 -0.141627
C49   C     C_R   0.582446 0.721519 0.202740 0.146686
C50   C     C_R   0.592046 0.694574 0.153164 -0.128757
C51   C     C_R   0.797732 0.575015 0.162022 -0.136438
C52   C     C_R   0.788350 0.596206 0.211313 -0.162701
C53   C     C_R   0.680914 0.665614 0.232281 0.052807
C54   C     C_R   0.699269 0.619635 0.133070 -0.002537
H15   H     H_    0.789402 0.739846 0.380276 0.124236
H16   H     H_    0.516365 0.730517 0.130556 0.111266
H17   H     H_    0.814898 0.705343 0.293535 0.099217
H18   H     H_    0.864652 0.553395 0.233388 0.130568
H19   H     H_    0.881583 0.515743 0.147363 0.152767
H20   H     H_    0.535073 0.636048 0.289318 0.124360
H21   H     H_    0.505147 0.676335 0.376253 0.121260
C55   C     C_R   0.212980 0.142958 0.385214 -0.010505
C56   C     C_R   0.217605 0.054177 0.354768 -0.007672
C57   C     C_R   0.178716 0.081268 0.307110 -0.138391
C58   C     C_R   0.134721 0.191804 0.289689 0.031406
C59   C     C_R   0.118477 0.281355 0.321121 0.141605
C60   C     C_R   0.156426 0.256296 0.368910 -0.119288
C61   C     C_R   0.160289 0.259060 0.209696 -0.098834
C62   C     C_R   0.144252 0.266711 0.159659 -0.145179
C63   C     C_R   0.037126 0.166789 0.165444 -0.130356
C64   C     C_R   0.049860 0.162612 0.215218 -0.137353
C65   C     C_R   0.111294 0.208712 0.237709 0.052734
C66   C     C_R   0.082380 0.220568 0.137318 0.021584
H22   H     H_    0.211594 0.291307 0.226378 0.121713
H23   H     H_    0.178576 0.309665 0.138588 0.115695
H24   H     H_    0.187945 0.015182 0.281832 0.116259
H25   H     H_    0.011774 0.123134 0.236271 0.106636
H26   H     H_    0.986564 0.132913 0.149350 0.135484
H27   H     H_    0.145919 0.325190 0.392936 0.133453
C67   C     C_R   0.632919 0.123092 0.381044 0.034426
C68   C     C_R   0.581246 0.235351 0.364295 -0.128956
C69   C     C_R   0.581044 0.254553 0.314722 -0.119372
C70   C     C_R   0.629400 0.161484 0.281862 0.031398
C71   C     C_R   0.676031 0.049992 0.298909 -0.133299
C72   C     C_R   0.679994 0.030953 0.347989 -0.123252
C73   C     C_R   0.745653 0.102816 0.207649 -0.134269
C74   C     C_R   0.763549 0.117844 0.160058 -0.143428
C75   C     C_R   0.571817 0.284046 0.155622 0.008548
C76   C     C_R   0.554765 0.266459 0.204219 -0.104784
C77   C     C_R   0.642246 0.177607 0.230417 0.019136
C78   C     C_R   0.680311 0.210860 0.133747 0.028552
H28   H     H_    0.541521 0.307327 0.389421 0.109748
H29   H     H_    0.815366 0.034324 0.227202 0.104481
H30   H     H_    0.846852 0.058679 0.144968 0.130606
H31   H     H_    0.545202 0.341302 0.302206 0.100869
H32   H     H_    0.473231 0.322220 0.221645 0.097025
H33   H     H_    0.710520 0.977019 0.274211 0.102176
H34   H     H_    0.715627 0.943829 0.359914 0.127848
O14   O     O_R   0.819250 0.149410 0.965240 -0.506155
O15   O     O_R   0.006940 0.180310 0.968270 -0.492702
C79   C     C_R   0.050003 0.234529 0.948007 0.544629
O16   O     O_R   0.028420 0.332670 0.963010 -0.507895
O17   O     O_R   0.810130 0.520390 0.966030 -0.494785
C80   C     C_R   0.711949 0.561364 0.946292 0.545900
O18   O     O_R   0.636050 0.541380 0.962520 -0.507121
O19   O     O_R   0.666480 0.323610 0.968170 -0.496069
C81   C     C_R   0.721046 0.222652 0.950089 0.540038
O20   O     O_R   0.817280 0.156800 0.072180 -0.529727
O21   O     O_R   0.005110 0.187160 0.067410 -0.506024
C82   C     C_R   0.044657 0.245927 0.087166 0.538397
O22   O     O_R   0.026450 0.340060 0.069950 -0.521957
O23   O     O_R   0.808300 0.527240 0.065170 -0.503168
C83   C     C_R   0.710283 0.570851 0.084715 0.540114
O24   O     O_R   0.634070 0.548770 0.069460 -0.525652
O25   O     O_R   0.664650 0.330470 0.067300 -0.504015
C84   C     C_R   0.719010 0.232667 0.087246 0.533105
Cr4   Cr    Cr6+3 0.909770 0.175810 0.018240 1.015842
Cr5   Cr    Cr6+3 0.913300 0.427650 0.016090 1.018287
Cr6   Cr    Cr6+3 0.657770 0.431010 0.016900 1.008348
O26   O     O_3   0.826940 0.344820 0.017080 -0.242852
C85   C     C_3   0.491910 0.382132 0.725313 -0.267070
C86   C     C_3   0.411494 0.464952 0.763989 -0.445299
H35   H     H_    0.355614 0.433687 0.778415 0.145942
H36   H     H_    0.460352 0.474942 0.794298 0.147701
H37   H     H_    0.356445 0.549920 0.747747 0.138308
H38   H     H_    0.541196 0.418403 0.708529 0.164915
H39   H     H_    0.439930 0.370870 0.696666 0.145576
N1    N     N_2   0.809113 0.949545 0.796966 -0.519836
H40   H     H_    0.850389 0.891685 0.769075 0.241080
C87   C     C_3   0.770725 0.904728 0.835176 -0.297694
H41   H     H_    0.834957 0.813505 0.840970 0.140530
H42   H     H_    0.687757 0.911291 0.825581 0.137713
H43   H     H_    0.761212 0.952321 0.869597 0.168912
N2    N     N_2   0.716490 0.318412 0.791329 -0.535912
H44   H     H_    0.655894 0.380886 0.813657 0.246692
C88   C     C_3   0.830079 0.271245 0.811566 -0.310243
H45   H     H_    0.851448 0.340220 0.816417 0.140461
H46   H     H_    0.894052 0.204453 0.787140 0.151644
H47   H     H_    0.834942 0.233579 0.847455 0.161617
N3    N     N_2   0.799763 0.469458 0.709170 -0.515289
H48   H     H_    0.822501 0.399910 0.730647 0.266241
C89   C     C_3   0.894976 0.459898 0.681539 -0.309056
H49   H     H_    0.937690 0.376625 0.661668 0.147476
H50   H     H_    0.958266 0.464577 0.706010 0.129763
H51   H     H_    0.865062 0.528807 0.654551 0.163683
N4    N     N_2   0.474358 0.803382 0.222639 -0.537929
H52   H     H_    0.405130 0.812799 0.202804 0.239054
C90   C     C_3   0.465079 0.912231 0.235198 -0.300014
H53   H     H_    0.379912 0.969911 0.251379 0.146146
H54   H     H_    0.474795 0.952815 0.202249 0.144213
H55   H     H_    0.531079 0.901390 0.262182 0.167744
C91   C     C_3   0.269696 0.931179 0.371728 -0.246038
C92   C     C_3   0.257638 0.846984 0.337641 -0.475363
H56   H     H_    0.166385 0.879435 0.328367 0.149740
H57   H     H_    0.309147 0.831232 0.304189 0.162909
H58   H     H_    0.290366 0.763920 0.355988 0.131562
H59   H     H_    0.362348 0.897047 0.377647 0.191960
H60   H     H_    0.228101 0.931468 0.406390 0.167153
N5    N     N_2   0.060221 0.396233 0.304952 -0.523723
H61   H     H_    0.977730 0.442410 0.318102 0.254246
C93   C     C_3   0.122174 0.457794 0.309650 -0.325095
H62   H     H_    0.077306 0.537844 0.288749 0.136004
H63   H     H_    0.210425 0.405732 0.295053 0.149205
H64   H     H_    0.125947 0.480736 0.348208 0.133226
C94   C     C_3   0.472351 0.380050 0.129461 -0.268927
C95   C     C_3   0.459716 0.495455 0.143937 -0.411938
H65   H     H_    0.434284 0.515577 0.182656 0.129775
H66   H     H_    0.541700 0.494298 0.138673 0.197554
H67   H     H_    0.392836 0.563630 0.121391 0.132040
H68   H     H_    0.480242 0.367636 0.089586 0.162012
H69   H     H_    0.392116 0.380540 0.138954 0.121899

loop_
_geom_bond_atom_site_label_1
_geom_bond_atom_site_label_2
_geom_bond_distance
_ccdc_geom_bond_type
C64   H25   1.083873 S    
C19   C23   1.547869 S    
C62   C66   1.401178 A    
C56   C57   1.397906 A    
C73   H29   1.083424 S    
C85   H39   1.110794 S    
C20   H6    1.110117 S    
C37   C39   1.543618 S    
C58   C59   1.400980 A    
C35   N2    1.448693 S    
C4    C67   1.453026 S    
O25   C84   1.280428 A    
C23   C25   1.546876 S    
O4    Cr2   1.932906 S    
C47   C48   1.387561 A    
C31   C85   1.529404 S    
O21   Cr4   1.919079 S    
C64   C65   1.397721 A    
C82   O22   1.269379 A    
C12   C17   1.466382 S    
C14   C18   1.458705 S    
O7    C6    1.276913 A    
C55   C56   1.427108 A    
N2    H44   1.029096 S    
C74   H30   1.082839 S    
Cr5   O26   1.978147 S    
C70   C71   1.400289 A    
C92   H57   1.110837 S    
O4    C2    1.272990 A    
C52   H18   1.083820 S    
C87   H41   1.110813 S    
N3    H48   1.028492 S    
C83   O24   1.272325 A    
C61   C62   1.393463 A    
C95   H65   1.110857 S    
C73   C74   1.373460 A    
C33   C41   1.202759 T    
C43   C44   1.403882 A    
N5    C93   1.447519 S    
C74   C78   1.407037 A    
C75   C76   1.406156 A    
O17   C80   1.275244 A    
C50   H16   1.083706 S    
O22   Cr5   2.041374 S    
C67   C68   1.401613 A    
N1    C87   1.445649 S    
C24   C27   1.535878 S    
C37   H14   1.110137 S    
C68   C69   1.396388 A    
O6    C3    1.274147 A    
C25   C27   1.549906 S    
C26   C28   1.538000 S    
C85   C86   1.525630 S    
C13   C15   1.550502 S    
O7    Cr1   2.037458 S    
C20   C28   1.550229 S    
C27   H9    1.109943 S    
O9    Cr2   2.049529 S    
C89   H51   1.108927 S    
C50   C54   1.397504 A    
C51   H19   1.083718 S    
H8    C28   1.109260 S    
N4    C90   1.447652 S    
C37   C38   1.548252 S    
O15   Cr4   1.931439 S    
C21   C29   1.205818 T    
C3    C22   1.431963 S    
C33   C81   1.430060 S    
Cr3   O13   1.977594 S    
C68   H28   1.083129 S    
C88   H46   1.105133 S    
C11   H5    1.103435 S    
C57   C58   1.396417 A    
C95   H67   1.110182 S    
C39   N1    1.447860 S    
C46   C53   1.459211 S    
C69   C70   1.405489 A    
C89   H50   1.110435 S    
C55   C60   1.407946 A    
C51   C52   1.378063 A    
C8    C12   1.543762 S    
C19   H7    1.109715 S    
C31   C35   1.536944 S    
C24   C29   1.466574 S    
C62   H23   1.083211 S    
C2    C10   1.426072 S    
C47   H20   1.083355 S    
O1    Cr1   2.048013 S    
C21   C79   1.435136 S    
C63   H26   1.082497 S    
C5    O11   1.270479 A    
C93   H62   1.110181 S    
O16   Cr5   2.043475 S    
C87   H43   1.108342 S    
O23   Cr5   1.925341 S    
Cr1   O13   1.978888 S    
O1    C3    1.268164 A    
C46   C47   1.401250 A    
C95   H66   1.108842 S    
C44   C45   1.383802 A    
C92   H58   1.110437 S    
C39   C40   1.544124 S    
C54   C83   1.452122 S    
C9    C17   1.205855 T    
C31   C32   1.553106 S    
O18   Cr6   2.049081 S    
C78   C84   1.477114 S    
C63   C66   1.404487 A    
C8    C16   1.557720 S    
C72   H34   1.082308 S    
C73   C77   1.393938 A    
C38   C40   1.551210 S    
C75   C78   1.424618 A    
C14   C16   1.542062 S    
C59   N5    1.423831 S    
C45   C46   1.399138 A    
C93   H63   1.111085 S    
C92   H56   1.110884 S    
C11   C12   1.543571 S    
O10   Cr2   1.918691 S    
C23   H11   1.110120 S    
C70   C77   1.464320 S    
C60   H27   1.082815 S    
C56   C91   1.526814 S    
C23   C24   1.538641 S    
C86   H37   1.110262 S    
O20   Cr4   2.048682 S    
C43   C48   1.401964 A    
C36   C39   1.532240 S    
O8    Cr1   1.930327 S    
C59   C60   1.395957 A    
C22   C30   1.204182 T    
O12   C6    1.274546 A    
O17   Cr5   1.925975 S    
C91   H60   1.111067 S    
C85   H38   1.111039 S    
C8    H1    1.110117 S    
C76   C77   1.400434 A    
C75   C94   1.512103 S    
C35   C37   1.543491 S    
C69   H31   1.082971 S    
C2    O5    1.267759 A    
C32   C40   1.564538 S    
C45   H17   1.083436 S    
C19   C20   1.549644 S    
C5    C43   1.458127 S    
C34   C42   1.207915 T    
C25   C26   1.536861 S    
N1    H40   1.030723 S    
C49   C50   1.398925 A    
Cr2   O13   1.977937 S    
C1    O3    1.269680 A    
C7    C11   1.535901 S    
Cr4   O26   1.979005 S    
C51   C54   1.403265 A    
C89   H49   1.110150 S    
C15   H3    1.109905 S    
C94   H68   1.107532 S    
H13   C40   1.110174 S    
O19   Cr6   1.919969 S    
N4    H52   1.031830 S    
C12   C15   1.539167 S    
H2    C16   1.108802 S    
O2    Cr1   1.920317 S    
O23   C83   1.267624 A    
C9    C80   1.435293 S    
C49   N4    1.424577 S    
C13   C14   1.538725 S    
C86   H36   1.108518 S    
O19   C81   1.276036 A    
O6    Cr3   1.924157 S    
C90   H54   1.111584 S    
O21   C82   1.270744 A    
C58   C65   1.463558 S    
O11   Cr3   2.040544 S    
C71   C72   1.378506 A    
C80   O18   1.268284 A    
C94   H69   1.112217 S    
O3    Cr2   2.035642 S    
C1    C34   1.438578 S    
C48   H21   1.082691 S    
C25   H10   1.110373 S    
C13   H4    1.109769 S    
C6    C55   1.477880 S    
C7    C14   1.519402 S    
N2    C88   1.446431 S    
O2    C1    1.276683 A    
C93   H64   1.110446 S    
C27   C28   1.551302 S    
C26   C30   1.463807 S    
C61   C65   1.404257 A    
C79   O16   1.268710 A    
C35   C36   1.533867 S    
O5    Cr3   2.045802 S    
C71   H33   1.083639 S    
C88   H45   1.110014 S    
C7    N3    1.448007 S    
N3    C89   1.446427 S    
O20   C84   1.271248 A    
C19   C26   1.531220 S    
C63   C64   1.381352 A    
C20   C24   1.537017 S    
C15   C16   1.554870 S    
O15   C79   1.277000 A    
C38   C42   1.471288 S    
C91   H59   1.107299 S    
C44   H15   1.082935 S    
N5    H61   1.031217 S    
O24   Cr6   2.036950 S    
O12   Cr3   1.926385 S    
O14   Cr4   2.036459 S    
C90   H55   1.110380 S    
C57   H24   1.079868 S    
C7    C8    1.537998 S    
C66   C82   1.457435 S    
C94   C95   1.526897 S    
C49   C53   1.415949 A    
C76   H32   1.084088 S    
C31   C38   1.543168 S    
C32   H12   1.109566 S    
O14   C81   1.267830 A    
C4    O9    1.266868 A    
C10   C18   1.200665 T    
C88   H47   1.108005 S    
C11   C13   1.548845 S    
C52   C53   1.396199 A    
O25   Cr6   1.930731 S    
O10   C5    1.271750 A    
C86   H35   1.110539 S    
C36   C41   1.463462 S    
Cr6   O26   1.977653 S    
C67   C72   1.400439 A    
C61   H22   1.081606 S    
C32   C36   1.548848 S    
C91   C92   1.532202 S    
O8    C4    1.272613 A    
C87   H42   1.108341 S    
C90   H53   1.107716 S    
