data_mof_unit_19828.cif
_audit_creation_date              2013-03-05T15:54:32-0500
_audit_creation_method            fapswitch 2.2
_symmetry_space_group_name_H-M    P1
_symmetry_Int_Tables_number       1
_space_group_crystal_system       triclinic
_cell_length_a                    19.204864
_cell_length_b                    18.677954
_cell_length_c                    12.368123
_cell_angle_alpha                 89.781274
_cell_angle_beta                  130.197441
_cell_angle_gamma                 90.630278
_cell_volume                      3388.50267036

loop_
_atom_site_label
_atom_site_type_symbol
_atom_site_description
_atom_site_fract_x
_atom_site_fract_y
_atom_site_fract_z
_atom_type_partial_charge
O1    O     O_R   0.608610 0.924520 0.551740 -0.584027
O2    O     O_R   0.608610 0.075480 0.551740 -0.581687
O3    O     O_R   0.108610 0.424520 0.551740 -0.584044
O4    O     O_R   0.108610 0.575480 0.551740 -0.581685
O5    O     O_R   0.564110 0.924510 0.685150 -0.600609
O6    O     O_R   0.564110 0.075490 0.685150 -0.593631
O7    O     O_R   0.064110 0.424510 0.685150 -0.600629
O8    O     O_R   0.064110 0.575490 0.685150 -0.593615
C1    C     C_R   0.614182 0.900662 0.656493 0.765978
C2    C     C_R   0.614637 0.099647 0.656376 0.767105
C3    C     C_R   0.114178 0.400659 0.656487 0.765970
C4    C     C_R   0.114638 0.599646 0.656375 0.767099
Cu1   Cu    Cu3+1 0.526340 0.000000 0.421010 0.952156
Cu2   Cu    Cu3+1 0.026340 0.500000 0.421010 0.952191
Cu3   Cu    Cu3+1 0.473640 0.000000 0.578990 0.922379
Cu4   Cu    Cu3+1 0.973640 0.500000 0.578990 0.922376
O9    O     O_R   0.435880 0.075470 0.314850 -0.545993
O10   O     O_R   0.435880 0.924530 0.314850 -0.573459
O11   O     O_R   0.935880 0.575470 0.314850 -0.546049
O12   O     O_R   0.935880 0.424530 0.314850 -0.573363
O13   O     O_R   0.391380 0.075460 0.448260 -0.597378
O14   O     O_R   0.391380 0.924540 0.448260 -0.584936
O15   O     O_R   0.891380 0.575460 0.448260 -0.597351
O16   O     O_R   0.891380 0.424540 0.448260 -0.584975
C5    C     C_R   0.384598 0.098368 0.342300 0.792449
C6    C     C_R   0.385184 0.900586 0.343911 0.784209
C7    C     C_R   0.884599 0.598369 0.342300 0.792446
C8    C     C_R   0.885192 0.400579 0.343926 0.784247
C9    C     C_R   0.650637 0.323929 0.086407 -0.197297
C10   C     C_R   0.652398 0.677712 0.093307 -0.198510
C11   C     C_R   0.150572 0.824074 0.086159 -0.197284
C12   C     C_R   0.152417 0.177751 0.093369 -0.198516
H1    H     H_    0.215518 0.896729 0.260815 0.140362
H2    H     H_    0.217788 0.106174 0.268930 0.137698
H3    H     H_    0.715568 0.396636 0.260979 0.140369
H4    H     H_    0.717765 0.606123 0.268849 0.137694
H5    H     H_    0.516239 0.267039 0.837049 0.148316
H6    H     H_    0.517290 0.735873 0.846645 0.142222
H7    H     H_    0.016184 0.767236 0.836725 0.148167
H8    H     H_    0.017301 0.235925 0.846731 0.142230
H9    H     H_    0.583721 0.333265 0.053322 0.123742
H10   H     H_    0.586239 0.669390 0.064229 0.122152
H11   H     H_    0.083648 0.833443 0.053021 0.123783
H12   H     H_    0.086266 0.169456 0.064331 0.122150
C13   C     C_R   0.311872 0.850160 0.246137 -0.049008
C14   C     C_R   0.311801 0.147726 0.242833 -0.037586
C15   C     C_R   0.811909 0.350119 0.246220 -0.048969
C16   C     C_R   0.811797 0.647724 0.242830 -0.037580
C17   C     C_R   0.771926 0.143195 0.788839 -0.192362
C18   C     C_R   0.774618 0.868427 0.803132 -0.191807
C19   C     C_R   0.271924 0.643206 0.788818 -0.192389
C20   C     C_R   0.274594 0.368373 0.803036 -0.191830
C21   C     C_R   0.348738 0.677871 0.905956 -0.153079
C22   C     C_R   0.352365 0.343590 0.931727 -0.172786
C23   C     C_R   0.848760 0.177802 0.906054 -0.153162
C24   C     C_R   0.852386 0.843683 0.931876 -0.172737
C25   C     C_R   0.343118 0.718345 0.994201 -0.197765
C26   C     C_R   0.345126 0.301467 0.017149 -0.195822
C27   C     C_R   0.843158 0.218230 0.994365 -0.197903
C28   C     C_R   0.845133 0.801558 0.017283 -0.195933
C29   C     C_R   0.758393 0.228318 0.962244 0.075314
C30   C     C_R   0.759031 0.779019 0.970692 0.085892
C31   C     C_R   0.258354 0.728410 0.962094 0.075298
C32   C     C_R   0.259025 0.278977 0.970629 0.085832
C33   C     C_R   0.678997 0.197474 0.835977 0.078839
C34   C     C_R   0.679599 0.805914 0.840889 0.075704
C35   C     C_R   0.178970 0.697531 0.835863 0.078892
C36   C     C_R   0.179589 0.305899 0.840864 0.075673
C37   C     C_R   0.249215 0.769284 0.048996 0.083076
C38   C     C_R   0.249452 0.232421 0.051261 0.075788
C39   C     C_R   0.749264 0.269182 0.049170 0.083153
C40   C     C_R   0.749452 0.732440 0.051290 0.075808
C41   C     C_R   0.661095 0.281711 0.004395 0.173715
C42   C     C_R   0.662018 0.720242 0.009972 0.166689
C43   C     C_R   0.161038 0.781850 0.004161 0.173811
C44   C     C_R   0.162028 0.220258 0.009998 0.166712
C45   C     C_R   0.583879 0.255127 0.875035 -0.262762
C46   C     C_R   0.584743 0.747391 0.882349 -0.243461
C47   C     C_R   0.083829 0.755278 0.874777 -0.262715
C48   C     C_R   0.084750 0.247419 0.882396 -0.243475
C49   C     C_R   0.592481 0.214311 0.791280 -0.192773
C50   C     C_R   0.593063 0.786588 0.795734 -0.199809
C51   C     C_R   0.092446 0.714391 0.791109 -0.192850
C52   C     C_R   0.093058 0.286602 0.795756 -0.199808
C53   C     C_R   0.324470 0.800984 0.176173 -0.297527
C54   C     C_R   0.323318 0.194081 0.166856 -0.260749
C55   C     C_R   0.824515 0.300929 0.176289 -0.297563
C56   C     C_R   0.823322 0.694105 0.166894 -0.260798
C57   C     C_R   0.225682 0.859116 0.205743 -0.184863
C58   C     C_R   0.227350 0.142103 0.210376 -0.193007
C59   C     C_R   0.725735 0.359023 0.205911 -0.184783
C60   C     C_R   0.727333 0.642072 0.210326 -0.192964
C61   C     C_R   0.687604 0.150614 0.755976 -0.104582
C62   C     C_R   0.688507 0.853200 0.760671 -0.102699
C63   C     C_R   0.187597 0.650627 0.755943 -0.104566
C64   C     C_R   0.188492 0.353181 0.760637 -0.102709
H13   H     H_    0.393375 0.793376 0.217992 0.130608
H14   H     H_    0.389233 0.195559 0.194197 0.147934
H15   H     H_    0.893415 0.293363 0.218057 0.130543
H16   H     H_    0.889247 0.695607 0.194265 0.147885
H17   H     H_    0.779439 0.107625 0.728019 0.144215
H18   H     H_    0.782355 0.905219 0.743460 0.143200
H19   H     H_    0.279451 0.607604 0.728053 0.144192
H20   H     H_    0.282327 0.405161 0.743356 0.143236
H21   H     H_    0.406183 0.742028 0.084702 0.124564
H22   H     H_    0.408117 0.288395 0.120302 0.131056
H23   H     H_    0.906242 0.241852 0.084936 0.124606
H24   H     H_    0.908113 0.788513 0.120472 0.131000
H25   H     H_    0.413867 0.671190 0.931592 0.128797
H26   H     H_    0.418888 0.359536 0.968308 0.131822
H27   H     H_    0.913889 0.171109 0.931698 0.128825
H28   H     H_    0.918911 0.859658 0.968505 0.131859
H29   H     H_    0.530152 0.197479 0.689147 0.166735
H30   H     H_    0.530675 0.801880 0.693096 0.165244
H31   H     H_    0.030127 0.697530 0.688990 0.166681
H32   H     H_    0.030664 0.301904 0.693135 0.165272
C65   C     C_R   0.688372 0.997566 0.297483 -0.314584
C66   C     C_R   0.188379 0.497635 0.297491 -0.314631
H33   H     H_    0.704897 0.997874 0.486380 0.139572
H34   H     H_    0.204900 0.497962 0.486385 0.139558
H35   H     H_    0.761173 0.993765 0.358850 0.144521
H36   H     H_    0.261184 0.493877 0.358862 0.144529
N1    N     N_R   0.566260 0.000000 0.302220 -0.220696
N2    N     N_R   0.066260 0.500000 0.302220 -0.220650
C67   C     C_R   0.346814 0.019026 0.629021 0.053650
C68   C     C_R   0.846800 0.518985 0.629017 0.053582
C69   C     C_R   0.323899 0.052090 0.703172 -0.335072
C70   C     C_R   0.823856 0.552006 0.703164 -0.334956
C71   C     C_R   0.388942 0.058857 0.851268 0.233426
C72   C     C_R   0.888898 0.558784 0.851258 0.233542
C73   C     C_R   0.471046 0.019737 0.924846 0.005483
C74   C     C_R   0.971037 0.519715 0.924844 0.005653
C75   C     C_R   0.498043 0.001883 0.845298 0.175098
C76   C     C_R   0.998043 0.501887 0.845298 0.175150
C77   C     C_R   0.532660 0.008078 0.075344 -0.121985
C78   C     C_R   0.032661 0.508068 0.075345 -0.122234
C79   C     C_R   0.626886 0.000927 0.148091 0.036369
C80   C     C_R   0.126891 0.500960 0.148095 0.036360
C81   C     C_R   0.657572 0.998318 0.070330 0.113712
C82   C     C_R   0.157575 0.498350 0.070331 0.113780
C83   C     C_R   0.592293 0.995758 0.921230 -0.158954
C84   C     C_R   0.092294 0.495775 0.921230 -0.158922
C85   C     C_R   0.503378 0.000447 0.155664 0.615155
C86   C     C_R   0.003383 0.500404 0.155664 0.615121
C87   C     C_R   0.656788 0.999134 0.371892 -0.015877
C88   C     C_R   0.156790 0.499190 0.371896 -0.015846
N3    N     N_R   0.434410 0.000000 0.697680 -0.197150
N4    N     N_R   0.934410 0.500000 0.697680 -0.197156
H37   H     H_    0.298111 0.018821 0.514563 0.127582
H38   H     H_    0.798098 0.518775 0.514559 0.127579
H39   H     H_    0.258606 0.078261 0.643979 0.139510
H40   H     H_    0.758544 0.578145 0.643967 0.139526
H41   H     H_    0.617272 0.994246 0.866420 0.222908
H42   H     H_    0.117272 0.494256 0.866418 0.222896
C89   C     C_3   0.759845 0.997035 0.148418 -0.396133
C90   C     C_3   0.787787 0.001463 0.057408 -0.846946
H43   H     H_    0.762598 0.953751 0.987886 0.262068
H44   H     H_    0.761345 0.051089 0.993203 0.260259
H45   H     H_    0.863309 0.002738 0.126997 0.244940
H46   H     H_    0.792787 0.043497 0.222285 0.209454
H47   H     H_    0.788715 0.947090 0.211675 0.207712
C91   C     C_3   0.259849 0.497074 0.148416 -0.396130
C92   C     C_3   0.287787 0.501443 0.057396 -0.846969
H48   H     H_    0.262599 0.453708 0.987928 0.262060
H49   H     H_    0.261346 0.551051 0.993136 0.260229
H50   H     H_    0.363309 0.502716 0.126983 0.244938
H51   H     H_    0.292778 0.543561 0.222219 0.209451
H52   H     H_    0.288732 0.447151 0.211740 0.207708
O17   O     O_3   0.411266 0.993191 0.086072 -0.598049
C93   C     C_3   0.382019 0.920916 0.045026 0.096562
H53   H     H_    0.329637 0.911693 0.055313 0.201141
H54   H     H_    0.437286 0.881108 0.112749 0.126572
C94   C     C_3   0.332709 0.906307 0.889294 -0.876412
H55   H     H_    0.381770 0.901240 0.870978 0.242112
H56   H     H_    0.294822 0.854698 0.857218 0.229250
H57   H     H_    0.282337 0.948788 0.822170 0.264040
O18   O     O_3   0.911282 0.493041 0.086066 -0.598112
C95   C     C_3   0.882174 0.420736 0.045133 0.096538
H58   H     H_    0.829717 0.411473 0.055241 0.201134
H59   H     H_    0.937495 0.380992 0.113050 0.126639
C96   C     C_3   0.833055 0.406048 0.889492 -0.876530
H60   H     H_    0.882229 0.401020 0.871402 0.242075
H61   H     H_    0.795252 0.354401 0.857446 0.229323
H62   H     H_    0.782627 0.448465 0.822184 0.264089
C97   C     C_3   0.381807 0.123176 0.918937 -0.353961
C98   C     C_3   0.469313 0.169065 0.002971 -0.844620
H63   H     H_    0.499663 0.169001 0.951215 0.260676
H64   H     H_    0.455192 0.225102 0.009333 0.239596
H65   H     H_    0.520206 0.148955 0.112714 0.249338
H66   H     H_    0.324600 0.157798 0.835415 0.196406
H67   H     H_    0.365871 0.107832 0.987295 0.245443
C99   C     C_3   0.881740 0.623090 0.918919 -0.354291
C100  C     C_3   0.969090 0.669135 0.002376 -0.844798
H68   H     H_    0.998896 0.669370 0.949801 0.260687
H69   H     H_    0.954950 0.725070 0.009297 0.239782
H70   H     H_    0.020414 0.648931 0.111936 0.249425
H71   H     H_    0.824337 0.657588 0.835444 0.196485
H72   H     H_    0.866143 0.607741 0.987699 0.245526

loop_
_geom_bond_atom_site_label_1
_geom_bond_atom_site_label_2
_geom_bond_distance
_ccdc_geom_bond_type
C7    C16   1.455162 S    
C3    C64   1.458963 S    
C25   H21   1.075858 S    
C8    C15   1.453788 S    
H34   C88   1.081981 S    
C71   C97   1.523755 S    
C81   C83   1.410576 A    
O17   C93   1.419872 S    
C13   C53   1.390022 A    
C92   H48   1.107701 S    
O10   C6    1.310731 A    
C16   C60   1.399585 A    
C48   C52   1.386175 A    
C83   H41   1.053895 S    
H2    C58   1.083410 S    
C95   H58   1.104107 S    
C20   C64   1.400464 A    
C97   H66   1.112575 S    
H3    C59   1.083468 S    
C96   H60   1.107083 S    
C89   H47   1.111576 S    
O7    C3    1.303595 A    
C79   C81   1.416773 A    
C36   C64   1.415178 A    
C43   C47   1.390211 A    
C11   H11   1.083954 S    
Cu1   O10   1.935178 S    
C32   C36   1.416403 A    
C65   C87   1.391730 A    
C90   H43   1.107686 S    
C92   H49   1.109877 S    
C82   C84   1.410586 A    
C73   C77   1.439356 A    
C10   C60   1.390675 A    
C17   H17   1.083547 S    
C10   C42   1.401381 A    
C96   H62   1.108928 S    
C9    C41   1.401270 A    
C93   H53   1.104130 S    
C82   C91   1.530814 S    
C22   H26   1.082624 S    
C28   C30   1.414269 A    
C66   H36   1.080663 S    
O2    Cu1   1.941383 S    
C65   H35   1.080668 S    
C6    C13   1.453788 S    
C69   H39   1.083058 S    
O6    Cu3   1.935533 S    
C33   C49   1.410560 A    
C70   H40   1.083054 S    
Cu3   O14   1.941064 S    
C12   C58   1.390672 A    
N1    C87   1.353541 A    
C72   C99   1.523712 S    
C11   C57   1.388989 A    
C19   C63   1.400625 A    
C14   C58   1.399583 A    
C68   C70   1.395519 A    
C44   C48   1.392003 A    
C16   C56   1.392635 A    
C4    C63   1.462443 S    
C25   C31   1.419405 A    
C75   N3    1.395525 A    
C32   C38   1.418104 A    
O4    C4    1.304551 A    
O11   C7    1.307714 A    
C28   H24   1.078245 S    
C53   H13   1.076539 S    
O8    C4    1.306454 A    
C34   C62   1.415188 A    
C9    H9    1.083951 S    
H4    C60   1.083410 S    
C96   H61   1.109426 S    
O8    Cu4   1.935533 S    
C35   C63   1.411825 A    
C10   H10   1.083547 S    
C40   C56   1.402068 A    
C20   C22   1.385402 A    
C97   H67   1.104931 S    
C55   H15   1.076526 S    
O15   C7    1.301599 A    
C94   H56   1.109450 S    
C26   C32   1.414290 A    
C31   C35   1.417553 A    
C27   C29   1.419415 A    
Cu2   N2    2.049470 S    
C30   C34   1.416400 A    
C36   C52   1.412226 A    
C51   H31   1.081788 S    
C66   C88   1.391760 A    
C92   H50   1.110386 S    
O1    C1    1.306247 A    
C85   O17   1.385172 S    
C40   C42   1.420358 A    
C67   N3    1.358023 A    
C39   C41   1.423359 A    
C68   N4    1.358026 A    
H1    C57   1.083470 S    
C18   C62   1.400465 A    
O12   C8    1.310772 A    
C2    C61   1.462440 S    
C100  H69   1.099764 S    
C94   H55   1.107092 S    
N2    C88   1.353553 A    
C18   C24   1.385419 A    
C24   C28   1.391198 A    
C26   H22   1.078232 S    
H7    C47   1.084168 S    
C72   C74   1.419943 A    
C69   C71   1.405764 A    
O5    C1    1.303580 A    
C14   C54   1.392624 A    
Cu2   O12   1.935178 S    
C76   C84   1.407419 A    
C49   H29   1.081782 S    
C46   C50   1.386185 A    
C11   C43   1.401283 A    
C45   C49   1.382478 A    
C74   C78   1.439344 A    
C100  H70   1.109188 S    
H8    C48   1.084252 S    
C12   H12   1.083548 S    
C30   C40   1.418098 A    
C35   C51   1.410538 A    
C84   H42   1.053899 S    
C50   H30   1.081682 S    
C56   H16   1.079056 S    
O3    Cu2   1.957595 S    
C67   H37   1.081501 S    
O18   C95   1.419851 S    
C74   C76   1.418717 A    
C39   C55   1.402615 A    
C78   C80   1.415853 A    
O7    Cu4   1.955970 S    
C18   H18   1.083710 S    
Cu4   O15   1.957268 S    
C99   H72   1.104858 S    
Cu1   Cu3   2.719346 S    
C38   C44   1.420364 A    
C91   H52   1.111574 S    
C52   H32   1.081679 S    
O1    Cu1   1.957595 S    
C98   H64   1.099834 S    
C38   C54   1.402049 A    
C23   C27   1.390879 A    
C9    C59   1.388966 A    
C37   C53   1.402607 A    
C91   C92   1.529668 S    
C22   C26   1.391187 A    
C94   H57   1.108956 S    
C21   H25   1.082481 S    
C77   C79   1.415874 A    
O13   C5    1.301595 A    
C20   H20   1.083709 S    
C21   C25   1.390877 A    
C13   C57   1.398365 A    
C23   H27   1.082479 S    
C89   H46   1.111707 S    
C15   C59   1.398368 A    
Cu2   O11   1.955607 S    
C90   H45   1.110384 S    
C65   C79   1.413025 A    
O16   C8    1.298028 A    
C73   C75   1.418725 A    
C70   C72   1.405759 A    
C12   C44   1.401384 A    
C95   H59   1.116239 S    
C80   C82   1.416779 A    
H33   C87   1.081984 S    
H6    C46   1.084251 S    
C81   C89   1.530815 S    
C75   C83   1.407415 A    
Cu1   O9    1.955607 S    
Cu4   N4    2.037207 S    
C17   C61   1.400614 A    
C99   C100  1.535936 S    
C98   H65   1.109231 S    
C90   H44   1.109872 S    
C76   N4    1.395521 A    
O9    C5    1.307711 A    
C31   C37   1.421826 A    
C78   C86   1.428875 A    
C17   C23   1.386241 A    
C99   H71   1.112545 S    
Cu3   N3    2.037207 S    
C68   H38   1.081502 S    
C29   C39   1.421849 A    
C97   C98   1.536073 S    
C93   H54   1.116243 S    
Cu1   N1    2.049470 S    
C1    C62   1.458964 S    
C33   C61   1.411859 A    
C77   C85   1.428889 A    
C37   C43   1.423339 A    
Cu2   Cu4   2.719346 S    
O4    Cu2   1.941383 S    
C54   H14   1.079042 S    
C27   H23   1.075845 S    
O5    Cu3   1.955970 S    
C95   C96   1.524796 S    
O3    C3    1.306234 A    
O6    C2    1.306421 A    
O14   C6    1.298069 A    
C91   H51   1.111706 S    
C47   C51   1.382505 A    
C29   C33   1.417561 A    
Cu3   O13   1.957268 S    
H5    C45   1.084181 S    
C86   O18   1.385147 S    
Cu4   O16   1.941064 S    
C100  H68   1.109477 S    
C42   C46   1.392013 A    
N1    C85   1.385106 A    
C89   C90   1.529660 S    
C67   C69   1.395508 A    
C41   C45   1.390193 A    
N2    C86   1.385092 A    
C19   C21   1.386252 A    
C98   H63   1.109553 S    
C66   C80   1.413030 A    
C19   H19   1.083549 S    
C5    C14   1.455148 S    
C24   H28   1.082624 S    
C34   C50   1.412223 A    
C15   C55   1.389999 A    
C71   C73   1.419962 A    
C93   C94   1.524790 S    
O2    C2    1.304582 A    
