data_mof_unit_61439.cif
_audit_creation_date              2012-12-10T20:43:46-0500
_audit_creation_method            fapswitch 2.2
_symmetry_space_group_name_H-M    P1
_symmetry_Int_Tables_number       1
_space_group_crystal_system       triclinic
_cell_length_a                    10.823702
_cell_length_b                    19.211216
_cell_length_c                    19.216657
_cell_angle_alpha                 94.89362
_cell_angle_beta                  92.096187
_cell_angle_gamma                 96.426267
_cell_volume                      3951.96732066

loop_
_atom_site_label
_atom_site_type_symbol
_atom_type_description
_atom_site_fract_x
_atom_site_fract_y
_atom_site_fract_z
_atom_type_partial_charge
C1    C     C_R   0.512839 0.690232 0.508271 0.515884
C2    C     C_R   0.518347 0.767387 0.512795 -0.041117
C3    C     C_R   0.452153 0.802658 0.563533 -0.137747
C4    C     C_R   0.487207 0.309654 0.491748 0.511078
C5    C     C_R   0.458977 0.876073 0.569412 0.271217
C6    C     C_R   0.487367 0.512024 0.765858 0.029658
C7    C     C_R   0.543132 0.462714 0.802497 -0.149981
C8    C     C_R   0.546939 0.467947 0.875218 -0.090812
C9    C     C_R   0.495072 0.523004 0.912829 0.225072
C10   C     C_R   0.441003 0.572693 0.876247 -0.109472
C11   C     C_R   0.435873 0.566971 0.803242 -0.147527
C12   C     C_R   0.554051 0.202316 0.538288 -0.148866
C13   C     C_R   0.560353 0.543574 0.127711 -0.088332
C14   C     C_R   0.563429 0.547086 0.200617 -0.147911
C15   C     C_R   0.510909 0.480983 0.087833 0.224162
C16   C     C_R   0.512735 0.492630 0.310952 0.509244
C17   C     C_R   0.515931 0.488619 0.234439 0.030673
C18   C     C_R   0.468567 0.426094 0.194502 -0.143200
C19   C     C_R   0.467752 0.422197 0.121816 -0.107561
C20   C     C_R   0.487586 0.507234 0.689107 0.508890
C21   C     C_R   0.835138 0.515332 0.515435 0.497836
C22   C     C_R   0.163851 0.485080 0.485084 0.513028
C23   C     C_R   0.553923 0.129753 0.535480 -0.083248
C24   C     C_2   0.029011 0.479348 0.479219 -0.115186
C25   C     C_2   0.968405 0.521015 0.521398 -0.099217
C26   C     C_R   0.484516 0.232651 0.488305 0.027498
C27   C     C_3   0.455583 0.914773 0.683975 -0.109913
C28   C     C_R   0.483719 0.085633 0.482276 0.238211
C29   C     C_R   0.415021 0.116005 0.432194 -0.097654
C30   C     C_R   0.414828 0.188929 0.435178 -0.144740
C31   C     C_R   0.594816 0.879535 0.471253 0.076499
C32   C     C_R   0.590305 0.806374 0.467119 -0.142627
C33   C     C_R   0.527005 0.914441 0.521810 0.246003
H1    H     H_    0.978729 0.441015 0.440342 0.108723
H2    H     H_    0.584094 0.420036 0.774962 0.138731
H3    H     H_    0.016334 0.559629 0.560730 0.126210
H4    H     H_    0.642952 0.780127 0.428085 0.171848
H5    H     H_    0.361038 0.082938 0.390852 0.136692
H6    H     H_    0.360807 0.211029 0.395801 0.141676
H7    H     H_    0.395760 0.773550 0.599156 0.153044
H8    H     H_    0.609261 0.108553 0.574884 0.142811
H9    H     H_    0.550955 0.943075 0.682541 0.122774
H10   H     H_    0.459986 0.861742 0.702487 0.105558
H11   H     H_    0.404264 0.945192 0.722625 0.151568
H12   H     H_    0.608951 0.234666 0.579777 0.141513
H13   H     H_    0.600717 0.595761 0.230456 0.140296
H14   H     H_    0.597098 0.589366 0.102634 0.140972
H15   H     H_    0.401795 0.615618 0.904458 0.124380
H16   H     H_    0.393464 0.606083 0.776144 0.136218
H17   H     H_    0.432598 0.380057 0.219492 0.137982
H18   H     H_    0.591653 0.429409 0.901918 0.139249
H19   H     H_    0.431225 0.373532 0.091712 0.124854
I1    I     I_    0.709832 0.934801 0.402323 -0.329832
N1    N     N_2   0.480417 0.011134 0.477165 -0.190228
N2    N     N_2   0.531612 0.988365 0.528374 -0.206551
N3    N     N_2   0.497903 0.530595 0.987025 -0.244338
N4    N     N_2   0.506374 0.474311 0.013788 -0.248744
O1    O     O_3   0.500000 0.500000 0.500000 -0.439073
O2    O     O_R   0.783160 0.551820 0.473170 -0.528996
O3    O     O_R   0.222430 0.530340 0.530340 -0.539351
O4    O     O_R   0.771990 0.472690 0.551320 -0.533906
O5    O     O_R   0.222420 0.445150 0.445160 -0.532839
O6    O     O_3   0.391268 0.910431 0.618340 -0.536717
O7    O     O_R   0.435070 0.449940 0.339290 -0.545133
O8    O     O_R   0.419380 0.543640 0.654290 -0.546137
O9    O     O_R   0.586230 0.658380 0.469080 -0.538604
O10   O     O_R   0.559310 0.348040 0.537340 -0.545672
O11   O     O_R   0.435110 0.654980 0.544320 -0.545836
O12   O     O_R   0.419350 0.338590 0.449260 -0.544696
O13   O     O_R   0.586210 0.538520 0.349230 -0.540450
O14   O     O_R   0.559330 0.467910 0.657200 -0.545318
Zn1   Zn    Zn3+2 0.396020 0.434560 0.434560 0.946416
Zn2   Zn    Zn3+2 0.611960 0.561120 0.448760 0.950192
Zn3   Zn    Zn3+2 0.595990 0.448060 0.560420 0.940626
Zn4   Zn    Zn3+2 0.396040 0.556260 0.556260 0.940250

loop_
_geom_bond_atom_site_label_1
_geom_bond_atom_site_label_2
_ccdc_geom_bond_type
C33   N2    S    
C7    C8    A    
C14   H13   S    
O11   Zn4   S    
C15   C19   A    
C12   C23   A    
O1    Zn3   S    
C28   C29   A    
C21   O2    A    
C22   O3    A    
C1    O11   A    
N3    N4    D    
C5    O6    S    
C2    C32   A    
C1    C2    S    
C27   H11   S    
C8    C9    A    
C5    C33   A    
C29   H5    S    
C31   C33   A    
C20   O14   A    
C9    C10   A    
O2    Zn2   S    
C21   O4    A    
C13   C14   A    
C15   N4    S    
C14   C17   A    
C19   H19   S    
C4    O12   A    
O1    Zn4   S    
C1    O9    A    
C20   O8    A    
C16   O13   A    
C24   C25   D    
C6    C11   A    
O10   Zn3   S    
C28   N1    S    
C18   C19   A    
C23   C28   A    
O9    Zn2   S    
C24   H1    S    
C12   C26   A    
O12   Zn1   S    
C29   C30   A    
C11   H16   S    
C22   O5    A    
C31   C32   A    
O13   Zn2   S    
C17   C18   A    
O5    Zn1   S    
C9    N3    S    
C32   H4    S    
C31   I1    S    
C8    H18   S    
C27   O6    S    
C3    H7    S    
C26   C30   A    
C13   C15   A    
C10   H15   S    
C22   C24   S    
C18   H17   S    
C13   H14   S    
C21   C25   S    
N1    N2    D    
C7    H2    S    
C12   H12   S    
C3    C5    A    
C4    O10   A    
O8    Zn4   S    
O14   Zn3   S    
C4    C26   S    
C6    C7    A    
O4    Zn3   S    
C6    C20   S    
O3    Zn4   S    
C23   H8    S    
C2    C3    A    
C27   H9    S    
O1    Zn1   S    
C16   C17   S    
C30   H6    S    
O7    Zn1   S    
C10   C11   A    
C25   H3    S    
C27   H10   S    
C16   O7    A    
O1    Zn2   S    
