data_mof_unit_32694.cif
_audit_creation_date              2012-12-10T16:51:48-0500
_audit_creation_method            fapswitch 2.2
_symmetry_space_group_name_H-M    P1
_symmetry_Int_Tables_number       1
_space_group_crystal_system       triclinic
_cell_length_a                    15.357542
_cell_length_b                    15.500253
_cell_length_c                    9.743184
_cell_angle_alpha                 88.616185
_cell_angle_beta                  91.013177
_cell_angle_gamma                 89.687438
_cell_volume                      2318.24481822

loop_
_atom_site_label
_atom_site_type_symbol
_atom_type_description
_atom_site_fract_x
_atom_site_fract_y
_atom_site_fract_z
_atom_type_partial_charge
C1    C     C_R   0.380434 0.885410 0.500562 0.892752
C2    C     C_R   0.383786 0.118436 0.497948 0.892979
C3    C     C_R   0.880439 0.385403 0.500562 0.892757
C4    C     C_R   0.883786 0.618436 0.497948 0.893037
C5    C     C_R   0.617604 0.116787 0.499204 0.831526
C6    C     C_R   0.610612 0.876243 0.502036 0.776968
C7    C     C_R   0.117612 0.616779 0.499204 0.831409
C8    C     C_R   0.110613 0.376244 0.502037 0.776866
C9    C     C_2   0.683050 0.749908 0.397141 0.016633
C10   C     C_2   0.693515 0.242096 0.403439 -0.030588
C11   C     C_2   0.183053 0.249910 0.397142 0.016620
C12   C     C_2   0.193524 0.742088 0.403462 -0.030625
C13   C     C_2   0.658771 0.793533 0.510710 -0.168125
C14   C     C_2   0.692233 0.173476 0.494266 -0.159244
C15   C     C_2   0.158773 0.293534 0.510711 -0.168142
C16   C     C_2   0.192253 0.673452 0.494263 -0.159285
C17   C     C_2   0.251925 0.183287 0.404369 -0.196680
C18   C     C_2   0.270452 0.796763 0.391859 -0.142471
C19   C     C_2   0.751925 0.683288 0.404366 -0.196705
C20   C     C_2   0.770448 0.296768 0.391849 -0.142465
C21   C     C_2   0.319648 0.186926 0.492389 -0.225850
C22   C     C_2   0.306419 0.828587 0.505126 -0.223168
C23   C     C_2   0.819646 0.686925 0.492390 -0.225841
C24   C     C_2   0.806432 0.328570 0.505121 -0.223426
C25   C     C_2   0.430332 0.993570 0.922091 -0.131011
C26   C     C_2   0.930333 0.493559 0.922092 -0.131024
C27   C     C_2   0.429643 0.009459 0.073841 0.068781
C28   C     C_2   0.929642 0.509452 0.073841 0.068784
Cu1   Cu    Cu3+1 0.500020 1.000000 0.638630 0.962669
Cu2   Cu    Cu3+1 0.000020 0.500000 0.638630 0.962651
Cu3   Cu    Cu3+1 0.499980 0.000000 0.361370 1.040345
Cu4   Cu    Cu3+1 0.999980 0.500000 0.361370 1.040307
H1    H     H_    0.247885 0.131104 0.332210 0.178241
H2    H     H_    0.292976 0.815705 0.290472 0.188910
H3    H     H_    0.747890 0.631108 0.332201 0.178233
H4    H     H_    0.792964 0.315727 0.290466 0.188940
H5    H     H_    0.327213 0.239066 0.563832 0.132472
H6    H     H_    0.279308 0.813476 0.605223 0.143146
H7    H     H_    0.827207 0.739061 0.563839 0.132494
H8    H     H_    0.779327 0.313454 0.605219 0.143043
H9    H     H_    0.369028 0.977463 0.872102 0.161967
H10   H     H_    0.869032 0.477439 0.872105 0.161967
H11   H     H_    0.550175 0.966862 0.113548 0.214045
H12   H     H_    0.050181 0.466872 0.113545 0.214031
N1    N     N_2   0.498660 1.000000 0.846910 -0.223587
N2    N     N_2   0.998660 0.500000 0.846910 -0.223587
N3    N     N_2   0.498630 0.000000 0.153040 -0.287706
N4    N     N_2   0.998630 0.500000 0.153040 -0.287712
O1    O     O_R   0.410990 0.910970 0.617040 -0.594901
O2    O     O_R   0.410990 0.089030 0.617040 -0.585623
O3    O     O_R   0.910990 0.410970 0.617040 -0.594913
O4    O     O_R   0.910990 0.589030 0.617040 -0.585608
O5    O     O_R   0.410950 0.910970 0.382900 -0.513054
O6    O     O_R   0.410950 0.089030 0.382900 -0.554099
O7    O     O_R   0.910950 0.410970 0.382900 -0.513033
O8    O     O_R   0.910950 0.589030 0.382900 -0.554092
O9    O     O_R   0.589050 0.089030 0.617100 -0.602036
O10   O     O_R   0.589050 0.910970 0.617100 -0.608141
O11   O     O_R   0.089050 0.589030 0.617100 -0.601989
O12   O     O_R   0.089050 0.410970 0.617100 -0.608159
O13   O     O_R   0.589010 0.089030 0.382960 -0.541246
O14   O     O_R   0.589010 0.910970 0.382960 -0.546334
O15   O     O_R   0.089010 0.589030 0.382960 -0.541282
O16   O     O_R   0.089010 0.410970 0.382960 -0.546348
C29   C     C_2   0.642133 0.763017 0.258935 0.400675
H13   H     H_    0.681879 0.758765 0.168281 0.043215
O17   O     O_2   0.563373 0.771654 0.244659 -0.505159
C30   C     C_2   0.617119 0.272380 0.318445 0.382396
H14   H     H_    0.627702 0.313729 0.228864 0.072005
O18   O     O_2   0.542356 0.256450 0.350790 -0.552292
C31   C     C_2   0.142142 0.263024 0.258934 0.400687
H15   H     H_    0.181894 0.258790 0.168288 0.043209
O19   O     O_2   0.063383 0.271651 0.244647 -0.505150
C32   C     C_2   0.117118 0.772386 0.318501 0.382408
H16   H     H_    0.127691 0.813740 0.228923 0.072015
O20   O     O_2   0.042357 0.756459 0.350871 -0.552265
C33   C     C_2   0.672645 0.756050 0.652379 0.372406
H17   H     H_    0.681049 0.798109 0.738987 0.064372
O21   O     O_2   0.670828 0.678142 0.674220 -0.510572
C34   C     C_2   0.769865 0.140409 0.573759 0.318753
H18   H     H_    0.760734 0.103700 0.668506 0.095255
O22   O     O_2   0.843602 0.148445 0.530533 -0.500479
C35   C     C_2   0.172648 0.256053 0.652382 0.372389
H19   H     H_    0.181053 0.298113 0.738990 0.064372
O23   O     O_2   0.170832 0.178145 0.674224 -0.510571
C36   C     C_2   0.269888 0.640348 0.573733 0.318885
H20   H     H_    0.260738 0.603406 0.668258 0.095160
O24   O     O_2   0.343654 0.648611 0.530726 -0.500566
C37   C     C_R   0.572124 0.046692 0.896398 0.321384
C38   C     C_R   0.654141 0.006383 0.904576 -0.189609
C39   C     C_R   0.727098 0.052144 0.949426 -0.182255
C40   C     C_R   0.719052 0.139021 0.982714 -0.105878
C41   C     C_R   0.638089 0.180369 0.970732 -0.161132
C42   C     C_R   0.564819 0.134652 0.927262 -0.128172
H21   H     H_    0.661050 0.939267 0.878379 0.134002
H22   H     H_    0.789998 0.020424 0.957419 0.156416
H23   H     H_    0.775658 0.174481 0.016740 0.152658
H24   H     H_    0.632178 0.247944 0.994477 0.135790
H25   H     H_    0.502507 0.167431 0.917211 0.123182
C43   C     C_R   0.072110 0.546716 0.896392 0.321397
C44   C     C_R   0.154142 0.506435 0.904554 -0.189649
C45   C     C_R   0.227089 0.552224 0.949380 -0.182255
C46   C     C_R   0.219015 0.639101 0.982665 -0.105791
C47   C     C_R   0.138035 0.680419 0.970705 -0.161093
C48   C     C_R   0.064777 0.634675 0.927255 -0.128155
H26   H     H_    0.161074 0.439321 0.878356 0.133991
H27   H     H_    0.290002 0.520528 0.957355 0.156397
H28   H     H_    0.275612 0.674583 0.016672 0.152624
H29   H     H_    0.132101 0.747993 0.994449 0.135796
H30   H     H_    0.002453 0.667433 0.917216 0.123170
C49   C     C_2   0.345502 0.037377 0.127542 0.434837
H31   H     H_    0.316809 0.097875 0.090534 0.022366
O25   O     O_2   0.304489 0.990628 0.204895 -0.561413
C50   C     C_2   0.845500 0.537369 0.127539 0.434822
H32   H     H_    0.816804 0.597864 0.090521 0.022361
O26   O     O_2   0.804489 0.490621 0.204898 -0.561411

loop_
_geom_bond_atom_site_label_1
_geom_bond_atom_site_label_2
_ccdc_geom_bond_type
C48   H30   S    
C41   C42   A    
C12   C32   S    
C6    O10   A    
C49   H31   S    
Cu2   O3    S    
C50   H32   S    
C38   H21   S    
Cu1   O1    S    
C33   H17   S    
C43   C48   A    
C44   C45   A    
C32   O20   D    
C4    O4    A    
C47   H29   S    
C11   C31   S    
C22   H6    S    
C37   C42   A    
Cu3   O13   S    
C43   C44   A    
C9    C13   D    
C2    O2    A    
C39   H22   S    
C11   C15   D    
C9    C19   S    
C11   C17   S    
C20   C24   D    
C10   C20   S    
C30   H14   S    
C29   O17   D    
Cu2   O12   S    
C46   H28   S    
C14   C34   S    
N1    C37   S    
Cu4   O7    S    
C27   C49   S    
C1    C22   S    
Cu3   N3    S    
C4    O8    A    
C16   C36   S    
Cu4   N4    S    
Cu3   O14   S    
C3    C24   S    
C17   H1    S    
C7    O11   A    
C47   C48   A    
C40   H23   S    
C9    C29   S    
Cu1   O2    S    
C33   O21   D    
C13   C33   S    
C32   H16   S    
C12   C16   D    
Cu4   O16   S    
C34   O22   D    
C10   C14   D    
C25   H9    S    
C39   C40   A    
C31   O19   D    
C4    C23   S    
C3    O3    A    
C36   H20   S    
C15   C35   S    
C17   C21   D    
Cu1   N1    S    
C19   C23   D    
C35   H19   S    
Cu2   O11   S    
C2    C21   S    
C5    O13   A    
C45   H27   S    
C49   O25   D    
Cu3   O5    S    
C18   H2    S    
C7    O15   A    
C5    C14   S    
C28   C50   S    
C8    O16   A    
C7    C16   S    
C35   O23   D    
Cu1   O9    S    
C8    C15   S    
C2    O6    A    
C25   N1    D    
C26   H10   S    
C27   N3    D    
C44   H26   S    
N2    C43   S    
C28   N4    D    
C3    O7    A    
C18   C22   D    
Cu2   N2    S    
Cu4   O15   S    
C34   H18   S    
C50   O26   D    
C10   C30   S    
C25   C27   S    
C26   C28   S    
C5    O9    A    
C6    O14   A    
C31   H15   S    
Cu1   Cu3   S    
C19   H3    S    
C8    O12   A    
C6    C13   S    
Cu2   Cu4   S    
C38   C39   A    
H11   N3    S    
C42   H25   S    
C23   H7    S    
C40   C41   A    
C24   H8    S    
C36   O24   D    
Cu3   O6    S    
C45   C46   A    
C1    O5    A    
C26   N2    D    
C20   H4    S    
C21   H5    S    
Cu1   O10   S    
C30   O18   D    
C29   H13   S    
C12   C18   S    
C46   C47   A    
C37   C38   A    
C1    O1    A    
C41   H24   S    
Cu4   O8    S    
H12   N4    S    
Cu2   O4    S    
