data_mof_unit_44479.cif
_audit_creation_date              2012-12-11T14:42:00-0500
_audit_creation_method            fapswitch 2.2
_symmetry_space_group_name_H-M    P1
_symmetry_Int_Tables_number       1
_space_group_crystal_system       triclinic
_cell_length_a                    19.100951
_cell_length_b                    11.112482
_cell_length_c                    18.788686
_cell_angle_alpha                 89.874899
_cell_angle_beta                  90.24086
_cell_angle_gamma                 90.307591
_cell_volume                      3987.96519857

loop_
_atom_site_label
_atom_site_type_symbol
_atom_type_description
_atom_site_fract_x
_atom_site_fract_y
_atom_site_fract_z
_atom_type_partial_charge
C1    C     C_R   0.727799 0.951041 0.850940 0.569462
C2    C     C_R   0.272193 0.951341 0.149008 0.564534
C3    C     C_R   0.227799 0.451042 0.850940 0.569461
C4    C     C_R   0.772192 0.451341 0.149008 0.564532
C5    C     C_R   0.685350 0.412688 0.054548 0.112265
C6    C     C_R   0.314751 0.412208 0.945138 0.111213
C7    C     C_R   0.185351 0.912685 0.054548 0.112260
C8    C     C_R   0.814752 0.912213 0.945138 0.111217
C9    C     C_R   0.751197 0.392196 0.083198 0.045490
C10   C     C_R   0.248589 0.391986 0.916808 0.046034
C11   C     C_R   0.251198 0.892197 0.083197 0.045486
C12   C     C_R   0.748591 0.891986 0.916807 0.046037
C13   C     C_R   0.800668 0.323057 0.045641 0.111244
C14   C     C_R   0.198601 0.323544 0.954821 0.110256
C15   C     C_R   0.300671 0.823064 0.045639 0.111252
C16   C     C_R   0.698604 0.823540 0.954819 0.110249
C17   C     C_R   0.793652 0.315332 0.972450 -0.126794
C18   C     C_R   0.205748 0.316426 0.027983 -0.126523
C19   C     C_R   0.293658 0.815348 0.972448 -0.126783
C20   C     C_R   0.705752 0.816419 0.027981 -0.126528
C21   C     C_R   0.731883 0.350397 0.938260 -0.021205
C22   C     C_R   0.268140 0.350284 0.061720 -0.020581
C23   C     C_R   0.231885 0.850402 0.938260 -0.021205
C24   C     C_R   0.768142 0.850282 0.061719 -0.020580
C25   C     C_R   0.565605 0.217244 0.523299 -0.119774
C26   C     C_R   0.552964 0.214101 0.451014 -0.138361
C27   C     C_R   0.065595 0.717278 0.523300 -0.119790
C28   C     C_R   0.052957 0.714131 0.451014 -0.138370
C29   C     C_R   0.491220 0.161713 0.426895 0.033142
C30   C     C_R   0.515470 0.171060 0.570594 0.017193
C31   C     C_R   0.991226 0.661710 0.426893 0.033137
C32   C     C_R   0.015470 0.671063 0.570593 0.017183
C33   C     C_R   0.442482 0.110646 0.474177 -0.118632
C34   C     C_R   0.454407 0.116725 0.546553 -0.161161
C35   C     C_R   0.942500 0.610610 0.474173 -0.118641
C36   C     C_R   0.954422 0.616694 0.546550 -0.161162
C37   C     C_R   0.807805 0.359112 0.534897 0.132348
C38   C     C_R   0.187176 0.423479 0.450656 0.128982
C39   C     C_R   0.307810 0.859123 0.534901 0.132354
C40   C     C_R   0.687177 0.923481 0.450658 0.128970
C41   C     C_R   0.800620 0.340975 0.461648 0.013765
C42   C     C_R   0.176649 0.413806 0.523709 0.004447
C43   C     C_R   0.300624 0.840986 0.461652 0.013767
C44   C     C_R   0.676650 0.913802 0.523711 0.004461
C45   C     C_R   0.527316 0.176427 0.849354 0.528391
C46   C     C_R   0.472716 0.176877 0.150674 0.526884
C47   C     C_R   0.027315 0.676427 0.849354 0.528390
C48   C     C_R   0.972715 0.676877 0.150673 0.526884
C49   C     C_R   0.750301 0.407378 0.423182 -0.009221
C50   C     C_R   0.235642 0.423816 0.571251 0.011221
C51   C     C_R   0.250304 0.907387 0.423186 -0.009219
C52   C     C_R   0.735643 0.923810 0.571253 0.011219
C53   C     C_R   0.694428 0.461543 0.460217 -0.015949
C54   C     C_R   0.303823 0.416823 0.545442 -0.035787
C55   C     C_R   0.194433 0.961559 0.460222 -0.015956
C56   C     C_R   0.803823 0.916810 0.545443 -0.035794
C57   C     C_R   0.696911 0.468427 0.535351 -0.027252
C58   C     C_R   0.314284 0.422102 0.471664 -0.033272
C59   C     C_R   0.196916 0.968441 0.535355 -0.027260
C60   C     C_R   0.814285 0.922090 0.471666 -0.033273
C61   C     C_R   0.751629 0.409906 0.573067 -0.006930
C62   C     C_R   0.255032 0.414828 0.424631 0.008433
C63   C     C_R   0.251633 0.909915 0.573071 -0.006931
C64   C     C_R   0.755033 0.914826 0.424632 0.008431
C65   C     C_R   0.725830 0.319908 0.861166 0.561984
C66   C     C_R   0.274228 0.319580 0.138786 0.563596
C67   C     C_R   0.225831 0.819911 0.861166 0.561981
C68   C     C_R   0.774229 0.819576 0.138785 0.563591
C69   C     C_R   0.724825 0.958868 0.645503 0.549243
C70   C     C_R   0.271051 0.952722 0.351894 0.537288
C71   C     C_R   0.224824 0.458871 0.645502 0.549245
C72   C     C_R   0.771051 0.452720 0.351893 0.537289
C73   C     C_R   0.531349 0.176842 0.644481 0.531888
C74   C     C_R   0.469824 0.175522 0.354689 0.534536
C75   C     C_R   0.031350 0.676843 0.644480 0.531886
C76   C     C_R   0.969824 0.675522 0.354689 0.534540
C77   C     C_R   0.740017 0.363709 0.646266 0.544282
C78   C     C_R   0.261802 0.362902 0.353620 0.564938
C79   C     C_R   0.240018 0.863711 0.646267 0.544283
C80   C     C_R   0.761802 0.862902 0.353620 0.564945
C81   C     C_2   0.492926 0.165226 0.920235 -0.128025
C82   C     C_2   0.507033 0.166159 0.079759 -0.129742
C83   C     C_2   0.992924 0.665230 0.920234 -0.128027
C84   C     C_2   0.007031 0.666158 0.079758 -0.129743
C85   C     C_2   0.504180 0.063835 0.040599 0.006257
C86   C     C_2   0.495974 0.063376 0.959895 0.004616
C87   C     C_2   0.004174 0.563836 0.040596 0.006243
C88   C     C_2   0.995965 0.563380 0.959893 0.004632
C89   C     C_R   0.674976 0.389600 0.981338 -0.036446
C90   C     C_R   0.325287 0.388376 0.018289 -0.039014
C91   C     C_R   0.174977 0.889594 0.981339 -0.036461
C92   C     C_R   0.825288 0.888382 0.018289 -0.039006
Cr1   Cr    Cr6+3 0.769270 0.163730 0.750710 0.986423
Cr2   Cr    Cr6+3 0.230730 0.163730 0.249290 0.982703
Cr3   Cr    Cr6+3 0.269270 0.663730 0.750710 0.986428
Cr4   Cr    Cr6+3 0.730730 0.663730 0.249290 0.982701
Cr5   Cr    Cr6+3 0.612620 0.009790 0.748780 0.993495
Cr6   Cr    Cr6+3 0.387380 0.009790 0.251220 0.990234
Cr7   Cr    Cr6+3 0.112620 0.509790 0.748780 0.993500
Cr8   Cr    Cr6+3 0.887380 0.509790 0.251220 0.990231
Cr9   Cr    Cr6+3 0.614160 0.322500 0.747710 0.982364
Cr10  Cr    Cr6+3 0.385840 0.322500 0.252290 0.977583
Cr11  Cr    Cr6+3 0.114160 0.822500 0.747710 0.982362
Cr12  Cr    Cr6+3 0.885840 0.822500 0.252290 0.977585
H1    H     H_    0.517203 0.250185 0.053388 0.072628
H2    H     H_    0.482693 0.249106 0.946248 0.070396
H3    H     H_    0.017204 0.750185 0.053389 0.072632
H4    H     H_    0.982696 0.749112 0.946247 0.070399
H5    H     H_    0.835392 0.276189 0.942461 0.132870
H6    H     H_    0.163539 0.278593 0.058318 0.132987
H7    H     H_    0.335402 0.776218 0.942458 0.132874
H8    H     H_    0.663543 0.778582 0.058315 0.132981
H9    H     H_    0.614124 0.256138 0.542693 0.136926
H10   H     H_    0.590314 0.252921 0.414255 0.111007
H11   H     H_    0.114105 0.756199 0.542694 0.136942
H12   H     H_    0.090297 0.752977 0.414257 0.111018
H13   H     H_    0.393368 0.073134 0.455166 0.146152
H14   H     H_    0.415426 0.084628 0.583569 0.106161
H15   H     H_    0.893395 0.573070 0.455162 0.146172
H16   H     H_    0.915448 0.584574 0.583565 0.106170
O1    O     O_R   0.784320 0.290430 0.830510 -0.538619
O2    O     O_R   0.215680 0.290430 0.169490 -0.541338
O3    O     O_R   0.284320 0.790430 0.830510 -0.538617
O4    O     O_R   0.715680 0.790430 0.169490 -0.541334
O5    O     O_R   0.554640 0.080370 0.673500 -0.518610
O6    O     O_R   0.445360 0.080370 0.326500 -0.509186
O7    O     O_R   0.054640 0.580370 0.673500 -0.518616
O8    O     O_R   0.945360 0.580370 0.326500 -0.509189
O9    O     O_R   0.543920 0.282180 0.666790 -0.525923
O10   O     O_R   0.456080 0.282180 0.333210 -0.535339
O11   O     O_R   0.043920 0.782180 0.666790 -0.525925
O12   O     O_R   0.956080 0.782180 0.333210 -0.535338
O13   O     O_R   0.679040 0.374160 0.674430 -0.502681
O14   O     O_R   0.320960 0.374160 0.325570 -0.511536
O15   O     O_R   0.179040 0.874160 0.674430 -0.502683
O16   O     O_R   0.820960 0.874160 0.325570 -0.511536
O17   O     O_3   0.665350 0.165340 0.749070 -0.260389
O18   O     O_3   0.334650 0.165340 0.250930 -0.257305
O19   O     O_3   0.165350 0.665340 0.749070 -0.260388
O20   O     O_3   0.834650 0.665340 0.250930 -0.257305
O21   O     O_R   0.762640 0.040960 0.825200 -0.499820
O22   O     O_R   0.237360 0.040960 0.174800 -0.502223
O23   O     O_R   0.262640 0.540960 0.825200 -0.499815
O24   O     O_R   0.737360 0.540960 0.174800 -0.502227
O25   O     O_R   0.667400 0.923970 0.829950 -0.509842
O26   O     O_R   0.332600 0.923970 0.170050 -0.510917
O27   O     O_R   0.167400 0.423970 0.829950 -0.509843
O28   O     O_R   0.832600 0.423970 0.170050 -0.510917
O29   O     O_R   0.553960 0.081340 0.821780 -0.486859
O30   O     O_R   0.446040 0.081340 0.178220 -0.487727
O31   O     O_R   0.053960 0.581340 0.821780 -0.486846
O32   O     O_R   0.946040 0.581340 0.178220 -0.487733
O33   O     O_R   0.543180 0.283240 0.826740 -0.539751
O34   O     O_R   0.456820 0.283240 0.173260 -0.540325
O35   O     O_R   0.043180 0.783240 0.826740 -0.539753
O36   O     O_R   0.956820 0.783240 0.173260 -0.540324
O37   O     O_R   0.678360 0.375140 0.822710 -0.502795
O38   O     O_R   0.321640 0.375140 0.177290 -0.503680
O39   O     O_R   0.178360 0.875140 0.822710 -0.502795
O40   O     O_R   0.821640 0.875140 0.177290 -0.503678
O41   O     O_R   0.785050 0.289380 0.670560 -0.508777
O42   O     O_R   0.214950 0.289380 0.329440 -0.511299
O43   O     O_R   0.285050 0.789380 0.670560 -0.508775
O44   O     O_R   0.714950 0.789380 0.329440 -0.511300
O45   O     O_R   0.763320 0.039990 0.676930 -0.505952
O46   O     O_R   0.236680 0.039990 0.323070 -0.501582
O47   O     O_R   0.263320 0.539990 0.676930 -0.505949
O48   O     O_R   0.736680 0.539990 0.323070 -0.501578
O49   O     O_R   0.668130 0.922920 0.670000 -0.539006
O50   O     O_R   0.331870 0.922920 0.330000 -0.528383
O51   O     O_R   0.168130 0.422920 0.670000 -0.539011
O52   O     O_R   0.831870 0.422920 0.330000 -0.528384
C93   C     C_3   0.517285 0.945702 0.077962 -0.358926
H17   H     H_    0.558424 0.897353 0.049107 0.114522
H18   H     H_    0.538632 0.957150 0.132603 0.144564
H19   H     H_    0.468535 0.892258 0.080355 0.185369
C94   C     C_3   0.482977 0.944806 0.923085 -0.358959
H20   H     H_    0.441942 0.895704 0.952185 0.114961
H21   H     H_    0.461557 0.955488 0.868422 0.148137
H22   H     H_    0.531811 0.892604 0.920825 0.186265
C95   C     C_3   0.017268 0.445700 0.077958 -0.358932
H23   H     H_    0.058394 0.397330 0.049096 0.114520
H24   H     H_    0.038627 0.457143 0.132595 0.144563
H25   H     H_    0.968510 0.392280 0.080362 0.185395
C96   C     C_3   0.982947 0.444812 0.923085 -0.358956
H26   H     H_    0.941885 0.395750 0.952177 0.114984
H27   H     H_    0.961550 0.455502 0.868412 0.148148
H28   H     H_    0.031770 0.392562 0.920847 0.186213
C97   C     C_3   0.845019 0.247154 0.425821 -0.356581
H29   H     H_    0.900796 0.275743 0.424281 0.149106
H30   H     H_    0.839257 0.162708 0.455571 0.121835
H31   H     H_    0.826087 0.224017 0.371617 0.136961
C98   C     C_3   0.102768 0.388427 0.548968 -0.334206
H32   H     H_    0.101749 0.311321 0.586438 0.128726
H33   H     H_    0.081892 0.468749 0.573850 0.191232
H34   H     H_    0.065391 0.363588 0.506739 0.131487
C99   C     C_3   0.345028 0.747173 0.425825 -0.356563
H35   H     H_    0.400801 0.775786 0.424271 0.149116
H36   H     H_    0.339284 0.662728 0.455584 0.121835
H37   H     H_    0.326085 0.724015 0.371627 0.136954
C100  C     C_3   0.602769 0.888406 0.548968 -0.334193
H38   H     H_    0.601755 0.811305 0.586441 0.128725
H39   H     H_    0.581881 0.968727 0.573846 0.191227
H40   H     H_    0.565399 0.863546 0.506735 0.131466
C101  C     C_3   0.630603 0.505958 0.420262 -0.379592
H41   H     H_    0.581889 0.485790 0.450146 0.114857
H42   H     H_    0.635244 0.604108 0.411842 0.151788
H43   H     H_    0.624581 0.460115 0.368131 0.138532
C102  C     C_3   0.363641 0.391463 0.597151 -0.384236
H44   H     H_    0.411080 0.357218 0.570651 0.141953
H45   H     H_    0.378569 0.472909 0.627499 0.137664
H46   H     H_    0.347521 0.320162 0.635336 0.130507
C103  C     C_3   0.130611 0.005987 0.420268 -0.379599
H47   H     H_    0.081897 0.985840 0.450155 0.114844
H48   H     H_    0.135263 0.104133 0.411841 0.151817
H49   H     H_    0.124582 0.960138 0.368139 0.138530
C104  C     C_3   0.863640 0.891446 0.597153 -0.384236
H50   H     H_    0.911083 0.857211 0.570653 0.141955
H51   H     H_    0.878563 0.972889 0.627507 0.137673
H52   H     H_    0.847520 0.820134 0.635333 0.130507
C105  C     C_3   0.643355 0.543434 0.574195 -0.375799
H53   H     H_    0.664786 0.578712 0.625105 0.144117
H54   H     H_    0.629285 0.623726 0.542304 0.114044
H55   H     H_    0.595307 0.489448 0.584194 0.153649
C106  C     C_3   0.388367 0.444061 0.446037 -0.365626
H56   H     H_    0.391141 0.493232 0.394840 0.157214
H57   H     H_    0.417479 0.503215 0.483459 0.088556
H58   H     H_    0.416077 0.357977 0.444345 0.178127
C107  C     C_3   0.143364 0.043452 0.574202 -0.375804
H59   H     H_    0.164799 0.078728 0.625111 0.144116
H60   H     H_    0.129296 0.123746 0.542311 0.114054
H61   H     H_    0.095315 0.989469 0.584203 0.153642
C108  C     C_3   0.888368 0.944050 0.446040 -0.365625
H62   H     H_    0.891144 0.993220 0.394843 0.157218
H63   H     H_    0.917480 0.003205 0.483461 0.088557
H64   H     H_    0.916078 0.857965 0.444348 0.178128
C109  C     C_3   0.602850 0.385181 0.952926 -0.378296
H65   H     H_    0.596621 0.289764 0.941756 0.152559
H66   H     H_    0.562043 0.412204 0.990744 0.117135
H67   H     H_    0.596522 0.442436 0.905311 0.177653
C110  C     C_3   0.397384 0.382539 0.046510 -0.379495
H68   H     H_    0.402432 0.286940 0.058048 0.152615
H69   H     H_    0.438446 0.408615 0.008576 0.115131
H70   H     H_    0.404503 0.439756 0.093912 0.177739
C111  C     C_3   0.102851 0.885163 0.952928 -0.378298
H71   H     H_    0.096628 0.789744 0.941757 0.152559
H72   H     H_    0.062043 0.912180 0.990745 0.117137
H73   H     H_    0.096520 0.942419 0.905313 0.177655
C112  C     C_3   0.897384 0.882548 0.046511 -0.379492
H74   H     H_    0.902433 0.786950 0.058051 0.152616
H75   H     H_    0.938447 0.908622 0.008578 0.115128
H76   H     H_    0.904502 0.939767 0.093913 0.177737
N1    N     N_2   0.628616 0.420623 0.103603 -0.519645
H77   H     H_    0.600288 0.343472 0.112678 0.254004
C113  C     C_3   0.593636 0.533623 0.115607 -0.277249
H78   H     H_    0.547952 0.542781 0.079639 0.102639
H79   H     H_    0.629959 0.609953 0.108233 0.171564
H80   H     H_    0.574525 0.536129 0.171280 0.144146
N2    N     N_2   0.371219 0.421959 0.895754 -0.516058
H81   H     H_    0.400882 0.346240 0.888942 0.254628
C114  C     C_3   0.406844 0.535680 0.885659 -0.279772
H82   H     H_    0.449880 0.546515 0.924680 0.101396
H83   H     H_    0.369978 0.611235 0.889925 0.174364
H84   H     H_    0.429885 0.538101 0.831545 0.143296
N3    N     N_2   0.128617 0.920622 0.103604 -0.519643
H85   H     H_    0.100292 0.843471 0.112682 0.254008
C115  C     C_3   0.093633 0.033619 0.115600 -0.277269
H86   H     H_    0.047960 0.042782 0.079621 0.102642
H87   H     H_    0.129956 0.109951 0.108242 0.171576
H88   H     H_    0.074505 0.036118 0.171266 0.144138
N4    N     N_2   0.871220 0.921960 0.895754 -0.516059
H89   H     H_    0.900882 0.846238 0.888943 0.254627
C116  C     C_3   0.906848 0.035678 0.885656 -0.279778
H90   H     H_    0.949878 0.046521 0.924682 0.101396
H91   H     H_    0.869983 0.111235 0.889911 0.174371
H92   H     H_    0.929898 0.038087 0.831545 0.143290
N5    N     N_2   0.854286 0.258749 0.083446 -0.493229
H93   H     H_    0.836730 0.220730 0.130331 0.268772
C117  C     C_3   0.901065 0.179474 0.046498 -0.353026
H94   H     H_    0.937280 0.137554 0.085394 0.125260
H95   H     H_    0.933518 0.228285 0.007651 0.125474
H96   H     H_    0.869897 0.110360 0.019031 0.175234
N6    N     N_2   0.144165 0.259612 0.917575 -0.493757
H97   H     H_    0.161092 0.221429 0.870685 0.270099
C118  C     C_3   0.097166 0.180368 0.955130 -0.354809
H98   H     H_    0.060470 0.138310 0.916623 0.125839
H99   H     H_    0.065282 0.229148 0.994119 0.125421
H100  H     H_    0.128128 0.111305 0.982519 0.175131
N7    N     N_2   0.354291 0.758757 0.083444 -0.493227
H101  H     H_    0.336737 0.720746 0.130331 0.268775
C119  C     C_3   0.401056 0.679461 0.046495 -0.353029
H102  H     H_    0.437271 0.637538 0.085390 0.125260
H103  H     H_    0.433510 0.728253 0.007643 0.125471
H104  H     H_    0.369878 0.610353 0.019036 0.175240
N8    N     N_2   0.644171 0.759603 0.917572 -0.493772
H105  H     H_    0.661103 0.721406 0.870688 0.270097
C120  C     C_3   0.597157 0.680387 0.955126 -0.354820
H106  H     H_    0.560463 0.638330 0.916617 0.125842
H107  H     H_    0.565274 0.729190 0.994104 0.125437
H108  H     H_    0.628105 0.611321 0.982526 0.175120
N9    N     N_2   0.874452 0.340319 0.568505 -0.507481
H109  H     H_    0.884604 0.395998 0.611153 0.252488
C121  C     C_3   0.897149 0.217838 0.580771 -0.271431
H110  H     H_    0.917113 0.207701 0.636104 0.132364
H111  H     H_    0.940470 0.196086 0.543914 0.119492
H112  H     H_    0.853174 0.153516 0.573743 0.178616
N10   N     N_2   0.132250 0.465520 0.404770 -0.511254
H113  H     H_    0.147489 0.531421 0.369194 0.240071
C122  C     C_3   0.083263 0.379363 0.374459 -0.270925
H114  H     H_    0.091302 0.287825 0.396148 0.136534
H115  H     H_    0.088867 0.376512 0.315649 0.150437
H116  H     H_    0.029048 0.407549 0.386740 0.154736
N11   N     N_2   0.374459 0.840340 0.568509 -0.507466
H117  H     H_    0.384608 0.896025 0.611155 0.252485
C123  C     C_3   0.397161 0.717860 0.580777 -0.271431
H118  H     H_    0.417129 0.707727 0.636110 0.132353
H119  H     H_    0.440479 0.696112 0.543918 0.119496
H120  H     H_    0.353187 0.653532 0.573756 0.178611
N12   N     N_2   0.632252 0.965533 0.404775 -0.511263
H121  H     H_    0.647491 0.031444 0.369206 0.240063
C124  C     C_3   0.583269 0.879382 0.374453 -0.270907
H122  H     H_    0.591323 0.787826 0.396123 0.136561
H123  H     H_    0.588868 0.876568 0.315637 0.150426
H124  H     H_    0.529050 0.907549 0.386750 0.154735

loop_
_geom_bond_atom_site_label_1
_geom_bond_atom_site_label_2
_ccdc_geom_bond_type
C113  H79   S    
C55   C59   A    
C100  H39   S    
C119  H102  S    
C32   C75   S    
C72   O48   A    
C121  H111  S    
C57   C105  S    
N9    H109  S    
Cr6   O18   S    
C72   O52   A    
Cr1   O1    S    
C8    N4    S    
C103  H49   S    
N4    H89   S    
C4    O28   A    
C29   C33   A    
C106  H58   S    
C82   H1    S    
C99   H36   S    
C9    C13   A    
C28   H12   S    
C11   C15   A    
C54   C102  S    
C12   C16   A    
Cr4   O48   S    
C8    C92   A    
C47   C83   S    
C81   C86   D    
C122  H115  S    
C83   C88   D    
C111  H71   S    
C41   C49   A    
C95   H24   S    
C123  H119  S    
C16   N8    S    
C3    O23   A    
Cr9   O17   S    
C103  H47   S    
C17   C21   A    
Cr12  O20   S    
C17   H5    S    
C6    N2    S    
C19   C23   A    
C26   H10   S    
C107  H59   S    
Cr3   O43   S    
Cr4   O24   S    
C121  H110  S    
Cr1   O41   S    
C16   C20   A    
C43   C99   S    
C122  H114  S    
C78   O14   A    
C40   N12   S    
Cr2   O2    S    
Cr9   O13   S    
C59   C63   A    
N1    C113  S    
Cr6   O30   S    
Cr7   O27   S    
Cr5   O25   S    
C45   C81   S    
C60   C108  S    
Cr10  O10   S    
N2    C114  S    
C67   O3    A    
C4    O24   A    
C57   C61   A    
C19   H7    S    
C14   N6    S    
C82   C85   D    
Cr3   O19   S    
C41   C97   S    
C60   C64   A    
C25   C26   A    
C118  H99   S    
C31   C76   S    
C49   C53   A    
C55   C103  S    
C51   C55   A    
C117  H95   S    
C124  H122  S    
C111  H73   S    
C67   O39   A    
N10   C122  S    
C68   O40   A    
C5    C89   A    
C38   C62   A    
C27   H11   S    
C34   H14   S    
N12   C124  S    
C3    O27   A    
Cr8   O52   S    
C1    O25   A    
C116  H92   S    
C96   H26   S    
N8    C120  S    
C85   C86   S    
Cr8   O32   S    
C112  H74   S    
C32   C36   A    
C119  H103  S    
C107  H61   S    
N1    H77   S    
C115  H88   S    
N11   C123  S    
C84   H3    S    
C110  H68   S    
C5    N1    S    
C97   H30   S    
C46   C82   S    
C61   C77   S    
C94   H21   S    
C108  H62   S    
C124  H124  S    
C71   O47   A    
N5    H93   S    
C120  H107  S    
Cr7   O19   S    
C1    C12   S    
C2    C11   S    
C24   C92   A    
Cr5   O17   S    
C33   C34   A    
C93   H18   S    
C30   C34   A    
Cr2   O22   S    
C10   C14   A    
C29   C74   S    
C104  H50   S    
C6    C90   A    
Cr4   O44   S    
C42   C98   S    
C5    C9    A    
C105  H53   S    
C8    C12   A    
C98   H34   S    
C66   O2    A    
C102  H44   S    
C69   O49   A    
N3    C115  S    
C42   C50   A    
C88   C96   S    
C98   H32   S    
C2    O22   A    
C71   O51   A    
C59   C107  S    
Cr3   O3    S    
C123  H120  S    
Cr12  O16   S    
C18   C22   A    
C62   C78   S    
Cr3   O47   S    
Cr4   O20   S    
C114  H84   S    
C115  H86   S    
C13   C17   A    
C110  H70   S    
N5    C117  S    
C76   O12   A    
C73   O5    A    
C106  H57   S    
C75   O7    A    
C37   C41   A    
C99   H35   S    
C108  H64   S    
C69   O45   A    
C93   H17   S    
Cr6   O50   S    
C40   C44   A    
C109  H67   S    
N6    H97   S    
Cr5   O29   S    
C4    C9    S    
Cr11  O11   S    
C113  H78   S    
C39   N11   S    
C58   C62   A    
C87   C88   S    
Cr3   O23   S    
C35   C36   A    
Cr2   O46   S    
C96   H27   S    
C21   C89   A    
C95   H23   S    
C104  H52   S    
C15   C19   A    
C50   C54   A    
C106  H56   S    
C105  H55   S    
C101  H43   S    
Cr5   O5    S    
C102  H46   S    
C83   H4    S    
C100  H38   S    
C7    N3    S    
C80   O44   A    
C52   C69   S    
C20   H8    S    
C112  H76   S    
C117  H94   S    
C65   O1    A    
Cr10  O34   S    
C103  H48   S    
C48   O36   A    
C113  H80   S    
Cr9   O37   S    
C123  H118  S    
Cr8   O8    S    
C64   C80   S    
Cr10  O38   S    
Cr12  O40   S    
C56   C104  S    
C121  H112  S    
N9    C121  S    
C77   O41   A    
C46   O34   A    
C73   O9    A    
N10   H113  S    
C89   C109  S    
C65   O37   A    
N8    H105  S    
C53   C57   A    
Cr7   O7    S    
C101  H41   S    
C15   N7    S    
C86   C94   S    
C56   C60   A    
C99   H37   S    
C50   C71   S    
C87   C95   S    
C118  H98   S    
C25   H9    S    
C7    C91   A    
C22   C90   A    
C58   C106  S    
Cr11  O35   S    
C47   O31   A    
C48   O32   A    
Cr2   O18   S    
C31   C35   A    
C45   O33   A    
C74   O10   A    
Cr1   O21   S    
C95   H25   S    
C25   C30   A    
C21   C65   S    
C27   C32   A    
C28   C31   A    
C18   H6    S    
C6    C10   A    
C93   H19   S    
C79   O15   A    
C80   O16   A    
C70   O50   A    
C107  H60   S    
C115  H87   S    
C43   C51   A    
N11   H117  S    
C114  H82   S    
C97   H29   S    
C36   H16   S    
C1    O21   A    
C24   C68   S    
N12   H121  S    
Cr6   O6    S    
C94   H20   S    
Cr12  O12   S    
N7    C119  S    
C37   N9    S    
C91   C111  S    
C33   H13   S    
N6    C118  S    
C120  H106  S    
C14   C18   A    
C35   H15   S    
C84   C87   D    
C68   O4    A    
C13   N5    S    
C63   C79   S    
C92   C112  S    
C7    C11   A    
C38   C42   A    
C118  H100  S    
C70   O46   A    
Cr7   O51   S    
C23   C67   S    
Cr5   O49   S    
Cr10  O18   S    
C117  H96   S    
Cr11  O15   S    
C22   C66   S    
Cr8   O20   S    
C116  H91   S    
C20   C24   A    
C124  H123  S    
C49   C72   S    
C53   C101  S    
C51   C70   S    
N3    H85   S    
Cr2   O42   S    
Cr1   O45   S    
C77   O13   A    
C75   O11   A    
C112  H75   S    
Cr4   O4    S    
C119  H104  S    
C114  H83   S    
C30   C73   S    
C96   H28   S    
C39   C43   A    
C120  H108  S    
Cr6   O26   S    
C98   H33   S    
Cr7   O31   S    
C48   C84   S    
C110  H69   S    
C97   H31   S    
Cr10  O14   S    
Cr11  O19   S    
C85   C93   S    
Cr9   O33   S    
C94   H22   S    
C116  H90   S    
Cr12  O36   S    
C108  H63   S    
C46   O30   A    
C78   O42   A    
C109  H66   S    
C44   C100  S    
C100  H40   S    
C23   C91   A    
N2    H81   S    
C66   O38   A    
N7    H101  S    
C54   C58   A    
C122  H116  S    
N4    C116  S    
C81   H2    S    
C79   O43   A    
C44   C52   A    
C37   C61   A    
C2    O26   A    
C39   C63   A    
C40   C64   A    
C111  H72   S    
C105  H54   S    
C3    C10   S    
Cr11  O39   S    
C74   O6    A    
C47   O35   A    
Cr8   O28   S    
C76   O8    A    
C102  H45   S    
C45   O29   A    
C104  H51   S    
Cr1   O17   S    
C26   C29   A    
C90   C110  S    
C27   C28   A    
C38   N10   S    
C109  H65   S    
C101  H42   S    
C52   C56   A    
Cr9   O9    S    
