data_mof_unit_50851.cif
_audit_creation_date              2012-12-10T18:58:11-0500
_audit_creation_method            fapswitch 2.2
_symmetry_space_group_name_H-M    P1
_symmetry_Int_Tables_number       1
_space_group_crystal_system       triclinic
_cell_length_a                    11.055564
_cell_length_b                    10.876873
_cell_length_c                    9.569535
_cell_angle_alpha                 89.606043
_cell_angle_beta                  102.038949
_cell_angle_gamma                 93.027353
_cell_volume                      1123.84630408

loop_
_atom_site_label
_atom_site_type_symbol
_atom_type_description
_atom_site_fract_x
_atom_site_fract_y
_atom_site_fract_z
_atom_type_partial_charge
C1    C     C_R   0.502944 0.262729 0.500992 0.788733
C2    C     C_R   0.513657 0.130423 0.502182 -0.112044
C3    C     C_R   0.510022 0.067837 0.373763 -0.288665
C4    C     C_R   0.496462 0.939969 0.367773 -0.016842
C5    C     C_R   0.503245 0.871818 0.496282 -0.145603
C6    C     C_R   0.523712 0.935984 0.626057 0.099102
C7    C     C_3   0.449510 0.926344 0.740260 -0.445712
C8    C     C_3   0.450773 0.065294 0.740770 -0.460935
C9    C     C_R   0.603692 0.538024 0.097859 0.191127
C10   C     C_R   0.408815 0.435870 0.053711 0.460639
C11   C     C_R   0.410184 0.435177 0.904092 -0.058409
C12   C     C_R   0.262805 0.503722 0.442086 0.748901
C13   C     C_R   0.603207 0.538878 0.951516 0.216370
C14   C     C_3   0.676972 0.658042 0.961556 -0.479237
C15   C     C_3   0.678444 0.657017 0.121436 -0.441267
C16   C     C_R   0.497839 0.737653 0.498452 0.793238
C17   C     C_R   0.736754 0.496022 0.556811 0.862740
C18   C     C_2   0.127257 0.510812 0.409739 0.291127
C19   C     C_2   0.064107 0.468230 0.506753 -0.318186
C20   C     C_2   0.870798 0.485680 0.584485 -0.483477
C21   C     C_2   0.929317 0.463301 0.477562 0.546021
C22   C     C_R   0.525882 0.063145 0.628377 0.127421
Cu1   Cu    Cu3+1 0.499990 0.499980 0.640670 0.952339
Cu2   Cu    Cu3+1 0.500010 0.500020 0.359330 0.972630
H1    H     H_    0.503141 0.107805 0.842301 0.190937
H2    H     H_    0.769977 0.647535 0.937363 0.191146
H3    H     H_    0.624283 0.732785 0.902928 0.211281
H4    H     H_    0.772323 0.645497 0.187936 0.238721
H5    H     H_    0.628402 0.732330 0.156718 0.221130
H6    H     H_    0.110634 0.433658 0.608416 0.142110
H7    H     H_    0.923117 0.498170 0.693048 0.121466
H8    H     H_    0.507478 0.118086 0.275211 0.148671
H9    H     H_    0.355591 0.881692 0.702269 0.205307
H10   H     H_    0.501989 0.889675 0.841955 0.208429
H11   H     H_    0.357378 0.099245 0.699708 0.226564
N1    N     N_R   0.500780 0.500930 0.148120 -0.226572
N2    N     N_R   0.500790 0.500890 0.852210 -0.224156
O1    O     O_R   0.500000 0.319640 0.618810 -0.571931
O2    O     O_R   0.500010 0.319680 0.381230 -0.607683
O3    O     O_R   0.320680 0.500000 0.575130 -0.585557
O4    O     O_R   0.320690 0.500040 0.337550 -0.539983
O5    O     O_R   0.499990 0.680320 0.618770 -0.573733
O6    O     O_R   0.500000 0.680360 0.381190 -0.577846
O7    O     O_R   0.679310 0.499960 0.662450 -0.586340
O8    O     O_R   0.679320 0.500000 0.424870 -0.540846
O9    O     O_3   0.865788 0.440360 0.338044 -0.579968
C23   C     C_3   0.823372 0.314884 0.322198 0.095941
H12   H     H_    0.729395 0.310999 0.252241 0.166774
H13   H     H_    0.813423 0.269051 0.424391 0.112852
C24   C     C_3   0.908518 0.243315 0.249616 -0.401944
H14   H     H_    0.913598 0.287305 0.145686 0.210464
H15   H     H_    0.003014 0.245909 0.318273 0.213540
C25   C     C_3   0.860913 0.109440 0.223137 -0.893610
H16   H     H_    0.856240 0.063140 0.325857 0.261265
H17   H     H_    0.924749 0.059948 0.170594 0.262069
H18   H     H_    0.767315 0.104561 0.152362 0.249075
O10   O     O_3   0.307619 0.383570 0.101083 -0.608470
C26   C     C_3   0.306981 0.253250 0.101869 0.052459
H19   H     H_    0.331668 0.222543 0.213823 0.182243
H20   H     H_    0.372940 0.213934 0.042471 0.108043
C27   C     C_3   0.175484 0.199614 0.043873 -0.377638
H21   H     H_    0.115734 0.223408 0.118320 0.204538
H22   H     H_    0.136318 0.240105 0.938622 0.237052
C28   C     C_3   0.172752 0.059729 0.029475 -0.872743
H23   H     H_    0.230528 0.033325 0.953491 0.271901
H24   H     H_    0.076111 0.023641 0.988398 0.249630
H25   H     H_    0.207918 0.017350 0.135148 0.257161
C29   C     C_1   0.321858 0.356243 0.809704 0.319181
N3    N     N_1   0.252068 0.290237 0.735318 -0.370224
O11   O     O_3   0.068800 0.587147 0.301974 -0.594138
C30   C     C_3   0.071359 0.543330 0.164110 0.099919
H26   H     H_    0.973837 0.532354 0.104123 0.165784
H27   H     H_    0.110748 0.451432 0.162698 0.158768
C31   C     C_3   0.140776 0.639278 0.087682 -0.296732
H28   H     H_    0.108302 0.732350 0.102809 0.221796
H29   H     H_    0.241462 0.640579 0.134298 0.258251
C32   C     C_3   0.119793 0.612945 0.927943 -0.914295
H30   H     H_    0.139827 0.516390 0.908196 0.267360
H31   H     H_    0.181571 0.675797 0.878958 0.267356
H32   H     H_    0.022334 0.629275 0.876861 0.241462
C33   C     C_1   0.457917 0.885706 0.226953 0.235946
N4    N     N_1   0.425109 0.843692 0.113719 -0.332198

loop_
_geom_bond_atom_site_label_1
_geom_bond_atom_site_label_2
_ccdc_geom_bond_type
C18   O11   S    
C8    H1    S    
Cu2   O2    S    
C33   N4    T    
C15   H4    S    
C7    C8    S    
C23   H13   S    
C32   H30   S    
Cu2   N1    S    
Cu1   O5    S    
C31   H29   S    
Cu2   O8    S    
C19   C21   S    
C17   O8    A    
C1    C2    S    
C5    C6    A    
C32   H32   S    
C26   H20   S    
Cu1   O3    S    
C6    C22   A    
C17   C20   S    
C11   N2    A    
C18   C19   D    
C27   H22   S    
C9    C13   A    
C5    C16   S    
C4    C33   S    
C29   N3    T    
C31   C32   S    
C2    C22   A    
C9    N1    A    
C24   H15   S    
Cu1   Cu2   S    
O11   C30   S    
C14   H3    S    
C13   N2    A    
C26   C27   S    
C25   H17   S    
C13   C14   S    
Cu2   O4    S    
C7    H9    S    
C27   H21   S    
C15   H5    S    
C23   C24   S    
C32   H31   S    
C24   C25   S    
C31   H28   S    
C28   H25   S    
C10   O10   S    
C30   H27   S    
C26   H19   S    
Cu1   N2    S    
Cu1   O7    S    
C8    H11   S    
C28   H24   S    
C12   O3    A    
C27   C28   S    
C12   O4    A    
C8    C22   S    
C23   H12   S    
C24   H14   S    
C14   H2    S    
C16   O6    A    
C1    O1    A    
C7    H10   S    
C3    C4    A    
C16   O5    A    
C11   C29   S    
C21   O9    S    
C25   H18   S    
O9    C23   S    
C4    C5    A    
C30   C31   S    
C25   H16   S    
C6    C7    S    
Cu1   O1    S    
C28   H23   S    
C2    C3    A    
C9    C15   S    
C17   O7    A    
C30   H26   S    
O10   C26   S    
C3    H8    S    
C10   C11   A    
C1    O2    A    
C20   C21   D    
C12   C18   S    
Cu2   O6    S    
C14   C15   S    
C10   N1    A    
C19   H6    S    
C20   H7    S    
