data_mof_unit_44435.cif
_audit_creation_date              2013-03-05T15:50:33-0500
_audit_creation_method            fapswitch 2.2
_symmetry_space_group_name_H-M    P1
_symmetry_Int_Tables_number       1
_space_group_crystal_system       triclinic
_cell_length_a                    9.601062
_cell_length_b                    10.793958
_cell_length_c                    13.479174
_cell_angle_alpha                 92.149965
_cell_angle_beta                  71.95486
_cell_angle_gamma                 89.80007
_cell_volume                      1327.08129927

loop_
_atom_site_label
_atom_site_type_symbol
_atom_site_description
_atom_site_fract_x
_atom_site_fract_y
_atom_site_fract_z
_atom_type_partial_charge
O1    O     O_R   0.381190 0.680360 0.500010 -0.581844
O2    O     O_R   0.618760 0.680340 0.500000 -0.572676
C1    C     C_R   0.497782 0.737408 0.504564 0.788594
O3    O     O_R   0.323240 0.499990 0.650990 -0.602117
O4    O     O_R   0.560820 0.499960 0.650980 -0.563390
C2    C     C_R   0.421083 0.494992 0.699922 0.819026
Cu1   Cu    Cu3+1 0.359340 0.500010 0.500010 0.929715
Cu2   Cu    Cu3+1 0.640660 0.499990 0.499990 1.006583
O5    O     O_R   0.381240 0.319660 0.500000 -0.628470
O6    O     O_R   0.618810 0.319640 0.499990 -0.555837
O7    O     O_R   0.439180 0.500040 0.349020 -0.603452
O8    O     O_R   0.676760 0.500010 0.349010 -0.550465
C3    C     C_R   0.498065 0.262875 0.504065 0.803664
C4    C     C_R   0.579599 0.502517 0.299579 0.800996
C5    C     C_R   0.798602 0.436560 0.015866 -0.245191
H1    H     H_    0.812098 0.338642 0.831616 0.177997
H2    H     H_    0.908069 0.407451 0.968686 0.175909
C6    C     C_R   0.626823 0.499330 0.184007 -0.164678
C7    C     C_R   0.237108 0.551330 0.868157 -0.236406
C8    C     C_R   0.201763 0.584534 0.973329 -0.060397
C9    C     C_R   0.301428 0.563934 0.027103 -0.079127
C10   C     C_R   0.437231 0.502346 0.977610 0.031068
C11   C     C_R   0.468715 0.459364 0.871666 -0.025214
C12   C     C_R   0.545138 0.486039 0.028717 0.079148
C13   C     C_R   0.685436 0.438689 0.970957 0.030760
C14   C     C_R   0.709613 0.387247 0.870830 -0.287853
C15   C     C_R   0.597641 0.385910 0.825318 0.338928
C16   C     C_R   0.517311 0.512211 0.135930 -0.276927
C17   C     C_R   0.772426 0.471462 0.121086 0.336083
C18   C     C_R   0.372663 0.494704 0.815008 -0.067288
H3    H     H_    0.408186 0.536229 0.184907 0.179484
H4    H     H_    0.161642 0.577559 0.826912 0.145726
H5    H     H_    0.270179 0.600764 0.106424 0.145917
H6    H     H_    0.099121 0.632642 0.012217 0.172853
H7    H     H_    0.703822 0.881938 0.393018 0.168954
C19   C     C_R   0.262081 0.878539 0.659605 -0.181951
H8    H     H_    0.262485 0.779394 0.667793 0.138154
C20   C     C_R   0.146625 0.946439 0.728937 -0.137479
H9    H     H_    0.060237 0.899139 0.785674 0.136206
C21   C     C_R   0.143712 0.074991 0.726816 -0.104587
H10   H     H_    0.054995 0.127604 0.781906 0.143615
C22   C     C_R   0.256775 0.136446 0.655871 -0.095601
H11   H     H_    0.252265 0.236453 0.661602 0.168724
C23   C     C_R   0.374254 0.069562 0.583230 0.118384
C24   C     C_R   0.375742 0.938484 0.584412 0.093271
C25   C     C_R   0.493996 0.871561 0.512786 -0.103569
C26   C     C_R   0.612328 0.933191 0.446833 -0.184583
H12   H     H_    0.704058 0.106427 0.393262 0.135349
C27   C     C_R   0.612400 0.060885 0.446903 -0.191198
C28   C     C_R   0.493572 0.129391 0.512227 -0.049027
H13   H     H_    0.820306 0.643040 0.615353 0.134654
C29   C     C_R   0.914274 0.331489 0.365748 -0.054738
H14   H     H_    0.809091 0.329035 0.355607 0.174519
C30   C     C_R   0.013147 0.244707 0.303438 -0.127771
H15   H     H_    0.978673 0.179522 0.252950 0.153551
C31   C     C_R   0.156905 0.244536 0.302728 -0.184069
H16   H     H_    0.234813 0.178837 0.251996 0.156436
C32   C     C_R   0.202137 0.329983 0.365437 -0.146809
H17   H     H_    0.315776 0.323642 0.356018 0.198149
C33   C     C_R   0.103515 0.416571 0.434008 0.207983
C34   C     C_R   0.953989 0.416958 0.434018 0.240226
N1    N     N_R   0.852480 0.498790 0.499000 -0.188686
C35   C     C_R   0.898256 0.578590 0.563357 -0.024055
H18   H     H_    0.078363 0.642817 0.615406 0.126427
C36   C     C_R   0.046112 0.578530 0.563358 -0.058263
N2    N     N_R   0.148360 0.498710 0.498970 -0.198918
N3    N     N_R   0.894315 0.477336 0.161344 0.097532
O9    O     O_R   0.914480 0.577583 0.211531 -0.383684
O10   O     O_R   0.002630 0.398295 0.125932 -0.399577
N4    N     N_R   0.608364 0.297554 0.740802 0.134755
O11   O     O_R   0.735739 0.264750 0.676053 -0.365753
O12   O     O_R   0.494328 0.233239 0.740415 -0.407689

loop_
_geom_bond_atom_site_label_1
_geom_bond_atom_site_label_2
_geom_bond_distance
_ccdc_geom_bond_type
O4    Cu2   1.939907 S    
C20   C21   1.389306 A    
C35   C36   1.419572 A    
C5    H2    1.084603 S    
N4    O11   1.302002 A    
C11   C15   1.424086 A    
C4    C6    1.480479 S    
C1    C25   1.447590 S    
C31   H16   1.083070 S    
C7    C8    1.384294 A    
Cu2   O8    1.955697 S    
C34   N1    1.379969 A    
H7    C26   1.084266 S    
H18   C36   1.081275 S    
C29   C30   1.387378 A    
C21   C22   1.393691 A    
O2    C1    1.296239 A    
C32   H17   1.060289 S    
C6    C16   1.404519 A    
C19   C24   1.416224 A    
C26   C27   1.378291 A    
C6    C17   1.416836 A    
O1    Cu1   1.958690 S    
C24   C25   1.416274 A    
C8    C9    1.389525 A    
Cu1   N2    2.030113 S    
Cu1   O7    1.939907 S    
C14   C15   1.392957 A    
N1    C35   1.367624 A    
C15   N4    1.436345 S    
C22   C23   1.417465 A    
O3    Cu1   1.955697 S    
H12   C27   1.083675 S    
C7    H4    1.083570 S    
C19   C20   1.392995 A    
C19   H8    1.080070 S    
C2    C18   1.475174 S    
O8    C4    1.304277 A    
C9    C10   1.417322 A    
C5    C17   1.398231 A    
C30   C31   1.377286 A    
C29   C34   1.414014 A    
C31   C32   1.387602 A    
H1    C14   1.084524 S    
O4    C2    1.301098 A    
O7    C4    1.306662 A    
C10   C12   1.424384 A    
C5    C13   1.398501 A    
C9    H5    1.076909 S    
C22   H11   1.079095 S    
C33   N2    1.384260 A    
N3    O9    1.301398 A    
C11   C18   1.426523 A    
C12   C16   1.403304 A    
Cu1   Cu2   2.700886 S    
H13   C35   1.081715 S    
C12   C13   1.413306 A    
O3    C2    1.306361 A    
C27   C28   1.395200 A    
C10   C11   1.423993 A    
C8    H6    1.082382 S    
C23   C28   1.420440 A    
C30   H15   1.083059 S    
Cu1   O5    1.957274 S    
O5    C3    1.293281 A    
C25   C26   1.395530 A    
C21   H10   1.082857 S    
N4    O12   1.299724 A    
N3    O10   1.301122 A    
C13   C14   1.390130 A    
C17   N3    1.435048 S    
C7    C18   1.401643 A    
C32   C33   1.418164 A    
C36   N2    1.367270 A    
C16   H3    1.075867 S    
Cu2   O6    1.958689 S    
O2    Cu2   1.957275 S    
C23   C24   1.415602 A    
C3    C28   1.448903 S    
Cu2   N1    2.029595 S    
C29   H14   1.060501 S    
C33   C34   1.435563 A    
O1    C1    1.296374 A    
O6    C3    1.300157 A    
C20   H9    1.082937 S    
