data_mof_unit_18007.cif
_audit_creation_date              2012-10-26T19:55:49-0400
_audit_creation_method            fapswitch 2.2
_symmetry_space_group_name_H-M    P1
_symmetry_Int_Tables_number       1
_space_group_crystal_system       triclinic
_cell_length_a                    10.925925
_cell_length_b                    10.861345
_cell_length_c                    9.702997
_cell_angle_alpha                 91.009868
_cell_angle_beta                  91.305989
_cell_angle_gamma                 95.139032
_cell_volume                      1146.30689763

loop_
_atom_site_label
_atom_site_type_symbol
_atom_type_description
_atom_site_fract_x
_atom_site_fract_y
_atom_site_fract_z
_atom_type_partial_charge
C1    C     C_R   0.509715 0.263854 0.499974 0.551712
C2    C     C_R   0.945809 0.681897 0.905078 -0.108167
C3    C     C_R   0.902241 0.608798 0.012648 -0.079962
C4    C     C_R   0.262181 0.491239 0.497798 0.566320
C5    C     C_R   0.858107 0.484943 0.989327 -0.112557
C6    C     C_R   0.863093 0.432338 0.857657 -0.054126
C7    C     C_R   0.910937 0.504995 0.750477 0.070804
C8    C     C_R   0.570390 0.127193 0.754063 -0.117325
C9    C     C_R   0.537240 0.075448 0.879040 -0.106932
C10   C     C_R   0.466885 0.961723 0.880172 0.123830
C11   C     C_R   0.447561 0.892159 0.757322 -0.055124
C12   C     C_R   0.218139 0.691462 0.025329 -0.094697
C13   C     C_R   0.488684 0.941181 0.630716 -0.000944
C14   C     C_R   0.529393 0.067662 0.628506 0.025762
C15   C     C_R   0.521955 0.130460 0.502088 0.006031
C16   C     C_R   0.491954 0.736832 0.501478 0.535598
C17   C     C_R   0.506236 0.062273 0.378490 -0.162466
C18   C     C_R   0.494054 0.934326 0.380126 -0.172282
C19   C     C_R   0.486299 0.871709 0.505202 -0.017117
C20   C     C_R   0.647885 0.699503 0.139951 0.119368
C21   C     C_R   0.694868 0.798659 0.060431 -0.176783
C22   C     C_R   0.693303 0.789592 0.919781 -0.182340
C23   C     C_R   0.932435 0.503005 0.376722 -0.169081
C24   C     C_R   0.641546 0.682989 0.856106 -0.077925
C25   C     C_R   0.568842 0.592652 0.926932 0.118843
C26   C     C_R   0.570353 0.595703 0.076585 0.181764
C27   C     C_R   0.438826 0.408643 0.070262 -0.025003
C28   C     C_R   0.737436 0.496429 0.501056 0.543558
C29   C     C_R   0.439617 0.408392 0.923439 -0.019985
C30   C     C_R   0.191219 0.761238 0.141401 -0.112244
C31   C     C_R   0.142264 0.702215 0.256960 -0.100840
C32   C     C_R   0.118740 0.573127 0.255958 0.052396
C33   C     C_R   0.146923 0.503307 0.139892 -0.054879
C34   C     C_R   0.870704 0.483127 0.499732 -0.028964
C35   C     C_R   0.196896 0.563021 0.025068 -0.089679
C36   C     C_R   0.938109 0.451559 0.616978 -0.007262
C37   C     C_R   0.060538 0.426324 0.603044 0.063213
C38   C     C_R   0.126845 0.475662 0.491217 0.006228
C39   C     C_R   0.060084 0.512820 0.375098 -0.056027
C40   C     C_R   0.949624 0.630463 0.773920 -0.102882
Cu1   Cu    Cu3+1 0.499990 0.499990 0.640660 0.931761
Cu2   Cu    Cu3+1 0.500010 0.500010 0.359340 0.968578
H1    H     H_    0.251700 0.736490 0.933580 0.139249
H2    H     H_    0.387379 0.333734 0.121479 0.119032
H3    H     H_    0.205769 0.861046 0.141100 0.140419
H4    H     H_    0.746831 0.878128 0.108993 0.117746
H5    H     H_    0.742250 0.860901 0.860407 0.130562
H6    H     H_    0.664714 0.672857 0.751123 0.197533
H7    H     H_    0.390386 0.332226 0.867047 0.163716
H8    H     H_    0.120205 0.756924 0.345936 0.100267
H9    H     H_    0.128521 0.403633 0.137719 0.117722
H10   H     H_    0.216620 0.510588 0.934300 0.156658
H11   H     H_    0.882092 0.522942 0.284973 0.132564
H12   H     H_    0.905497 0.649802 0.113603 0.106763
H13   H     H_    0.987688 0.686861 0.691481 0.101410
H14   H     H_    0.978654 0.777826 0.924138 0.116678
H15   H     H_    0.429605 0.982586 0.083949 0.218243
H16   H     H_    0.455396 0.838218 0.032850 0.237719
H17   H     H_    0.687193 0.790855 0.321316 0.212111
H18   H     H_    0.792592 0.701565 0.274965 0.187404
H19   H     H_    0.822894 0.429003 0.073175 0.110498
H20   H     H_    0.833916 0.335291 0.840232 0.114858
H21   H     H_    0.503446 0.107873 0.280296 0.124690
H22   H     H_    0.625702 0.214901 0.757130 0.140247
H23   H     H_    0.561498 0.126634 0.974041 0.097559
H24   H     H_    0.394275 0.803748 0.761471 0.146799
H25   H     H_    0.489176 0.884064 0.282845 0.141818
I1    I     I_    0.133771 0.303532 0.745522 -0.468627
N1    N     N_R   0.501190 0.501210 0.147910 -0.230785
N2    N     N_R   0.501230 0.501290 0.852040 -0.256179
N3    N     N_3   0.413246 0.916688 0.004562 -0.664471
N4    N     N_3   0.697783 0.703949 0.277289 -0.531079
O1    O     O_R   0.499990 0.319640 0.618810 -0.503847
O2    O     O_R   0.500000 0.319660 0.381240 -0.515217
O3    O     O_R   0.319640 0.500000 0.618780 -0.477780
O4    O     O_R   0.319650 0.500020 0.381210 -0.492348
O5    O     O_R   0.500000 0.680340 0.618760 -0.542751
O6    O     O_R   0.500010 0.680360 0.381190 -0.469455
O7    O     O_R   0.680350 0.499980 0.618790 -0.526369
O8    O     O_R   0.680360 0.500000 0.381220 -0.473530

loop_
_geom_bond_atom_site_label_1
_geom_bond_atom_site_label_2
_ccdc_geom_bond_type
Cu2   O8    S    
C27   C29   A    
C7    C36   S    
C30   H3    S    
C29   H7    S    
C5    C6    A    
C1    O2    A    
C36   C37   A    
C18   C19   A    
C12   H1    S    
Cu1   O5    S    
C30   C31   A    
C3    H12   S    
H16   N3    S    
H18   N4    S    
C37   I1    S    
C16   O5    A    
Cu1   Cu2   S    
C32   C39   S    
C28   O7    A    
C4    O3    A    
C27   H2    S    
C8    C9    A    
C7    C40   A    
C1    C15   S    
C9    C10   A    
C34   C36   A    
C27   N1    A    
C11   H24   S    
H17   N4    S    
C10   N3    S    
C40   H13   S    
C22   H5    S    
C28   C34   S    
C13   C14   A    
C23   H11   S    
Cu2   O2    S    
C13   C19   A    
C24   H6    S    
C24   C25   A    
C18   H25   S    
C29   N2    A    
Cu2   N1    S    
C37   C38   A    
Cu1   O3    S    
C31   C32   A    
C23   C34   A    
C17   C18   A    
C5    H19   S    
H15   N3    S    
C12   C35   A    
C8    H22   S    
C4    C38   S    
Cu2   O6    S    
C22   C24   A    
C31   H8    S    
C21   H4    S    
C15   C17   A    
C8    C14   A    
C12   C30   A    
C3    C5    A    
Cu1   O7    S    
C6    C7    A    
C33   H9    S    
Cu2   O4    S    
C1    O1    A    
C32   C33   A    
C6    H20   S    
C2    C3    A    
C25   C26   A    
C2    H14   S    
C17   H21   S    
C11   C13   A    
C38   C39   A    
C20   C26   A    
C16   C19   S    
C23   C39   A    
C33   C35   A    
C16   O6    A    
C28   O8    A    
C9    H23   S    
C4    O4    A    
C10   C11   A    
Cu1   O1    S    
C2    C40   A    
C20   C21   A    
C35   H10   S    
C26   N1    A    
C14   C15   A    
C20   N4    S    
C25   N2    A    
C21   C22   A    
Cu1   N2    S    
