data_mof_unit_34773.cif
_audit_creation_date              2012-12-10T16:44:13-0500
_audit_creation_method            fapswitch 2.2
_symmetry_space_group_name_H-M    P1
_symmetry_Int_Tables_number       1
_space_group_crystal_system       triclinic
_cell_length_a                    7.464423
_cell_length_b                    8.690468
_cell_length_c                    13.42894
_cell_angle_alpha                 94.184161
_cell_angle_beta                  78.775456
_cell_angle_gamma                 102.991335
_cell_volume                      832.203775408

loop_
_atom_site_label
_atom_site_type_symbol
_atom_type_description
_atom_site_fract_x
_atom_site_fract_y
_atom_site_fract_z
_atom_type_partial_charge
C1    C     C_R   0.545077 0.800101 0.503306 0.900160
C2    C     C_R   0.346655 0.408767 0.796854 -0.132792
C3    C     C_2   0.570390 0.967996 0.505122 -0.379519
C4    C     C_R   0.400420 0.466297 0.691207 0.790334
C5    C     C_2   0.429221 0.032055 0.495737 -0.368328
C6    C     C_R   0.454794 0.199895 0.496965 0.869233
C7    C     C_R   0.598987 0.511216 0.306475 0.796291
C8    C     C_R   0.883147 0.591131 0.045001 -0.178779
C9    C     C_R   0.652874 0.520139 0.196181 -0.047582
C10   C     C_R   0.160252 0.341550 0.835709 -0.217027
C11   C     C_R   0.102516 0.313607 0.939022 -0.127757
C12   C     C_R   0.420813 0.418874 0.967764 0.047267
C13   C     C_R   0.228355 0.360342 0.005524 -0.184194
C14   C     C_R   0.480912 0.421417 0.861066 0.065724
C15   C     C_R   0.557696 0.471867 0.030763 0.064506
C16   C     C_R   0.746956 0.531273 0.985219 0.116295
C17   C     C_R   0.802093 0.514171 0.880881 -0.258200
C18   C     C_R   0.673818 0.433295 0.823092 0.166993
C19   C     C_R   0.514217 0.467764 0.136833 -0.234005
C20   C     C_R   0.836805 0.583756 0.150115 -0.207461
Cu1   Cu    Cu3+1 0.321300 0.483160 0.488710 0.940759
Cu2   Cu    Cu3+1 0.678700 0.516840 0.511290 0.934734
H1    H     H_    0.944443 0.626974 0.195181 0.157668
H2    H     H_    0.956985 0.263351 0.968532 0.162317
H3    H     H_    0.706470 0.039246 0.514041 0.179556
H4    H     H_    0.627487 0.256613 0.713310 0.234371
H5    H     H_    0.833759 0.392110 0.686895 0.254555
H6    H     H_    0.293086 0.960828 0.486926 0.180880
H7    H     H_    0.012676 0.620802 0.577948 0.224757
H8    H     H_    0.987608 0.379772 0.421696 0.226815
H9    H     H_    0.948361 0.545714 0.846489 0.157949
H10   H     H_    0.027327 0.637248 0.010165 0.150859
H11   H     H_    0.373804 0.420702 0.175039 0.148959
H12   H     H_    0.058947 0.312522 0.786126 0.183884
H13   H     H_    0.170982 0.346552 0.085202 0.130342
N1    N     N_2   0.947230 0.542220 0.528320 -0.239365
N2    N     N_2   0.052770 0.457780 0.471680 -0.224069
N3    N     N_3   0.737984 0.327270 0.743837 -0.594963
O1    O     O_R   0.383920 0.714220 0.492660 -0.577916
O2    O     O_R   0.685730 0.742660 0.511730 -0.579456
O3    O     O_R   0.275440 0.478800 0.636790 -0.591223
O4    O     O_R   0.577250 0.507240 0.655860 -0.586652
O5    O     O_R   0.314270 0.257340 0.488270 -0.586581
O6    O     O_R   0.616080 0.285780 0.507340 -0.595987
O7    O     O_R   0.422750 0.492760 0.344140 -0.585585
O8    O     O_R   0.724560 0.521200 0.363210 -0.587767

loop_
_geom_bond_atom_site_label_1
_geom_bond_atom_site_label_2
_ccdc_geom_bond_type
C2    C4    S    
C20   H1    S    
C5    H6    S    
Cu2   N1    S    
C14   C18   A    
C9    C20   A    
Cu1   O1    S    
C12   C15   A    
Cu2   O2    S    
C17   C18   A    
C18   N3    S    
C10   H12   S    
C6    O6    A    
Cu1   Cu2   S    
C15   C19   A    
C11   C13   A    
H7    N1    S    
Cu2   O4    S    
C4    O4    A    
C8    C20   A    
C2    C14   A    
C7    O7    A    
N1    N2    D    
Cu2   O8    S    
C12   C14   A    
C13   H13   S    
Cu1   O7    S    
C6    O5    A    
C19   H11   S    
C5    C6    S    
C17   H9    S    
Cu1   O3    S    
C4    O3    A    
C1    O1    A    
H5    N3    S    
C15   C16   A    
C2    C10   A    
C7    O8    A    
C11   H2    S    
C3    H3    S    
Cu1   N2    S    
C12   C13   A    
C8    C16   A    
C10   C11   A    
C7    C9    S    
H4    N3    S    
C1    O2    A    
C3    C5    D    
Cu1   O5    S    
C9    C19   A    
Cu2   O6    S    
H8    N2    S    
C16   C17   A    
C1    C3    S    
C8    H10   S    
