data_mof_unit_36751.cif
_audit_creation_date              2012-12-11T16:26:17-0500
_audit_creation_method            fapswitch 2.2
_symmetry_space_group_name_H-M    P1
_symmetry_Int_Tables_number       1
_space_group_crystal_system       triclinic
_cell_length_a                    14.003513
_cell_length_b                    13.99087
_cell_length_c                    31.980141
_cell_angle_alpha                 90.069518
_cell_angle_beta                  89.923587
_cell_angle_gamma                 119.952179
_cell_volume                      5428.7685662

loop_
_atom_site_label
_atom_site_type_symbol
_atom_type_description
_atom_site_fract_x
_atom_site_fract_y
_atom_site_fract_z
_atom_type_partial_charge
C1    C     C_R   0.567975 0.443677 0.810636 0.543748
C2    C     C_R   0.875444 0.431791 0.689397 0.539682
C3    C     C_R   0.556436 0.124578 0.810709 0.543149
C4    C     C_R   0.568367 0.443785 0.689326 0.539366
C5    C     C_R   0.875558 0.431994 0.810662 0.543786
C6    C     C_R   0.556413 0.124273 0.689415 0.541948
C7    C     C_R   0.443988 0.567665 0.310397 0.543897
C8    C     C_R   0.432162 0.876050 0.189454 0.542905
C9    C     C_R   0.124274 0.556377 0.310536 0.542475
C10   C     C_R   0.443829 0.567967 0.189388 0.542650
C11   C     C_R   0.431796 0.875883 0.310624 0.542298
C12   C     C_R   0.124082 0.556101 0.189422 0.543256
C13   C     C_1   0.000110 0.514238 0.018937 0.043754
C14   C     C_1   0.509771 0.992652 0.481500 0.046546
C15   C     C_1   0.482605 0.486678 0.018508 0.045967
C16   C     C_1   0.004883 0.511535 0.481375 0.050158
C17   C     C_1   0.518055 0.004082 0.019491 0.041219
C18   C     C_1   0.496212 0.487043 0.479706 0.045073
C19   C     C_1   0.513770 0.999967 0.518882 0.054368
C20   C     C_1   0.992505 0.511240 0.981568 0.038680
C21   C     C_1   0.502333 0.483335 0.516980 0.029137
C22   C     C_1   0.521873 0.011228 0.982091 0.038442
C23   C     C_1   0.994818 0.506447 0.518603 0.029522
C24   C     C_1   0.485397 0.482480 0.981116 0.044609
C25   C     C_R   0.927569 0.469545 0.851961 -0.029251
C26   C     C_R   0.542467 0.072672 0.648102 -0.027228
C27   C     C_R   0.529743 0.458503 0.851780 -0.029051
C28   C     C_R   0.925588 0.467702 0.647903 -0.036519
C29   C     C_R   0.542057 0.073108 0.852155 -0.029313
C30   C     C_R   0.534012 0.459057 0.647564 -0.036003
C31   C     C_R   0.468272 0.929811 0.351740 -0.029918
C32   C     C_R   0.070700 0.540102 0.148333 -0.029753
C33   C     C_R   0.460522 0.529099 0.351049 -0.028158
C34   C     C_R   0.470644 0.930628 0.148584 -0.030463
C35   C     C_R   0.074154 0.542744 0.352021 -0.027711
C36   C     C_R   0.459483 0.530556 0.148181 -0.029654
C37   C     C_R   0.909908 0.545435 0.874643 -0.124027
C38   C     C_R   0.636454 0.100718 0.623823 -0.137071
C39   C     C_R   0.453555 0.365143 0.874363 -0.122556
C40   C     C_R   0.897461 0.533324 0.623537 -0.139492
C41   C     C_R   0.635214 0.087986 0.874255 -0.122295
C42   C     C_R   0.459390 0.366478 0.624342 -0.132405
C43   C     C_R   0.555361 0.928130 0.372773 -0.123148
C44   C     C_R   0.084803 0.632290 0.125781 -0.124820
C45   C     C_R   0.368383 0.457252 0.375100 -0.124885
C46   C     C_R   0.549178 0.916979 0.126085 -0.123145
C47   C     C_R   0.105215 0.636832 0.376700 -0.124942
C48   C     C_R   0.367315 0.451510 0.125916 -0.122277
C49   C     C_R   0.936103 0.563780 0.917187 0.079718
C50   C     C_R   0.626657 0.073146 0.581507 0.068373
C51   C     C_R   0.434105 0.373320 0.916780 0.081090
C52   C     C_R   0.923766 0.549229 0.581119 0.079486
C53   C     C_R   0.628431 0.063516 0.916957 0.078443
C54   C     C_R   0.446994 0.375211 0.581413 0.090471
C55   C     C_R   0.574043 0.955266 0.415338 0.082571
C56   C     C_R   0.057457 0.623230 0.083327 0.083886
C57   C     C_R   0.380183 0.439003 0.417321 0.078737
C58   C     C_R   0.569486 0.946596 0.083851 0.077385
C59   C     C_R   0.080043 0.626907 0.419314 0.079086
C60   C     C_R   0.375662 0.432825 0.083407 0.079662
C61   C     C_R   0.982745 0.507046 0.936897 0.081500
C62   C     C_R   0.521781 0.014612 0.563346 0.093138
C63   C     C_R   0.489923 0.476864 0.936452 0.085572
C64   C     C_R   0.981131 0.501215 0.563020 0.071858
C65   C     C_R   0.526246 0.020604 0.937380 0.088675
C66   C     C_R   0.508607 0.477742 0.561555 0.078594
C67   C     C_R   0.504489 0.984349 0.436777 0.086488
C68   C     C_R   0.014113 0.520183 0.063452 0.093145
C69   C     C_R   0.485751 0.492640 0.435344 0.087134
C70   C     C_R   0.510427 0.990635 0.064053 0.086980
C71   C     C_R   0.020644 0.521213 0.437061 0.094810
C72   C     C_R   0.477778 0.494041 0.063105 0.090222
C73   C     C_R   0.010562 0.438822 0.913587 0.121704
C74   C     C_R   0.426441 0.978647 0.588051 0.113604
C75   C     C_R   0.558435 0.572727 0.913192 0.125930
C76   C     C_R   0.017069 0.441777 0.587812 0.119891
C77   C     C_R   0.430244 0.995318 0.914663 0.129838
C78   C     C_R   0.577779 0.572962 0.585128 0.113828
C79   C     C_R   0.424210 0.997069 0.415040 0.119800
C80   C     C_R   0.991277 0.425300 0.086579 0.129249
C81   C     C_R   0.579423 0.557824 0.410692 0.118211
C82   C     C_R   0.438541 0.013684 0.087254 0.125980
C83   C     C_R   0.981458 0.426185 0.411950 0.123927
C84   C     C_R   0.572837 0.566842 0.085942 0.125511
C85   C     C_R   0.980730 0.418938 0.871316 -0.133106
C86   C     C_R   0.437550 0.008615 0.630409 -0.137011
C87   C     C_R   0.579477 0.562414 0.871054 -0.131667
C88   C     C_R   0.987890 0.424710 0.630191 -0.105258
C89   C     C_R   0.439310 0.023772 0.872263 -0.132498
C90   C     C_R   0.589781 0.562606 0.628011 -0.107983
C91   C     C_R   0.405928 0.968477 0.372693 -0.135284
C92   C     C_R   0.019643 0.436137 0.128995 -0.128403
C93   C     C_R   0.566211 0.575523 0.368546 -0.129656
C94   C     C_R   0.419276 0.983431 0.129483 -0.132296
C95   C     C_R   0.009278 0.437644 0.369445 -0.135205
C96   C     C_R   0.562818 0.584252 0.128464 -0.129321
Cr1   Cr    Cr6+3 0.504240 0.249200 0.750000 1.007676
Cr2   Cr    Cr6+3 0.744960 0.495760 0.750000 1.007967
Cr3   Cr    Cr6+3 0.750800 0.255040 0.750000 1.006984
Cr4   Cr    Cr6+3 0.249200 0.504240 0.250000 1.007190
Cr5   Cr    Cr6+3 0.495760 0.744960 0.250000 1.007332
Cr6   Cr    Cr6+3 0.255040 0.750800 0.250000 1.007839
H1    H     H_    0.869118 0.585233 0.860029 0.137113
H2    H     H_    0.718294 0.150487 0.636823 0.141970
H3    H     H_    0.414402 0.284429 0.859807 0.136594
H4    H     H_    0.848803 0.566754 0.636610 0.144267
H5    H     H_    0.715048 0.125779 0.859087 0.137135
H6    H     H_    0.415834 0.285687 0.638760 0.139267
H7    H     H_    0.604817 0.899641 0.356803 0.132214
H8    H     H_    0.123402 0.712877 0.140434 0.136379
H9    H     H_    0.286400 0.420712 0.361838 0.137620
H10   H     H_    0.590342 0.877474 0.140634 0.137186
H11   H     H_    0.155582 0.718437 0.363542 0.137434
H12   H     H_    0.287285 0.408660 0.140910 0.136856
H13   H     H_    0.006528 0.363976 0.146267 0.127497
H14   H     H_    0.339707 0.972172 0.356688 0.127399
H15   H     H_    0.635026 0.643892 0.145518 0.128275
H16   H     H_    0.983848 0.364569 0.350511 0.125026
H17   H     H_    0.360251 0.996642 0.146769 0.128173
H18   H     H_    0.638140 0.630124 0.350181 0.129559
H19   H     H_    0.364415 0.985495 0.648975 0.127156
H20   H     H_    0.996022 0.361330 0.853976 0.124815
H21   H     H_    0.647833 0.634834 0.645497 0.145489
H22   H     H_    0.366590 0.010471 0.855416 0.123864
H23   H     H_    0.011956 0.376025 0.649095 0.140724
H24   H     H_    0.637279 0.635147 0.853769 0.124622
O1    O     O_R   0.480350 0.140770 0.796330 -0.519428
O2    O     O_R   0.660420 0.519650 0.703670 -0.521953
O3    O     O_R   0.859230 0.339580 0.796330 -0.518761
O4    O     O_R   0.480350 0.140770 0.703670 -0.517577
O5    O     O_R   0.660420 0.519650 0.796330 -0.518385
O6    O     O_R   0.859230 0.339580 0.703670 -0.521265
O7    O     O_R   0.140770 0.480350 0.296330 -0.517917
O8    O     O_R   0.519650 0.660420 0.203670 -0.519111
O9    O     O_R   0.339580 0.859230 0.296330 -0.522055
O10   O     O_R   0.140770 0.480350 0.203670 -0.519330
O11   O     O_R   0.519650 0.660420 0.296330 -0.516990
O12   O     O_R   0.339580 0.859230 0.203670 -0.518444
O13   O     O_R   0.514930 0.348530 0.793250 -0.500256
O14   O     O_R   0.833600 0.485070 0.706750 -0.498604
O15   O     O_R   0.651470 0.166400 0.793250 -0.500031
O16   O     O_R   0.514930 0.348530 0.706750 -0.497911
O17   O     O_R   0.833600 0.485070 0.793250 -0.499889
O18   O     O_R   0.651470 0.166400 0.706750 -0.500403
O19   O     O_R   0.348530 0.514930 0.293250 -0.500487
O20   O     O_R   0.485070 0.833600 0.206750 -0.500233
O21   O     O_R   0.166400 0.651470 0.293250 -0.500436
O22   O     O_R   0.348530 0.514930 0.206750 -0.500349
O23   O     O_R   0.485070 0.833600 0.293250 -0.498190
O24   O     O_R   0.166400 0.651470 0.206750 -0.499323
O25   O     O_3   0.666667 0.333333 0.750000 -0.228105
O26   O     O_3   0.333333 0.666667 0.250000 -0.227699
N1    N     N_3   0.076746 0.718872 0.059869 -0.632104
H25   H     H_    0.102779 0.786930 0.079663 0.220747
H26   H     H_    0.141726 0.737694 0.039235 0.214015
N2    N     N_3   0.659678 0.948241 0.437448 -0.636255
H27   H     H_    0.702895 0.924949 0.417087 0.211311
H28   H     H_    0.716335 0.027657 0.447801 0.235137
N3    N     N_3   0.279931 0.355539 0.060240 -0.654942
H29   H     H_    0.210665 0.319632 0.079687 0.218556
H30   H     H_    0.292940 0.291536 0.050535 0.235701
N4    N     N_3   0.117565 0.723628 0.444999 -0.619045
H31   H     H_    0.152441 0.794750 0.426528 0.223510
H32   H     H_    0.180655 0.729162 0.464120 0.243687
N5    N     N_3   0.646217 0.927669 0.060412 -0.645274
H33   H     H_    0.680895 0.892504 0.079547 0.217467
H34   H     H_    0.711083 0.004638 0.051275 0.236400
N6    N     N_3   0.284992 0.371391 0.442649 -0.631328
H35   H     H_    0.213131 0.342062 0.424929 0.215444
H36   H     H_    0.289671 0.302152 0.451782 0.227136
N7    N     N_3   0.723637 0.109461 0.556458 -0.646123
H37   H     H_    0.770871 0.078391 0.569669 0.219185
H38   H     H_    0.769297 0.195557 0.558104 0.237198
N8    N     N_3   0.909834 0.634809 0.941096 -0.611035
H39   H     H_    0.869465 0.665047 0.922469 0.222517
H40   H     H_    0.984229 0.703120 0.950381 0.223760
N9    N     N_3   0.375949 0.278693 0.557556 -0.646948
H41   H     H_    0.296812 0.243135 0.570407 0.225164
H42   H     H_    0.404131 0.222624 0.560977 0.224794
N10   N     N_3   0.725601 0.086265 0.940100 -0.639215
H43   H     H_    0.792686 0.110667 0.919934 0.221245
H44   H     H_    0.745302 0.153568 0.959656 0.241871
N11   N     N_3   0.888143 0.610449 0.556010 -0.614925
H45   H     H_    0.921209 0.689515 0.568798 0.231001
H46   H     H_    0.802282 0.572149 0.558140 0.242786
N12   N     N_3   0.363122 0.276149 0.940653 -0.625028
H47   H     H_    0.333748 0.205399 0.922100 0.222199
H48   H     H_    0.294359 0.281898 0.949634 0.219520
N13   N     N_2   0.938901 0.318742 0.067670 -0.522405
H49   H     H_    0.892600 0.253950 0.087678 0.246409
C97   C     C_3   0.004156 0.296289 0.038269 -0.293181
H50   H     H_    0.019185 0.231004 0.050863 0.121532
H51   H     H_    0.085223 0.370766 0.031738 0.179075
H52   H     H_    0.958045 0.266427 0.008469 0.180026
N14   N     N_2   0.357077 0.031842 0.436179 -0.534297
H53   H     H_    0.280715 0.003934 0.422747 0.241230
C98   C     C_3   0.411689 0.148774 0.445240 -0.310672
H54   H     H_    0.433019 0.196905 0.415690 0.147675
H55   H     H_    0.487761 0.174879 0.463794 0.165649
H56   H     H_    0.355807 0.167141 0.463859 0.144926
N15   N     N_2   0.678834 0.621679 0.066667 -0.512945
H57   H     H_    0.744200 0.640927 0.086432 0.256638
C99   C     C_3   0.699656 0.708780 0.037269 -0.276567
H58   H     H_    0.765515 0.789282 0.049458 0.124666
H59   H     H_    0.624876 0.715341 0.031393 0.175075
H60   H     H_    0.728044 0.691893 0.007201 0.195741
N16   N     N_2   0.914543 0.319306 0.429362 -0.516102
H61   H     H_    0.852476 0.265867 0.409612 0.248867
C100  C     C_3   0.975591 0.270139 0.446367 -0.315528
H62   H     H_    0.015597 0.249307 0.420700 0.127163
H63   H     H_    0.918258 0.193134 0.463222 0.142623
H64   H     H_    0.039184 0.327133 0.468792 0.167548
N17   N     N_2   0.386501 0.068414 0.068617 -0.514790
H65   H     H_    0.370619 0.116518 0.088747 0.247687
C101  C     C_3   0.296517 0.003776 0.040130 -0.292661
H66   H     H_    0.216775 0.982682 0.055115 0.119108
H67   H     H_    0.293816 0.926039 0.030682 0.158347
H68   H     H_    0.306733 0.053160 0.011625 0.189245
N18   N     N_2   0.686628 0.608678 0.428582 -0.517808
H69   H     H_    0.743415 0.602320 0.409952 0.257085
C102  C     C_3   0.726732 0.720818 0.442345 -0.302080
H70   H     H_    0.744280 0.775709 0.414884 0.131806
H71   H     H_    0.804032 0.749676 0.460394 0.157278
H72   H     H_    0.665154 0.725852 0.462782 0.169110
N19   N     N_2   0.319620 0.912950 0.570479 -0.517353
H73   H     H_    0.264215 0.854062 0.590799 0.252573
C103  C     C_3   0.274562 0.975280 0.551207 -0.305283
H74   H     H_    0.195418 0.917767 0.535659 0.163428
H75   H     H_    0.331839 0.032321 0.527193 0.179815
H76   H     H_    0.258968 0.023215 0.575291 0.124710
N20   N     N_2   0.062046 0.384645 0.933081 -0.536776
H77   H     H_    0.045622 0.311808 0.918815 0.241970
C104  C     C_3   0.178391 0.455307 0.941485 -0.319862
H78   H     H_    0.209977 0.408121 0.958843 0.149348
H79   H     H_    0.192873 0.527076 0.960973 0.149276
H80   H     H_    0.224892 0.485243 0.911669 0.142854
N21   N     N_2   0.641432 0.678318 0.566009 -0.536249
H81   H     H_    0.663983 0.676878 0.535452 0.256083
C105  C     C_3   0.599292 0.752810 0.572559 -0.298067
H82   H     H_    0.656481 0.834170 0.558346 0.156776
H83   H     H_    0.592568 0.765315 0.606517 0.154791
H84   H     H_    0.517056 0.719362 0.557637 0.159376
N22   N     N_2   0.325585 0.947324 0.934817 -0.529655
H85   H     H_    0.270832 0.966788 0.921082 0.241730
C106  C     C_3   0.276145 0.830267 0.942839 -0.326216
H86   H     H_    0.197759 0.800894 0.960254 0.133471
H87   H     H_    0.331605 0.812803 0.962101 0.149773
H88   H     H_    0.258094 0.784085 0.912874 0.144981
N23   N     N_2   0.083262 0.400000 0.570836 -0.515258
H89   H     H_    0.128861 0.441007 0.544814 0.258174
C107  C     C_3   0.028394 0.281378 0.566454 -0.319689
H90   H     H_    0.088635 0.256934 0.555729 0.148930
H91   H     H_    0.961560 0.253373 0.542912 0.144498
H92   H     H_    0.993545 0.240110 0.596821 0.146829
N24   N     N_2   0.611978 0.678550 0.932630 -0.534540
H93   H     H_    0.684876 0.734863 0.918462 0.246858
C108  C     C_3   0.541001 0.724211 0.940728 -0.314276
H94   H     H_    0.588101 0.803851 0.957616 0.174057
H95   H     H_    0.469776 0.667591 0.960514 0.147005
H96   H     H_    0.510386 0.739257 0.910804 0.144465

loop_
_geom_bond_atom_site_label_1
_geom_bond_atom_site_label_2
_ccdc_geom_bond_type
C84   N15   S    
C68   C80   A    
C44   H8    S    
C39   C51   A    
N7    H37   S    
N24   C108  S    
C106  H87   S    
N5    H33   S    
C82   C94   A    
C46   H10   S    
Cr2   O17   S    
C18   C21   T    
C33   C45   A    
C80   N13   S    
C105  H82   S    
C3    O15   A    
C52   N11   S    
C6    O4    A    
C35   C47   A    
C29   C89   A    
N15   C99   S    
C4    C30   S    
C107  H90   S    
C57   N6    S    
C32   C92   A    
N17   H65   S    
C78   C90   A    
C7    O19   A    
C15   C72   S    
C99   H59   S    
C45   C57   A    
N23   H89   S    
C88   H23   S    
C31   C43   A    
Cr3   O6    S    
C40   H4    S    
N2    H27   S    
N19   C103  S    
Cr1   O4    S    
C102  H72   S    
C75   N24   S    
C101  H67   S    
C4    O16   A    
C21   C66   S    
C3    O1    A    
C24   C63   S    
C5    O17   A    
C28   C40   A    
C19   C62   S    
N22   H85   S    
C81   N18   S    
N21   C105  S    
Cr6   O12   S    
C100  H64   S    
C79   N14   S    
C91   H14   S    
C8    O12   A    
C108  H94   S    
C84   C96   A    
C83   N16   S    
C20   C61   S    
N13   C97   S    
C58   N5    S    
C44   C56   A    
Cr6   O9    S    
C38   H2    S    
Cr5   O23   S    
C25   C37   A    
N8    H39   S    
C15   C24   T    
C11   O23   A    
C103  H74   S    
C60   N3    S    
C27   C39   A    
N9    H42   S    
Cr2   O5    S    
C28   C88   A    
C2    O6    A    
C14   C67   S    
N3    H30   S    
Cr4   O10   S    
C50   N7    S    
C34   C46   A    
C93   H18   S    
N1    H26   S    
C53   C65   A    
C104  H78   S    
C76   C88   A    
N4    H32   S    
C1    O13   A    
C51   C63   A    
Cr1   O1    S    
C42   H6    S    
C64   C76   A    
C18   C69   S    
N6    H36   S    
C11   C31   S    
C17   C70   S    
N5    H34   S    
N21   H81   S    
C46   C58   A    
C7    C33   S    
C98   H54   S    
C16   C71   S    
C76   N23   S    
C49   N8    S    
C104  H80   S    
N10   H44   S    
C48   C60   A    
Cr5   O8    S    
C71   C83   A    
Cr2   O25   S    
N17   C101  S    
C95   H16   S    
Cr1   O25   S    
C55   N2    S    
C66   C78   A    
C99   H60   S    
C8    O20   A    
Cr5   O20   S    
N23   C107  S    
C49   C61   A    
C38   C50   A    
Cr3   O3    S    
C9    C35   S    
N16   H61   S    
C12   O24   A    
C96   H15   S    
C67   C79   A    
C100  H62   S    
C52   C64   A    
C101  H68   S    
N18   H69   S    
C7    O11   A    
C4    O2    A    
C58   C70   A    
C107  H92   S    
C61   C73   A    
C56   C68   A    
Cr3   O25   S    
C9    O21   A    
Cr4   O26   S    
C97   H50   S    
Cr2   O14   S    
Cr3   O18   S    
C108  H95   S    
C80   C92   A    
C98   H56   S    
C101  H66   S    
C97   H51   S    
C22   C65   S    
C102  H70   S    
C11   O9    A    
Cr6   O21   S    
N18   C102  S    
C82   N17   S    
C81   C93   A    
C94   H17   S    
C36   C96   A    
N3    H29   S    
Cr4   O19   S    
C26   C86   A    
C62   C74   A    
C83   C95   A    
C103  H76   S    
C86   H19   S    
C25   C85   A    
N19   H73   S    
C32   C44   A    
N11   H45   S    
C85   H20   S    
C105  H83   S    
C51   N12   S    
C8    C34   S    
C74   C86   A    
C98   H55   S    
C27   C87   A    
C104  H79   S    
C74   N19   S    
C41   C53   A    
C37   C49   A    
C72   C84   A    
C30   C90   A    
Cr6   O26   S    
Cr6   O24   S    
C69   C81   A    
C5    C25   S    
C75   C87   A    
N6    H35   S    
C103  H75   S    
C16   C23   T    
C31   C91   A    
N20   C104  S    
C50   C62   A    
C5    O3    A    
N12   H48   S    
N24   H93   S    
C53   N10   S    
C73   N20   S    
Cr4   O7    S    
N22   C106  S    
C48   H12   S    
N4    H31   S    
C73   C85   A    
C43   C55   A    
C47   H11   S    
C23   C64   S    
Cr5   O11   S    
C41   H5    S    
C13   C20   T    
C29   C41   A    
C77   N22   S    
C77   C89   A    
C79   C91   A    
C14   C19   T    
Cr3   O15   S    
C26   C38   A    
C34   C94   A    
N16   C100  S    
C56   N1    S    
C1    O5    A    
C33   C93   A    
C39   H3    S    
C55   C67   A    
C45   H9    S    
C54   C66   A    
C89   H22   S    
C35   C95   A    
C78   N21   S    
Cr5   O26   S    
C65   C77   A    
C17   C22   T    
C54   N9    S    
C108  H96   S    
C2    O14   A    
N2    H28   S    
N12   H47   S    
C97   H52   S    
C102  H71   S    
C59   N4    S    
C40   C52   A    
C42   C54   A    
C3    C29   S    
C6    C26   S    
C63   C75   A    
Cr4   O22   S    
Cr2   O2    S    
C100  H63   S    
C10   C36   S    
C36   C48   A    
C105  H84   S    
C37   H1    S    
N13   H49   S    
C70   C82   A    
C92   H13   S    
N8    H40   S    
Cr1   O16   S    
C107  H91   S    
C47   C59   A    
N14   H53   S    
N7    H38   S    
C10   O8    A    
N15   H57   S    
N11   H46   S    
N9    H41   S    
C12   O10   A    
C106  H88   S    
C59   C71   A    
N20   H77   S    
C1    C27   S    
C60   C72   A    
C30   C42   A    
C2    C28   S    
C43   H7    S    
C99   H58   S    
C57   C69   A    
N1    H25   S    
C106  H86   S    
C6    O18   A    
Cr1   O13   S    
C90   H21   S    
C12   C32   S    
N10   H43   S    
C87   H24   S    
C10   O22   A    
N14   C98   S    
C13   C68   S    
C9    O7    A    
