data_mof_unit_11685.cif
_audit_creation_date              2013-03-05T16:04:57-0500
_audit_creation_method            fapswitch 2.2
_symmetry_space_group_name_H-M    P1
_symmetry_Int_Tables_number       1
_space_group_crystal_system       triclinic
_cell_length_a                    23.064109
_cell_length_b                    21.001012
_cell_length_c                    15.041638
_cell_angle_alpha                 90.791824
_cell_angle_beta                  98.601773
_cell_angle_gamma                 90.656158
_cell_volume                      7202.39979301

loop_
_atom_site_label
_atom_site_type_symbol
_atom_site_description
_atom_site_fract_x
_atom_site_fract_y
_atom_site_fract_z
_atom_type_partial_charge
O1    O     O_R   0.541320 0.066090 0.608930 -0.607503
O2    O     O_R   0.458680 0.933910 0.391070 -0.620597
O3    O     O_R   0.458680 0.066090 0.391070 -0.600186
O4    O     O_R   0.541320 0.933910 0.608930 -0.605784
O5    O     O_R   0.041320 0.566090 0.608930 -0.607577
O6    O     O_R   0.958680 0.433910 0.391070 -0.620571
O7    O     O_R   0.958680 0.566090 0.391070 -0.600140
O8    O     O_R   0.041320 0.433910 0.608930 -0.605688
O9    O     O_R   0.572880 0.066110 0.470280 -0.617407
O10   O     O_R   0.427120 0.933890 0.529720 -0.616367
O11   O     O_R   0.427120 0.066110 0.529720 -0.625382
O12   O     O_R   0.572880 0.933890 0.470280 -0.627348
O13   O     O_R   0.072880 0.566110 0.470280 -0.617344
O14   O     O_R   0.927120 0.433890 0.529720 -0.616432
O15   O     O_R   0.927120 0.566110 0.529720 -0.625451
O16   O     O_R   0.072880 0.433890 0.470280 -0.627270
C1    C     C_R   0.576889 0.086660 0.554747 0.879919
C2    C     C_R   0.425136 0.911644 0.446100 0.872444
C3    C     C_R   0.421517 0.082231 0.444997 0.887242
C4    C     C_R   0.576803 0.914771 0.553905 0.887719
C5    C     C_R   0.076879 0.586677 0.554739 0.879776
C6    C     C_R   0.925127 0.411658 0.446089 0.872501
C7    C     C_R   0.921507 0.582218 0.444985 0.887310
C8    C     C_R   0.076813 0.414794 0.553902 0.887747
Zn1   Zn    Zn3+2 0.478910 1.000000 0.592580 0.933767
Zn2   Zn    Zn3+2 0.521090 1.000000 0.407420 0.930663
Zn3   Zn    Zn3+2 0.978910 0.500000 0.592580 0.933759
Zn4   Zn    Zn3+2 0.021090 0.500000 0.407420 0.930715
C9    C     C_R   0.625484 0.872355 0.587708 -0.122291
C10   C     C_R   0.367000 0.113875 0.408091 -0.121162
C11   C     C_R   0.387026 0.855941 0.414319 -0.127651
C12   C     C_R   0.626545 0.130742 0.591576 -0.139100
C13   C     C_R   0.125595 0.372536 0.587730 -0.122059
C14   C     C_R   0.866995 0.613872 0.408047 -0.121346
C15   C     C_R   0.886976 0.356006 0.414251 -0.127656
C16   C     C_R   0.126510 0.630798 0.591561 -0.139111
C17   C     C_R   0.707376 0.839539 0.699722 0.216659
C18   C     C_R   0.283304 0.133208 0.291938 0.215763
C19   C     C_R   0.341571 0.777193 0.302467 0.216725
C20   C     C_R   0.687595 0.193056 0.711016 0.218512
C21   C     C_R   0.207874 0.340332 0.699475 0.216629
C22   C     C_R   0.783552 0.633559 0.291600 0.215745
C23   C     C_R   0.841329 0.277468 0.302249 0.216693
C24   C     C_R   0.187385 0.693348 0.710934 0.218552
C25   C     C_R   0.658106 0.878975 0.675252 0.190906
C26   C     C_R   0.334912 0.098931 0.322120 0.206039
C27   C     C_R   0.380401 0.829827 0.324947 0.183834
C28   C     C_R   0.638488 0.152165 0.683175 0.186429
C29   C     C_R   0.158483 0.379601 0.675008 0.190779
C30   C     C_R   0.835074 0.599164 0.321876 0.206190
C31   C     C_R   0.880258 0.330003 0.324809 0.183903
C32   C     C_R   0.138296 0.652432 0.683075 0.186103
C33   C     C_R   0.643004 0.829141 0.526134 -0.303778
C34   C     C_R   0.342313 0.152773 0.467202 -0.310776
C35   C     C_R   0.358937 0.826163 0.478336 -0.310186
C36   C     C_R   0.665368 0.148462 0.532854 -0.308469
C37   C     C_R   0.143001 0.329122 0.526326 -0.303581
C38   C     C_R   0.842164 0.652579 0.467218 -0.310792
C39   C     C_R   0.858929 0.326169 0.478261 -0.310322
C40   C     C_R   0.165440 0.648380 0.532929 -0.308447
C41   C     C_R   0.693394 0.792705 0.546714 0.051329
C42   C     C_R   0.285463 0.175075 0.445663 0.049276
C43   C     C_R   0.330092 0.767830 0.461723 0.042878
C44   C     C_R   0.719533 0.178115 0.563608 0.043869
C45   C     C_R   0.193535 0.292903 0.546821 0.051409
C46   C     C_R   0.785367 0.674980 0.445473 0.049242
C47   C     C_R   0.830004 0.267893 0.461538 0.042934
C48   C     C_R   0.219560 0.678114 0.563741 0.043860
C49   C     C_R   0.721188 0.792617 0.637424 0.056997
C50   C     C_R   0.258755 0.171601 0.354872 0.053653
C51   C     C_R   0.319819 0.743968 0.372275 0.060774
C52   C     C_R   0.730177 0.201841 0.653156 0.059879
C53   C     C_R   0.221594 0.293201 0.637396 0.056968
C54   C     C_R   0.758884 0.671805 0.354561 0.053668
C55   C     C_R   0.819598 0.244180 0.372016 0.060747
C56   C     C_R   0.230071 0.702009 0.653211 0.059972
C57   C     C_R   0.714759 0.753190 0.480834 0.028948
C58   C     C_R   0.257888 0.207591 0.510852 0.034338
C59   C     C_R   0.305761 0.736102 0.530824 0.036265
C60   C     C_R   0.761293 0.189965 0.504719 0.040937
C61   C     C_R   0.214806 0.253242 0.481017 0.028880
C62   C     C_R   0.757660 0.707345 0.510634 0.034336
C63   C     C_R   0.805721 0.236092 0.530621 0.036278
C64   C     C_R   0.261404 0.689889 0.504957 0.040986
C65   C     C_R   0.273037 0.197370 0.604643 0.177757
C66   C     C_R   0.697220 0.758819 0.386031 0.188837
C67   C     C_R   0.761533 0.158159 0.421010 0.192912
C68   C     C_R   0.322817 0.748287 0.624339 0.176151
C69   C     C_R   0.772517 0.696782 0.604377 0.177981
C70   C     C_R   0.197005 0.258576 0.386232 0.188737
C71   C     C_R   0.261795 0.657946 0.421386 0.192986
C72   C     C_R   0.822888 0.248131 0.624152 0.176197
C73   C     C_R   0.258515 0.242615 0.665656 -0.228651
C74   C     C_R   0.711735 0.711641 0.327586 -0.223787
C75   C     C_R   0.789500 0.186133 0.355282 -0.229217
C76   C     C_R   0.284283 0.732030 0.683841 -0.233198
C77   C     C_R   0.757914 0.741850 0.665561 -0.228683
C78   C     C_R   0.211479 0.211279 0.327934 -0.223810
C79   C     C_R   0.289828 0.685845 0.355670 -0.229231
C80   C     C_R   0.784417 0.231819 0.683725 -0.233253
H1    H     H_    0.271825 0.233958 0.736461 0.168329
H2    H     H_    0.692591 0.714228 0.257563 0.169276
H3    H     H_    0.788885 0.160773 0.291971 0.169031
H4    H     H_    0.298118 0.741595 0.754782 0.170477
H5    H     H_    0.770994 0.732922 0.736344 0.168374
H6    H     H_    0.192156 0.213636 0.257969 0.169251
H7    H     H_    0.289341 0.660375 0.292473 0.168996
H8    H     H_    0.798318 0.241308 0.754672 0.170561
H9    H     H_    0.368003 0.165281 0.531408 0.192536
H10   H     H_    0.614845 0.822455 0.462780 0.183678
H11   H     H_    0.653193 0.138230 0.462002 0.203656
H12   H     H_    0.360265 0.848558 0.542842 0.195122
H13   H     H_    0.867706 0.664899 0.531613 0.192712
H14   H     H_    0.114666 0.322135 0.463197 0.183351
H15   H     H_    0.153375 0.637994 0.462100 0.203669
H16   H     H_    0.860357 0.348469 0.542848 0.195117
N1    N     N_R   0.549130 1.000000 0.284090 -0.099256
N2    N     N_R   0.450870 1.000000 0.715910 -0.099569
N3    N     N_R   0.049130 0.500000 0.284090 -0.099228
N4    N     N_R   0.950870 0.500000 0.715910 -0.099546
C81   C     C_R   0.628571 0.006240 0.198720 -0.300979
C82   C     C_R   0.371295 0.003390 0.801419 -0.307636
C83   C     C_R   0.128570 0.506285 0.198721 -0.300956
C84   C     C_R   0.871293 0.503346 0.801420 -0.307687
C85   C     C_R   0.607860 0.997069 0.279694 0.339951
C86   C     C_R   0.391630 0.997207 0.719554 0.350845
C87   C     C_R   0.107861 0.497078 0.279692 0.339979
C88   C     C_R   0.891634 0.497158 0.719560 0.350565
C89   C     C_R   0.509557 0.007055 0.209183 -0.108748
C90   C     C_R   0.490428 0.006629 0.791540 -0.118198
C91   C     C_R   0.009556 0.507029 0.209179 -0.108806
C92   C     C_R   0.990425 0.506671 0.791539 -0.117935
C93   C     C_R   0.528025 0.011889 0.123883 -0.001603
C94   C     C_R   0.471789 0.011684 0.876767 0.000145
C95   C     C_R   0.028022 0.511901 0.123884 -0.001574
C96   C     C_R   0.971784 0.511713 0.876768 0.000112
C97   C     C_R   0.589015 0.013485 0.120783 0.134758
C98   C     C_R   0.410828 0.009612 0.879805 0.132625
C99   C     C_R   0.089011 0.513541 0.120787 0.134747
C100  C     C_R   0.910823 0.509599 0.879805 0.132667
C101  C     C_R   0.488551 0.013684 0.042145 0.094526
C102  C     C_R   0.511150 0.016177 0.958670 0.095518
C103  C     C_R   0.988545 0.513695 0.042147 0.094566
C104  C     C_R   0.011143 0.516224 0.958673 0.095476
C105  C     C_R   0.572237 0.021801 0.959859 -0.238627
C106  C     C_R   0.427363 0.010982 0.040988 -0.238448
C107  C     C_R   0.072227 0.521899 0.959865 -0.238580
C108  C     C_R   0.927357 0.510956 0.040989 -0.238624
C109  C     C_R   0.610393 0.020176 0.039711 -0.203974
C110  C     C_R   0.389311 0.010527 0.961196 -0.202017
C111  C     C_R   0.110385 0.520275 0.039718 -0.203904
C112  C     C_R   0.889305 0.510494 0.961197 -0.201988
H17   H     H_    0.657178 0.022828 0.037764 0.142377
H18   H     H_    0.342521 0.008257 0.963314 0.142623
H19   H     H_    0.157169 0.522961 0.037772 0.142386
H20   H     H_    0.842517 0.508193 0.963314 0.142616
H21   H     H_    0.535661 0.005719 0.783053 0.133325
H22   H     H_    0.464522 0.008030 0.218740 0.138003
H23   H     H_    0.035659 0.505798 0.783054 0.133105
H24   H     H_    0.964523 0.507939 0.218728 0.137955
H25   H     H_    0.675280 0.004914 0.195826 0.146210
H26   H     H_    0.324613 0.000400 0.804470 0.147337
H27   H     H_    0.175280 0.504976 0.195826 0.146157
H28   H     H_    0.824613 0.500323 0.804472 0.147365
H29   H     H_    0.592221 0.027115 0.900128 0.141375
H30   H     H_    0.407035 0.007848 0.100401 0.137393
H31   H     H_    0.092205 0.527252 0.900135 0.141271
H32   H     H_    0.907028 0.507798 0.100400 0.137546
C113  C     C_3   0.353103 0.045447 0.264695 -0.935165
H33   H     H_    0.379068 0.009164 0.304850 0.248927
H34   H     H_    0.314190 0.018493 0.230514 0.239928
H35   H     H_    0.378077 0.065931 0.214308 0.241022
C114  C     C_3   0.640001 0.927890 0.740825 -0.899253
H36   H     H_    0.596401 0.914442 0.757903 0.254336
H37   H     H_    0.669342 0.932155 0.805821 0.238779
H38   H     H_    0.638318 0.975687 0.710073 0.230902
C115  C     C_3   0.601039 0.129898 0.751623 -0.876711
H39   H     H_    0.602488 0.077410 0.753988 0.230734
H40   H     H_    0.616908 0.145568 0.821610 0.237613
H41   H     H_    0.555360 0.146650 0.733728 0.257395
C116  C     C_3   0.414817 0.856248 0.254634 -0.860494
H42   H     H_    0.462548 0.853740 0.279212 0.254966
H43   H     H_    0.409118 0.828811 0.190576 0.235583
H44   H     H_    0.401753 0.905964 0.238795 0.237182
C117  C     C_3   0.853348 0.545808 0.264326 -0.935105
H45   H     H_    0.879099 0.509356 0.304468 0.248813
H46   H     H_    0.814468 0.519020 0.229696 0.239826
H47   H     H_    0.878565 0.566394 0.214311 0.241210
C118  C     C_3   0.140526 0.428831 0.740270 -0.899475
H48   H     H_    0.097076 0.415386 0.757915 0.254104
H49   H     H_    0.170110 0.433522 0.804982 0.238810
H50   H     H_    0.138562 0.476453 0.708969 0.231034
C119  C     C_3   0.100647 0.630422 0.751407 -0.876326
H51   H     H_    0.102143 0.577948 0.754198 0.230942
H52   H     H_    0.116286 0.646387 0.821331 0.237627
H53   H     H_    0.054974 0.647089 0.733071 0.257342
C120  C     C_3   0.914695 0.356409 0.254514 -0.860548
H54   H     H_    0.962425 0.353824 0.279068 0.254961
H55   H     H_    0.908956 0.328997 0.190433 0.235604
H56   H     H_    0.901690 0.406150 0.238732 0.237079
C121  C     C_3   0.746645 0.850485 0.789294 -0.939082
H57   H     H_    0.759763 0.901514 0.797180 0.247325
H58   H     H_    0.723206 0.836043 0.845283 0.247407
H59   H     H_    0.788862 0.825276 0.795180 0.235431
C122  C     C_3   0.255219 0.130327 0.193792 -0.943266
H60   H     H_    0.279660 0.101778 0.149774 0.254449
H61   H     H_    0.210093 0.110148 0.188310 0.241344
H62   H     H_    0.253613 0.178926 0.165503 0.236073
C123  C     C_3   0.320854 0.759277 0.204528 -0.951754
H63   H     H_    0.314775 0.802493 0.162648 0.251517
H64   H     H_    0.352913 0.727232 0.179272 0.244986
H65   H     H_    0.276821 0.736258 0.194283 0.238155
C124  C     C_3   0.692802 0.229413 0.799964 -0.948323
H66   H     H_    0.649030 0.244852 0.813460 0.253110
H67   H     H_    0.713744 0.199242 0.855468 0.244148
H68   H     H_    0.717915 0.274678 0.799215 0.237273
C125  C     C_3   0.247352 0.351688 0.788760 -0.938931
H69   H     H_    0.260447 0.402742 0.796078 0.247305
H70   H     H_    0.224082 0.337533 0.845062 0.247438
H71   H     H_    0.289574 0.326491 0.794647 0.235387
C126  C     C_3   0.755709 0.630985 0.193330 -0.943299
H72   H     H_    0.780247 0.602543 0.149327 0.254466
H73   H     H_    0.710544 0.610860 0.187455 0.241338
H74   H     H_    0.754242 0.679669 0.165333 0.236066
C127  C     C_3   0.820483 0.259723 0.204286 -0.951832
H75   H     H_    0.814562 0.302990 0.162492 0.251553
H76   H     H_    0.852376 0.227524 0.178909 0.244957
H77   H     H_    0.776351 0.236930 0.194086 0.238213
C128  C     C_3   0.192422 0.729886 0.799724 -0.948247
H78   H     H_    0.148621 0.745638 0.812656 0.253051
H79   H     H_    0.212951 0.699698 0.855493 0.244210
H80   H     H_    0.217801 0.774983 0.799151 0.237211
C129  C     C_3   0.297581 0.135619 0.643052 -0.920610
H81   H     H_    0.292954 0.097408 0.591027 0.255494
H82   H     H_    0.344211 0.142153 0.673506 0.250256
H83   H     H_    0.272407 0.119130 0.696083 0.239785
C130  C     C_3   0.681250 0.821109 0.342358 -0.948848
H84   H     H_    0.632990 0.825428 0.325565 0.241313
H85   H     H_    0.702926 0.859482 0.386946 0.255617
H86   H     H_    0.699511 0.826052 0.278364 0.245555
C131  C     C_3   0.741542 0.090706 0.403483 -0.973104
H87   H     H_    0.733372 0.066979 0.465908 0.258625
H88   H     H_    0.702004 0.090601 0.351577 0.257595
H89   H     H_    0.776212 0.062812 0.377352 0.248739
C132  C     C_3   0.384149 0.768819 0.665345 -0.919881
H90   H     H_    0.415517 0.766085 0.616287 0.254767
H91   H     H_    0.383755 0.817869 0.693775 0.240797
H92   H     H_    0.400972 0.736310 0.720673 0.244805
C133  C     C_3   0.796811 0.634844 0.642469 -0.921199
H93   H     H_    0.792195 0.596816 0.590173 0.255422
H94   H     H_    0.843408 0.641166 0.673205 0.250451
H95   H     H_    0.771452 0.618240 0.695215 0.239792
C134  C     C_3   0.180802 0.320729 0.342290 -0.948241
H96   H     H_    0.132520 0.325048 0.325977 0.241246
H97   H     H_    0.202654 0.359218 0.386467 0.255509
H98   H     H_    0.198733 0.325471 0.277994 0.245426
C135  C     C_3   0.241856 0.590461 0.403992 -0.973271
H99   H     H_    0.233516 0.566824 0.466396 0.258635
H100  H     H_    0.202429 0.590288 0.351876 0.257502
H101  H     H_    0.276617 0.562529 0.378174 0.248845
C136  C     C_3   0.884268 0.268553 0.665072 -0.919922
H102  H     H_    0.915575 0.265847 0.615920 0.254732
H103  H     H_    0.883954 0.317570 0.693644 0.240812
H104  H     H_    0.901110 0.235957 0.720283 0.244817
C137  C     C_3   0.346761 0.980887 0.639366 -0.846856
H105  H     H_    0.353155 0.007658 0.579375 0.274270
H106  H     H_    0.347860 0.929278 0.626509 0.229222
H107  H     H_    0.301564 0.991133 0.652176 0.201151
C138  C     C_3   0.650289 0.977822 0.358571 -0.885168
H108  H     H_    0.648955 0.009499 0.417041 0.275115
H109  H     H_    0.638000 0.929708 0.374460 0.267851
H110  H     H_    0.695917 0.975471 0.343620 0.216301
C139  C     C_3   0.846785 0.480783 0.639379 -0.846819
H111  H     H_    0.853136 0.507609 0.579410 0.274279
H112  H     H_    0.847976 0.429184 0.626498 0.229351
H113  H     H_    0.801568 0.490903 0.652209 0.201275
C140  C     C_3   0.150289 0.477784 0.358547 -0.885001
H114  H     H_    0.148980 0.509454 0.417037 0.275029
H115  H     H_    0.137985 0.429662 0.374404 0.267886
H116  H     H_    0.195913 0.475411 0.343578 0.216160

loop_
_geom_bond_atom_site_label_1
_geom_bond_atom_site_label_2
_geom_bond_distance
_ccdc_geom_bond_type
C33   H10   1.076423 S    
O16   Zn4   1.996204 S    
C68   C76   1.395337 A    
C47   C63   1.422744 A    
C136  H102  1.109377 S    
C18   C122  1.520939 S    
C17   C49   1.421805 A    
C35   H12   1.068528 S    
O2    C2    1.302441 A    
C12   C28   1.429376 A    
C113  H33   1.104102 S    
C54   C74   1.394740 A    
C46   C62   1.417710 A    
Zn2   N1    2.053888 S    
C53   C73   1.399765 A    
C93   C97   1.414438 A    
C27   C116  1.521103 S    
C23   C31   1.419287 A    
Zn1   N2    2.053889 S    
C66   C130  1.496956 S    
C21   C53   1.421890 A    
C18   C50   1.420031 A    
O4    Zn1   2.002043 S    
C121  H58   1.110402 S    
C55   C75   1.396846 A    
C5    C16   1.499180 S    
C105  H29   1.075897 S    
C124  H66   1.110209 S    
C98   C110  1.388086 A    
C120  H56   1.109155 S    
C95   C99   1.414428 A    
C6    C15   1.484763 S    
C10   C34   1.387103 A    
O11   C3    1.311108 A    
C133  H93   1.106148 S    
C128  H78   1.110171 S    
C62   C69   1.421523 A    
C69   C133  1.508463 S    
C22   C54   1.419969 A    
C90   H21   1.070164 S    
C65   C129  1.508554 S    
C122  H62   1.110079 S    
C19   C27   1.419368 A    
C91   H24   1.069954 S    
O12   Zn2   1.996204 S    
C135  H99   1.108692 S    
C60   C67   1.417922 A    
C91   C95   1.415622 A    
C60   C63   1.409832 A    
C59   C64   1.409858 A    
C117  H46   1.110205 S    
C11   C35   1.389951 A    
C29   C118  1.519028 S    
O11   Zn1   1.996202 S    
C13   C29   1.419511 A    
C103  C104  1.431054 A    
C46   C54   1.412170 A    
C130  H85   1.106673 S    
C83   C99   1.384934 A    
C139  H113  1.110928 S    
C45   C53   1.418068 A    
C42   C50   1.412222 A    
C15   C39   1.389887 A    
C131  H87   1.108702 S    
C121  H57   1.110112 S    
C81   C97   1.384898 A    
C120  H55   1.105800 S    
C109  H17   1.084648 S    
C59   C68   1.421623 A    
C58   C65   1.421632 A    
C31   C120  1.521085 S    
C127  H76   1.110087 S    
C68   C132  1.511641 S    
C106  C110  1.376672 A    
C65   C73   1.390114 A    
C38   C46   1.390873 A    
O6    Zn4   1.974282 S    
C112  H20   1.084908 S    
C41   C57   1.430448 A    
C39   H16   1.068507 S    
C119  H52   1.105780 S    
C35   C43   1.388853 A    
C20   C124  1.519557 S    
C38   H13   1.082154 S    
N3    C91   1.350754 A    
C36   C44   1.401354 A    
C86   C137  1.500102 S    
O3    C3    1.309414 A    
C139  H112  1.099555 S    
C64   C71   1.417917 A    
C111  H19   1.084647 S    
O14   Zn3   1.958647 S    
C22   C126  1.520946 S    
C66   C74   1.392166 A    
C129  H81   1.106077 S    
C100  C112  1.388090 A    
C36   H11   1.078698 S    
C72   C136  1.511645 S    
C16   C32   1.429369 A    
C140  H115  1.085855 S    
C96   C100  1.413770 A    
C84   C88   1.386681 A    
C39   C47   1.388798 A    
O15   C7    1.311198 A    
C24   C32   1.421847 A    
C95   C103  1.417465 A    
C106  H30   1.071939 S    
O16   C8    1.315973 A    
O5    Zn3   1.974280 S    
C138  H108  1.099719 S    
O1    Zn1   1.974280 S    
C44   C60   1.424796 A    
C102  C105  1.409937 A    
C97   C109  1.390292 A    
C103  C108  1.409254 A    
C33   C41   1.396905 A    
C104  C107  1.409940 A    
C21   C29   1.420482 A    
C28   C115  1.514854 S    
C137  H107  1.110935 S    
C75   H3    1.082818 S    
O9    Zn2   1.958646 S    
C127  H75   1.110166 S    
C4    C9    1.475569 S    
C122  H61   1.110357 S    
C23   C55   1.418019 A    
O15   Zn3   1.996202 S    
C133  H94   1.110315 S    
C92   H23   1.070168 S    
C80   H8    1.082418 S    
C1    C12   1.499104 S    
C48   C64   1.424850 A    
Zn3   N4    2.053889 S    
C82   C98   1.382044 A    
C123  H63   1.110164 S    
C130  H86   1.112532 S    
C116  H43   1.105774 S    
C73   H1    1.081859 S    
C136  H103  1.110541 S    
C117  H47   1.106918 S    
C43   C59   1.422769 A    
C34   C42   1.390932 A    
C115  H40   1.105850 S    
C125  H69   1.110091 S    
C116  H42   1.109739 S    
C51   C79   1.396912 A    
C118  H49   1.104476 S    
O7    Zn4   2.002041 S    
C34   H9    1.082139 S    
C69   C77   1.390019 A    
C131  H88   1.108202 S    
C137  H105  1.097282 S    
C89   H22   1.070066 S    
C82   C86   1.386676 A    
C118  H50   1.109778 S    
C107  C111  1.379855 A    
C24   C128  1.519621 S    
C81   C85   1.388238 A    
C126  H72   1.106356 S    
N2    C90   1.352103 A    
C25   C114  1.519031 S    
C94   C102  1.418112 A    
C83   H27   1.085334 S    
C83   C87   1.388271 A    
C128  H79   1.110210 S    
C92   C96   1.414816 A    
C115  H41   1.110164 S    
C81   H25   1.085336 S    
O12   C4    1.316190 A    
C136  H104  1.111059 S    
C139  H111  1.097368 S    
O13   C5    1.325846 A    
O13   Zn4   1.958646 S    
C48   C56   1.415153 A    
C87   C140  1.484533 S    
C24   C56   1.418506 A    
C129  H82   1.110312 S    
C40   C48   1.401400 A    
C114  H37   1.104567 S    
C107  H31   1.075915 S    
C101  C106  1.409239 A    
C22   C30   1.417070 A    
C89   C93   1.415643 A    
C61   C70   1.429738 A    
C140  H114  1.099785 S    
O10   Zn1   1.958647 S    
O9    C1    1.325826 A    
C70   C134  1.497141 S    
C43   C51   1.414496 A    
C57   C66   1.429768 A    
C115  H39   1.104091 S    
C20   C52   1.418453 A    
C132  H91   1.110531 S    
C138  H110  1.110039 S    
C15   C31   1.430937 A    
C108  H32   1.071965 S    
C121  H59   1.106133 S    
C85   C138  1.484471 S    
C140  H116  1.110046 S    
C47   C55   1.414527 A    
C19   C51   1.418080 A    
C17   C25   1.420439 A    
C127  H77   1.108518 S    
C49   C77   1.399727 A    
N1    C89   1.350777 A    
C72   C80   1.395337 A    
C134  H97   1.106605 S    
C52   C80   1.405218 A    
C124  H68   1.108556 S    
C41   C49   1.418115 A    
C118  H48   1.108882 S    
C20   C28   1.421807 A    
C76   H4    1.082380 S    
C122  H60   1.106361 S    
C67   C75   1.391672 A    
C123  H64   1.110090 S    
C133  H95   1.111273 S    
C125  H71   1.106105 S    
C116  H44   1.109185 S    
C19   C123  1.519909 S    
N4    C92   1.352132 A    
C93   C101  1.417450 A    
C42   C58   1.417837 A    
C84   C100  1.382045 A    
O3    Zn2   2.002041 S    
C32   C119  1.514923 S    
C108  C112  1.376672 A    
C37   C45   1.396901 A    
C16   C40   1.399486 A    
Zn4   N3    2.053888 S    
C78   H6    1.081775 S    
O2    Zn2   1.974282 S    
C94   C98   1.413772 A    
C14   C30   1.419771 A    
C125  H70   1.110346 S    
N4    C88   1.376159 A    
C114  H38   1.109701 S    
C37   H14   1.076390 S    
C2    C11   1.484889 S    
C13   C37   1.393383 A    
C126  H74   1.110081 S    
C79   H7    1.082793 S    
O1    C1    1.313577 A    
C8    C13   1.475297 S    
C82   H26   1.085626 S    
C26   C113  1.508661 S    
C10   C26   1.419732 A    
C126  H73   1.110357 S    
C131  H89   1.111494 S    
C71   C79   1.391743 A    
C135  H101  1.111448 S    
C134  H98   1.112499 S    
C138  H109  1.085745 S    
C124  H67   1.110321 S    
C77   H5    1.081892 S    
C96   C104  1.418132 A    
C137  H106  1.099585 S    
C101  C102  1.431046 A    
C56   C76   1.405257 A    
C119  H53   1.110153 S    
C30   C117  1.508563 S    
C58   C61   1.417125 A    
O14   C6    1.329853 A    
C117  H45   1.104197 S    
C134  H96   1.108924 S    
C9    C33   1.393498 A    
C57   C62   1.417049 A    
O10   C2    1.329817 A    
O7    C7    1.309389 A    
C99   C111  1.390306 A    
C71   C135  1.492441 S    
O8    C8    1.310505 A    
C12   C36   1.399454 A    
C44   C52   1.415117 A    
C120  H54   1.109743 S    
C90   C94   1.414791 A    
C129  H83   1.111258 S    
C130  H84   1.108968 S    
C88   C139  1.500009 S    
C18   C26   1.417086 A    
C67   C131  1.492365 S    
C114  H36   1.108942 S    
C128  H80   1.108452 S    
O4    C4    1.310457 A    
C23   C127  1.519906 S    
O5    C5    1.313599 A    
C74   H2    1.081801 S    
C63   C72   1.421684 A    
C119  H51   1.104130 S    
C110  H18   1.084908 S    
C132  H92   1.111052 S    
C9    C25   1.419711 A    
C14   C38   1.387098 A    
O8    Zn3   2.002043 S    
C17   C121  1.519884 S    
C45   C61   1.430375 A    
C40   H15   1.078685 S    
C11   C27   1.430922 A    
C113  H35   1.106885 S    
N2    C86   1.376189 A    
C135  H100  1.108160 S    
C132  H90   1.109374 S    
C3    C10   1.466765 S    
N1    C85   1.368046 A    
C123  H65   1.108483 S    
C70   C78   1.392144 A    
C7    C14   1.466885 S    
C105  C109  1.379823 A    
C50   C78   1.394786 A    
N3    C87   1.368065 A    
C21   C125  1.519839 S    
C84   H28   1.085625 S    
C113  H34   1.110214 S    
O6    C6    1.302344 A    
