data_mof_unit_32603.cif
_audit_creation_date              2013-03-05T16:15:17-0500
_audit_creation_method            fapswitch 2.2
_symmetry_space_group_name_H-M    P1
_symmetry_Int_Tables_number       1
_space_group_crystal_system       triclinic
_cell_length_a                    27.728107
_cell_length_b                    10.606459
_cell_length_c                    9.482356
_cell_angle_alpha                 89.371198
_cell_angle_beta                  91.068443
_cell_angle_gamma                 89.450908
_cell_volume                      2787.94633977

loop_
_atom_site_label
_atom_site_type_symbol
_atom_site_description
_atom_site_fract_x
_atom_site_fract_y
_atom_site_fract_z
_atom_type_partial_charge
O1    O     O_R   0.500020 0.316850 0.620870 -0.573600
O2    O     O_R   0.499980 0.683150 0.379130 -0.567418
O3    O     O_R   0.500000 0.316860 0.379090 -0.574855
O4    O     O_R   0.500000 0.683140 0.620910 -0.579482
C1    C     C_R   0.499703 0.259794 0.500510 0.837366
C2    C     C_R   0.499498 0.740013 0.499239 0.820421
O5    O     O_R   0.430270 0.500020 0.620880 -0.568306
O6    O     O_R   0.569730 0.499980 0.379120 -0.567759
O7    O     O_R   0.430250 0.500030 0.379090 -0.557531
O8    O     O_R   0.569750 0.499970 0.620910 -0.563125
C3    C     C_R   0.407787 0.499822 0.498832 0.841565
C4    C     C_R   0.592256 0.502864 0.501022 0.830926
Cu1   Cu    Cu3+1 0.500010 0.499990 0.643150 0.970270
Cu2   Cu    Cu3+1 0.499990 0.500010 0.356850 0.973573
C5    C     C_R   0.177016 0.394697 0.469788 0.559262
C6    C     C_R   0.822172 0.636547 0.489234 0.559970
O9    O     O_2   0.201506 0.291901 0.427391 -0.546547
O10   O     O_2   0.797975 0.739547 0.532345 -0.547436
N1    N     N_R   0.201660 0.503778 0.495566 -0.442916
N2    N     N_R   0.797611 0.526359 0.469324 -0.443325
C7    C     C_R   0.177686 0.613217 0.526303 0.547716
C8    C     C_R   0.821315 0.417522 0.434804 0.545544
C9    C     C_R   0.278409 0.588353 0.409131 -0.129229
C10   C     C_R   0.724873 0.439537 0.577865 -0.130699
C11   C     C_R   0.329224 0.592334 0.411948 0.193243
C12   C     C_R   0.674327 0.430358 0.586993 0.191456
C13   C     C_R   0.329843 0.412668 0.577193 0.186818
C14   C     C_R   0.666743 0.603553 0.414432 0.188310
C15   C     C_R   0.279700 0.415590 0.578183 -0.131035
C16   C     C_R   0.716677 0.607029 0.403724 -0.132881
C17   C     C_R   0.253655 0.502413 0.493965 0.238169
C18   C     C_R   0.745983 0.524663 0.483981 0.239969
C19   C     C_R   0.101229 0.506405 0.497113 -0.081356
C20   C     C_R   0.897717 0.525802 0.454022 -0.081659
C21   C     C_R   0.126319 0.391008 0.482779 -0.135035
C22   C     C_R   0.872631 0.640946 0.470258 -0.135914
C23   C     C_R   0.099995 0.277047 0.488577 0.226778
C24   C     C_R   0.898766 0.755093 0.461665 0.227091
C25   C     C_R   0.127188 0.617646 0.522558 -0.001287
C26   C     C_R   0.871734 0.414218 0.431127 -0.001488
C27   C     C_R   0.354929 0.501878 0.496067 -0.171983
C28   C     C_R   0.645097 0.512248 0.501739 -0.170155
H1    H     H_    0.260766 0.348647 0.643492 0.185895
H2    H     H_    0.732849 0.674658 0.332944 0.186178
C29   C     C_R   0.973352 0.404184 0.451743 0.095093
C30   C     C_R   0.025606 0.628618 0.494825 0.095309
C31   C     C_R   0.974892 0.635191 0.471746 -0.075032
C32   C     C_R   0.024032 0.397455 0.475044 -0.075481
C33   C     C_R   0.948807 0.521800 0.460455 0.040861
C34   C     C_R   0.050157 0.510807 0.487285 0.040960
C35   C     C_R   0.946653 0.298691 0.408041 -0.132356
C36   C     C_R   0.052202 0.734301 0.538524 -0.132803
C37   C     C_R   0.896607 0.302684 0.401079 -0.150608
C38   C     C_R   0.102189 0.729729 0.549276 -0.150938
O11   O     O_2   0.796143 0.312412 0.405324 -0.551590
O12   O     O_2   0.202640 0.717608 0.560227 -0.551036
C39   C     C_R   0.049479 0.281937 0.497895 0.227982
C40   C     C_R   0.949235 0.750498 0.449647 0.227796
H3    H     H_    0.748626 0.378780 0.640243 0.165191
H4    H     H_    0.257317 0.653197 0.343851 0.167645
H5    H     H_    0.877544 0.217830 0.372321 0.195970
H6    H     H_    0.121110 0.814473 0.579233 0.196365
H7    H     H_    0.964136 0.212811 0.375171 0.212212
H8    H     H_    0.034653 0.820592 0.569742 0.212615
C41   C     C_3   0.500374 0.038783 0.635040 -0.208266
C42   C     C_3   0.497900 0.959930 0.363477 -0.192045
C43   C     C_3   0.538372 0.956572 0.563002 0.321360
C44   C     C_3   0.459865 0.042628 0.435097 0.314641
H9    H     H_    0.502154 0.072056 0.745476 0.156514
H10   H     H_    0.496556 0.925316 0.253545 0.157255
C45   C     C_3   0.498832 0.876437 0.497517 -0.080533
C46   C     C_3   0.499436 0.123018 0.501112 -0.058835
C47   C     C_3   0.459847 0.957590 0.567607 -0.255837
C48   C     C_3   0.538479 0.041488 0.430653 -0.199780
H11   H     H_    0.427451 0.920741 0.620750 0.161226
H12   H     H_    0.570770 0.078026 0.376747 0.158008
C49   C     C_3   0.521792 0.599733 0.051386 -0.193898
C50   C     C_3   0.478112 0.400363 0.948697 -0.201755
C51   C     C_3   0.478374 0.598055 0.948085 0.337612
C52   C     C_3   0.521604 0.402065 0.051904 0.332225
H13   H     H_    0.540369 0.681690 0.098837 0.179266
H14   H     H_    0.459432 0.318489 0.901336 0.176070
N3    N     N_3   0.500040 0.499970 0.858290 -0.221961
N4    N     N_3   0.499960 0.500030 0.141710 -0.222533
C53   C     C_3   0.543141 0.499725 0.954320 0.285477
C54   C     C_3   0.456811 0.500522 0.045831 0.282253
Br1   Br    Br    0.362191 0.279097 0.681507 -0.559068
Br2   Br    Br    0.630016 0.732379 0.314953 -0.555985
N5    N     N_2   0.455067 0.707610 0.883837 -0.393588
H15   H     H_    0.425557 0.687100 0.820920 0.263520
C55   C     C_3   0.448463 0.814137 0.975358 -0.749738
H16   H     H_    0.427893 0.889713 0.918065 0.234587
H17   H     H_    0.484066 0.852614 0.007236 0.230531
H18   H     H_    0.428409 0.785863 0.070744 0.245238
N6    N     N_2   0.545042 0.292586 0.115837 -0.403287
H19   H     H_    0.574039 0.313508 0.180588 0.265365
C56   C     C_3   0.553100 0.188059 0.022546 -0.751662
H20   H     H_    0.573447 0.112074 0.079818 0.238808
H21   H     H_    0.574011 0.218970 0.929851 0.241469
H22   H     H_    0.518019 0.149125 0.986548 0.229474
N7    N     N_2   0.591477 0.507565 0.899985 -0.376025
H23   H     H_    0.596584 0.591717 0.847122 0.269874
C57   C     C_3   0.630158 0.481027 0.000558 -0.655269
H24   H     H_    0.665073 0.509967 0.955344 0.238695
H25   H     H_    0.632456 0.378547 0.023456 0.236691
H26   H     H_    0.624652 0.533386 0.099659 0.250949
N8    N     N_2   0.408583 0.493994 0.101314 -0.377265
H27   H     H_    0.402801 0.409059 0.151693 0.269442
C58   C     C_3   0.369580 0.527289 0.004371 -0.654864
H28   H     H_    0.334652 0.499494 0.050435 0.238107
H29   H     H_    0.373840 0.478407 0.902408 0.250940
H30   H     H_    0.368266 0.630683 0.986995 0.239193
N9    N     N_2   0.123405 0.157476 0.506211 -0.385795
H31   H     H_    0.154635 0.154970 0.566804 0.291766
C59   C     C_3   0.124127 0.080661 0.381111 -0.515443
H32   H     H_    0.145244 0.127387 0.297303 0.240329
H33   H     H_    0.086793 0.064418 0.341112 0.253519
H34   H     H_    0.141060 0.987769 0.406927 0.221200
N10   N     N_2   0.875065 0.874342 0.444776 -0.386093
H35   H     H_    0.843209 0.875884 0.387069 0.291428
C60   C     C_3   0.875431 0.952092 0.569209 -0.517071
H36   H     H_    0.855705 0.905150 0.655744 0.239587
H37   H     H_    0.857625 0.044047 0.544390 0.222109
H38   H     H_    0.913082 0.970216 0.604976 0.255264
N11   N     N_2   0.652389 0.339273 0.677898 -0.394213
H39   H     H_    0.622494 0.294895 0.636341 0.243743
C61   C     C_3   0.682148 0.260317 0.770593 -0.674974
H40   H     H_    0.658874 0.205645 0.842227 0.222080
H41   H     H_    0.706074 0.319055 0.837605 0.235831
H42   H     H_    0.703805 0.193294 0.707880 0.236642
N12   N     N_2   0.355026 0.686481 0.334456 -0.395572
H43   H     H_    0.386228 0.717876 0.382817 0.241367
C62   C     C_3   0.328943 0.784512 0.256706 -0.671247
H44   H     H_    0.354924 0.847333 0.203500 0.219502
H45   H     H_    0.307205 0.842266 0.329626 0.240576
H46   H     H_    0.305504 0.742490 0.173814 0.236327
Br3   Br    Br    0.019832 0.139614 0.591197 -0.505832
Br4   Br    Br    0.978363 0.892585 0.354609 -0.504329
N13   N     N_2   0.580806 0.902552 0.632198 -0.396630
H47   H     H_    0.572667 0.837493 0.709531 0.258889
C63   C     C_3   0.615980 0.993220 0.678584 -0.657910
H48   H     H_    0.647817 0.943067 0.725654 0.245742
H49   H     H_    0.600142 0.055369 0.759320 0.204462
H50   H     H_    0.628234 0.050945 0.587900 0.242401
N14   N     N_2   0.415995 0.092218 0.369094 -0.402403
H51   H     H_    0.386146 0.038353 0.389855 0.266808
C64   C     C_3   0.419299 0.126641 0.221653 -0.679522
H52   H     H_    0.385894 0.177613 0.187286 0.236834
H53   H     H_    0.423111 0.040758 0.156717 0.209449
H54   H     H_    0.450487 0.189099 0.203865 0.264932

loop_
_geom_bond_atom_site_label_1
_geom_bond_atom_site_label_2
_geom_bond_distance
_ccdc_geom_bond_type
C42   C44   1.537819 S    
N7    H23   1.031131 S    
C13   C15   1.390614 A    
N8    C58   1.444916 S    
N6    H19   1.029916 S    
Cu2   N4    2.040017 S    
C52   N4    1.480379 S    
N1    C17   1.442019 S    
C61   H41   1.110370 S    
C56   H20   1.110414 S    
C32   C39   1.420535 A    
C31   C33   1.413378 A    
O5    C3    1.304291 A    
C19   C25   1.408717 A    
C48   H12   1.110185 S    
O1    C1    1.297586 A    
C64   H53   1.110389 S    
N4    C54   1.489051 S    
C1    C46   1.450749 S    
C58   H29   1.109795 S    
C50   C52   1.539199 S    
C25   C38   1.398317 A    
C23   N9    1.425908 S    
C29   C35   1.409377 A    
C59   H32   1.110990 S    
C42   C48   1.556941 S    
C30   C36   1.409479 A    
C41   C47   1.554700 S    
C14   C28   1.412632 A    
O4    Cu1   1.951681 S    
C50   H14   1.110218 S    
C60   H38   1.110841 S    
C4    C28   1.469379 S    
C64   H52   1.109817 S    
C56   H21   1.110225 S    
C24   C40   1.406585 A    
C37   H5    1.082999 S    
C50   N3    1.494192 S    
C54   N8    1.448124 S    
C59   H33   1.111472 S    
C14   Br2   1.924353 S    
C62   H46   1.110423 S    
N8    H27   1.030360 S    
C49   H13   1.109929 S    
N5    C55   1.444566 S    
C43   N13   1.446817 S    
C43   C45   1.521195 S    
C6    N2    1.371352 A    
C40   Br4   1.938102 S    
C49   C51   1.538183 S    
C49   C53   1.533763 S    
N7    C57   1.445413 S    
Cu1   Cu2   2.714785 S    
C15   H1    1.083013 S    
C47   H11   1.110351 S    
C16   H2    1.082997 S    
O2    C2    1.294821 A    
C5    C21   1.414274 A    
N14   C64   1.445885 S    
C36   C38   1.388242 A    
N14   H51   1.030934 S    
N10   C60   1.446864 S    
C9    H4    1.080604 S    
C60   H37   1.109859 S    
C64   H54   1.108661 S    
C35   H7    1.079472 S    
C46   C48   1.545269 S    
C36   H8    1.079276 S    
C58   H30   1.107324 S    
C11   C27   1.419031 A    
C55   H16   1.110462 S    
C45   C47   1.540348 S    
C38   H6    1.083014 S    
C49   N4    1.493333 S    
O3    C1    1.295059 A    
C44   C47   1.538664 S    
C44   C46   1.525379 S    
C35   C37   1.388252 A    
C12   N11   1.434903 S    
C9    C17   1.401994 A    
C5    N1    1.371283 A    
O7    Cu2   1.949127 S    
C10   C18   1.400825 A    
C52   C53   1.515658 S    
C55   H17   1.109876 S    
C62   H44   1.110349 S    
C13   C27   1.409794 A    
C42   C45   1.540780 S    
C7    C25   1.400335 A    
C29   C33   1.419264 A    
O6    C4    1.304396 A    
C59   H34   1.110256 S    
C8    C26   1.399223 A    
C39   Br3   1.938778 S    
C57   H25   1.107089 S    
C43   C48   1.536740 S    
C52   N6    1.446934 S    
C13   Br1   1.924013 S    
O7    C3    1.305188 A    
C60   H36   1.110574 S    
O3    Cu2   1.951680 S    
O8    C4    1.307213 A    
C24   N10   1.425835 S    
O4    C2    1.295808 A    
N3    C53   1.488882 S    
N2    C8    1.368755 A    
C26   C37   1.398334 A    
N11   H39   1.031180 S    
C20   C26   1.408190 A    
C63   H50   1.110434 S    
O1    Cu1   1.956225 S    
C61   H40   1.108615 S    
C11   N12   1.437404 S    
C56   H22   1.109783 S    
C53   N7    1.447634 S    
C12   C28   1.418284 A    
N11   C61   1.448556 S    
N9    H31   1.030227 S    
N2    C18   1.441122 S    
C29   C32   1.419463 A    
C5    O9    1.348005 S    
Cu1   N3    2.040017 S    
C30   C31   1.420042 A    
C20   C33   1.417036 A    
O6    Cu2   1.941332 S    
C21   C23   1.419070 A    
C10   C12   1.410040 A    
C2    C45   1.446820 S    
N12   C62   1.447965 S    
O8    Cu1   1.949127 S    
C55   H18   1.110513 S    
C7    O12   1.349948 S    
N13   H47   1.030959 S    
N6    C56   1.444222 S    
C8    O11   1.350061 S    
C41   C46   1.544377 S    
C30   C34   1.420346 A    
C41   C43   1.536011 S    
C63   H49   1.109740 S    
C19   C34   1.417732 A    
C61   H42   1.110848 S    
C14   C16   1.390992 A    
C15   C17   1.398896 A    
C58   H28   1.110897 S    
C6    C22   1.415121 A    
C31   C40   1.420520 A    
C16   C18   1.396939 A    
N13   C63   1.442483 S    
C50   C54   1.534769 S    
C42   H10   1.109066 S    
C10   H3    1.080688 S    
C41   H9    1.109108 S    
C32   C34   1.414309 A    
C19   C21   1.411174 A    
C3    C27   1.465336 S    
C57   H26   1.109033 S    
C20   C22   1.410989 A    
C9    C11   1.409791 A    
O2    Cu2   1.956223 S    
C51   N5    1.447200 S    
C22   C24   1.419314 A    
C51   N3    1.481471 S    
O5    Cu1   1.941332 S    
C6    O10   1.347869 S    
N10   H35   1.030230 S    
C57   H24   1.110673 S    
C62   H45   1.111050 S    
N9    C59   1.446779 S    
N5    H15   1.029985 S    
C63   H48   1.110228 S    
C51   C54   1.515987 S    
C23   C39   1.405626 A    
C44   N14   1.449213 S    
N12   H43   1.031387 S    
N1    C7    1.368971 A    
