data_mof_unit_29164.cif
_audit_creation_date              2013-03-05T16:33:33-0500
_audit_creation_method            fapswitch 2.2
_symmetry_space_group_name_H-M    P1
_symmetry_Int_Tables_number       1
_space_group_crystal_system       triclinic
_cell_length_a                    14.96196
_cell_length_b                    14.349523
_cell_length_c                    27.387506
_cell_angle_alpha                 91.074069
_cell_angle_beta                  92.914021
_cell_angle_gamma                 90.063814
_cell_volume                      5871.36753478

loop_
_atom_site_label
_atom_site_type_symbol
_atom_site_description
_atom_site_fract_x
_atom_site_fract_y
_atom_site_fract_z
_atom_type_partial_charge
O1    O     O_R   0.369060 0.579480 0.500000 -0.616700
O2    O     O_R   0.630940 0.420520 0.500000 -0.631997
O3    O     O_R   0.630940 0.579480 0.500000 -0.604849
O4    O     O_R   0.369060 0.420520 0.500000 -0.619124
C1    C     C_R   0.326824 0.500243 0.499361 0.955331
C2    C     C_R   0.671489 0.499904 0.500489 0.960900
O5    O     O_R   0.500010 0.579470 0.428760 -0.598732
O6    O     O_R   0.499990 0.420530 0.571240 -0.616836
O7    O     O_R   0.499990 0.579470 0.571240 -0.606851
O8    O     O_R   0.500010 0.420530 0.428760 -0.625432
C3    C     C_R   0.501336 0.499862 0.405895 0.932616
C4    C     C_R   0.502036 0.501368 0.594291 0.939276
Zn1   Zn    Zn3+2 0.500000 0.606140 0.500000 0.936618
Zn2   Zn    Zn3+2 0.500000 0.393860 0.500000 0.916882
C5    C     C_R   0.451606 0.572992 0.179255 0.614745
C6    C     C_R   0.589661 0.569354 0.826399 0.608210
O9    O     O_2   0.375726 0.568370 0.203786 -0.547837
O10   O     O_2   0.665575 0.568972 0.801800 -0.539729
N1    N     N_R   0.533440 0.562253 0.203381 -0.329571
N2    N     N_R   0.508373 0.554633 0.802021 -0.331524
C7    C     C_R   0.610746 0.580685 0.180497 0.550002
C8    C     C_R   0.430385 0.565341 0.825701 0.538609
C9    C     C_R   0.586734 0.586637 0.288973 -0.332969
C10   C     C_R   0.449161 0.588867 0.719486 -0.310600
C11   C     C_R   0.579501 0.569985 0.338781 0.410214
C12   C     C_R   0.445596 0.574611 0.668912 0.434194
C13   C     C_R   0.465483 0.451188 0.317778 -0.026670
C14   C     C_R   0.564078 0.458552 0.678832 -0.036735
C15   C     C_R   0.484613 0.458992 0.268329 0.561665
C16   C     C_R   0.556654 0.463901 0.729857 0.564721
C17   C     C_R   0.536930 0.534225 0.253717 0.081869
C18   C     C_R   0.504066 0.534477 0.750196 0.075801
C19   C     C_R   0.524147 0.608181 0.105148 -0.142966
C20   C     C_R   0.515332 0.601499 0.901112 -0.137155
C21   C     C_R   0.445943 0.588544 0.128996 -0.052602
C22   C     C_R   0.594499 0.585983 0.877020 -0.056797
C23   C     C_R   0.364412 0.579680 0.102215 -0.295225
C24   C     C_R   0.676408 0.583834 0.903810 -0.298846
C25   C     C_R   0.606806 0.611791 0.132063 -0.209693
C26   C     C_R   0.432428 0.597585 0.874423 -0.210191
C27   C     C_R   0.516465 0.503784 0.353398 -0.215229
C28   C     C_R   0.502320 0.507996 0.648056 -0.218208
H1    H     H_    0.306241 0.557075 0.120668 0.193013
H2    H     H_    0.735777 0.564434 0.885183 0.192245
C29   C     C_R   0.437105 0.628616 0.975831 -0.120425
C30   C     C_R   0.601117 0.635653 0.030545 -0.119406
C31   C     C_R   0.601846 0.619218 0.979252 0.026083
C32   C     C_R   0.437180 0.615415 0.027027 0.026275
C33   C     C_R   0.518428 0.617601 0.952086 -0.055868
C34   C     C_R   0.520433 0.621001 0.054221 -0.055776
C35   C     C_R   0.358923 0.650659 0.946801 0.437089
C36   C     C_R   0.677600 0.665117 0.059752 0.434349
C37   C     C_R   0.354877 0.629051 0.896757 0.431714
C38   C     C_R   0.682069 0.648268 0.110027 0.435492
O11   O     O_2   0.351313 0.543520 0.802347 -0.535557
O12   O     O_2   0.690913 0.566329 0.203883 -0.553181
C39   C     C_R   0.358537 0.590669 0.051270 0.493463
C40   C     C_R   0.681688 0.598182 0.954868 0.495131
H3    H     H_    0.408573 0.642730 0.735230 0.184135
H4    H     H_    0.630184 0.641494 0.277584 0.190499
C41   C     C_R   0.094864 0.601128 0.494309 0.499833
C42   C     C_R   0.891290 0.489772 0.445247 0.483498
C43   C     C_R   0.912475 0.547112 0.530230 0.447970
C44   C     C_R   0.083591 0.435399 0.471942 0.477095
C45   C     C_R   0.184232 0.587133 0.509328 0.019320
C46   C     C_R   0.802219 0.469142 0.453290 0.003743
C47   C     C_R   0.820923 0.539295 0.536002 0.004961
C48   C     C_R   0.176600 0.428225 0.474495 0.006195
C49   C     C_R   0.228157 0.503571 0.495337 -0.230725
C50   C     C_R   0.766573 0.500248 0.497340 -0.175842
C51   C     C_R   0.043217 0.522475 0.480028 -0.148301
C52   C     C_R   0.946898 0.523990 0.484477 -0.158903
C53   C     C_R   0.477943 0.101679 0.457842 0.398006
C54   C     C_R   0.571822 0.896020 0.521789 0.385350
C55   C     C_R   0.526586 0.106411 0.542885 0.402628
C56   C     C_R   0.425373 0.894774 0.480733 0.394125
C57   C     C_R   0.468015 0.200110 0.460083 0.108037
C58   C     C_R   0.567495 0.797523 0.524628 0.098557
C59   C     C_R   0.536728 0.204443 0.539331 0.120663
C60   C     C_R   0.432619 0.796384 0.475372 0.103165
N3    N     N_R   0.500000 0.252470 0.500000 -0.132228
N4    N     N_R   0.500000 0.747530 0.500000 -0.140714
C61   C     C_R   0.501122 0.052642 0.500811 -0.151063
C62   C     C_R   0.498563 0.946798 0.501773 -0.144537
C63   C     C_3   0.383418 0.396714 0.329565 -0.829702
H5    H     H_    0.325696 0.419356 0.305581 0.273291
H6    H     H_    0.393962 0.321229 0.322830 0.235297
H7    H     H_    0.363957 0.409622 0.367415 0.215337
C64   C     C_3   0.646235 0.412049 0.660163 -0.852448
H8    H     H_    0.706716 0.443718 0.678971 0.267514
H9    H     H_    0.646219 0.336701 0.668327 0.241352
H10   H     H_    0.653119 0.422332 0.620705 0.222955
C65   C     C_3   0.228057 0.657122 0.544937 -0.782120
H11   H     H_    0.263264 0.618921 0.574816 0.270074
H12   H     H_    0.275323 0.702644 0.526939 0.244746
H13   H     H_    0.178813 0.702891 0.562454 0.253800
C66   C     C_3   0.746555 0.411738 0.415902 -0.803968
H14   H     H_    0.687745 0.451869 0.402411 0.255457
H15   H     H_    0.784251 0.389570 0.383881 0.255736
H16   H     H_    0.723356 0.347057 0.432948 0.236588
C67   C     C_3   0.784626 0.569558 0.584449 -0.835906
H17   H     H_    0.799766 0.644469 0.591600 0.264167
H18   H     H_    0.711619 0.559490 0.586133 0.209918
H19   H     H_    0.816482 0.528434 0.614451 0.237351
C68   C     C_3   0.217756 0.341817 0.453123 -0.822286
H20   H     H_    0.257659 0.303592 0.481469 0.246782
H21   H     H_    0.167962 0.291441 0.436862 0.266327
H22   H     H_    0.257721 0.363758 0.422564 0.220661
O13   O     O_3   0.457361 0.054362 0.414028 -0.589494
C69   C     C_3   0.536779 0.026023 0.391944 0.126106
H23   H     H_    0.518666 0.968089 0.365813 0.165816
H24   H     H_    0.587614 0.997310 0.418531 0.089795
C70   C     C_3   0.576865 0.105853 0.363522 -0.393496
H25   H     H_    0.524597 0.134898 0.337844 0.230303
H26   H     H_    0.601041 0.161869 0.389470 0.215563
C71   C     C_3   0.655545 0.073111 0.334445 -0.965101
H27   H     H_    0.709822 0.046200 0.359482 0.272750
H28   H     H_    0.682217 0.132650 0.314293 0.268354
H29   H     H_    0.633692 0.017823 0.307523 0.263339
O14   O     O_3   0.649122 0.941764 0.538831 -0.583497
C72   C     C_3   0.707154 0.951201 0.500005 0.084599
H30   H     H_    0.695959 0.020615 0.483427 0.142989
H31   H     H_    0.697338 0.896075 0.470838 0.105128
C73   C     C_3   0.804014 0.945449 0.520160 -0.302780
H32   H     H_    0.815916 0.998904 0.549641 0.235876
H33   H     H_    0.816225 0.875662 0.536114 0.223915
C74   C     C_3   0.869431 0.960731 0.480031 -1.006890
H34   H     H_    0.861741 0.904673 0.451598 0.266721
H35   H     H_    0.939096 0.959702 0.496054 0.271711
H36   H     H_    0.857261 0.029156 0.462645 0.272107
O15   O     O_3   0.551242 0.063723 0.586579 -0.587048
C75   C     C_3   0.474596 0.043889 0.612868 0.105496
H37   H     H_    0.493564 0.988608 0.639277 0.174036
H38   H     H_    0.418493 0.014838 0.589148 0.101770
C76   C     C_3   0.444046 0.130009 0.641632 -0.390572
H39   H     H_    0.502010 0.160003 0.663571 0.228421
H40   H     H_    0.417483 0.183144 0.615769 0.218274
C77   C     C_3   0.370733 0.106364 0.676044 -0.963280
H41   H     H_    0.312027 0.075528 0.655212 0.270650
H42   H     H_    0.348926 0.170970 0.694912 0.269372
H43   H     H_    0.396295 0.056862 0.704095 0.268986
O16   O     O_3   0.350651 0.938077 0.459092 -0.586447
C78   C     C_3   0.296937 0.980091 0.494547 0.123599
H44   H     H_    0.244848 0.021544 0.474445 0.172472
H45   H     H_    0.334789 0.030659 0.518611 0.108516
C79   C     C_3   0.249663 0.908024 0.525048 -0.422290
H46   H     H_    0.211203 0.858812 0.500393 0.241922
H47   H     H_    0.300038 0.868244 0.547307 0.203163
C80   C     C_3   0.185254 0.954716 0.559279 -0.931640
H48   H     H_    0.221609 0.005433 0.584151 0.255430
H49   H     H_    0.154096 0.900989 0.581663 0.280158
H50   H     H_    0.131482 0.991512 0.537875 0.261783
C81   C     C_3   0.423587 0.245623 0.417179 -0.788979
H51   H     H_    0.389039 0.307484 0.430105 0.267074
H52   H     H_    0.474327 0.264122 0.390960 0.238663
H53   H     H_    0.371688 0.200130 0.398629 0.245197
C82   C     C_3   0.641825 0.749512 0.553003 -0.757366
H54   H     H_    0.695408 0.729997 0.528225 0.240600
H55   H     H_    0.671831 0.795540 0.582497 0.234585
H56   H     H_    0.616709 0.688678 0.571870 0.256031
C83   C     C_3   0.592524 0.253027 0.578629 -0.769255
H57   H     H_    0.631093 0.309609 0.563108 0.260509
H58   H     H_    0.548883 0.278183 0.607408 0.240000
H59   H     H_    0.643302 0.205713 0.595695 0.239742
C84   C     C_3   0.366706 0.749731 0.439337 -0.731770
H60   H     H_    0.297633 0.758350 0.451181 0.209878
H61   H     H_    0.370963 0.782824 0.403187 0.226304
H62   H     H_    0.378696 0.675611 0.433215 0.265641
O17   O     O_3   0.442312 0.401149 0.233276 -0.608722
C85   C     C_3   0.489495 0.315923 0.230423 0.046707
H63   H     H_    0.441135 0.261702 0.216489 0.180015
H64   H     H_    0.516786 0.291733 0.266724 0.121659
C86   C     C_3   0.564678 0.322773 0.194645 -0.349988
H65   H     H_    0.536806 0.347839 0.158855 0.239299
H66   H     H_    0.616027 0.373425 0.209154 0.236812
C87   C     C_3   0.609588 0.228543 0.187115 -0.938136
H67   H     H_    0.638838 0.202867 0.222449 0.263518
H68   H     H_    0.664064 0.235894 0.161388 0.273124
H69   H     H_    0.560294 0.176791 0.171463 0.260870
O18   O     O_3   0.608737 0.407322 0.760201 -0.601525
C88   C     C_3   0.567633 0.318785 0.762938 0.051960
H70   H     H_    0.621625 0.267152 0.770462 0.179136
H71   H     H_    0.531938 0.295539 0.728010 0.119339
C89   C     C_3   0.503641 0.317510 0.804872 -0.346319
H72   H     H_    0.538930 0.343928 0.839079 0.238920
H73   H     H_    0.445713 0.363664 0.796167 0.238109
C90   C     C_3   0.468861 0.219322 0.813008 -0.939855
H74   H     H_    0.432558 0.191985 0.779368 0.267607
H75   H     H_    0.422072 0.220928 0.843207 0.272791
H76   H     H_    0.525211 0.171918 0.823046 0.261701
O19   O     O_3   0.383409 0.621838 0.639362 -0.644559
C91   C     C_3   0.394176 0.719832 0.644097 0.103705
H77   H     H_    0.402431 0.747515 0.606948 0.164297
H78   H     H_    0.454817 0.742587 0.666718 0.123719
C92   C     C_3   0.309918 0.762991 0.664525 -0.353482
H79   H     H_    0.251271 0.747632 0.639271 0.227363
H80   H     H_    0.296640 0.732481 0.700377 0.229896
C93   C     C_3   0.319544 0.868194 0.670915 -1.008910
H81   H     H_    0.374280 0.885060 0.698583 0.264609
H82   H     H_    0.256105 0.898286 0.683383 0.281413
H83   H     H_    0.334561 0.899961 0.635664 0.268978
O20   O     O_3   0.637296 0.612040 0.374164 -0.643082
C94   C     C_3   0.642581 0.710031 0.369821 0.141113
H84   H     H_    0.626529 0.741922 0.405625 0.162282
H85   H     H_    0.593628 0.739969 0.342329 0.112373
C95   C     C_3   0.738493 0.737141 0.359090 -0.380330
H86   H     H_    0.784639 0.715785 0.389973 0.213999
H87   H     H_    0.758748 0.700323 0.325398 0.225007
C96   C     C_3   0.747324 0.841745 0.352186 -0.996123
H88   H     H_    0.704259 0.863561 0.320256 0.270996
H89   H     H_    0.817895 0.859390 0.345553 0.277322
H90   H     H_    0.727282 0.880313 0.385347 0.256898
O21   O     O_3   0.274426 0.639108 0.870138 -0.565549
C97   C     C_3   0.272610 0.727546 0.848248 0.124458
H91   H     H_    0.334840 0.741260 0.828718 0.108161
H92   H     H_    0.264573 0.782999 0.876592 0.136482
C98   C     C_3   0.193159 0.731386 0.811051 -0.286187
H93   H     H_    0.202078 0.678128 0.781693 0.240870
H94   H     H_    0.130448 0.715350 0.829349 0.229596
C99   C     C_3   0.184891 0.827373 0.788229 -1.009137
H95   H     H_    0.170408 0.880857 0.816578 0.270560
H96   H     H_    0.129405 0.826774 0.759716 0.275139
H97   H     H_    0.247924 0.846111 0.771057 0.273908
O22   O     O_3   0.760050 0.669234 0.137428 -0.567016
C100  C     C_3   0.752678 0.759831 0.158103 0.119244
H98   H     H_    0.685901 0.772171 0.173510 0.103147
H99   H     H_    0.763754 0.812527 0.129768 0.141064
C101  C     C_3   0.823968 0.772539 0.199645 -0.293083
H100  H     H_    0.810744 0.722807 0.229008 0.241788
H101  H     H_    0.891172 0.757451 0.185863 0.231481
C102  C     C_3   0.823343 0.871448 0.221083 -0.991726
H102  H     H_    0.839507 0.922512 0.192821 0.268801
H103  H     H_    0.874299 0.877572 0.251913 0.274308
H104  H     H_    0.756628 0.888079 0.234986 0.265780
O23   O     O_3   0.286293 0.695809 0.965733 -0.616381
C103  C     C_3   0.311688 0.786459 0.982168 0.028206
H105  H     H_    0.349452 0.823418 0.954196 0.113029
H106  H     H_    0.353774 0.783252 0.016751 0.144312
C104  C     C_3   0.227385 0.842241 0.991993 -0.321178
H107  H     H_    0.184129 0.845389 0.957837 0.223067
H108  H     H_    0.189437 0.806844 0.020193 0.210921
C105  C     C_3   0.250292 0.941206 0.009797 -0.955315
H109  H     H_    0.292352 0.939686 0.044387 0.263417
H110  H     H_    0.187695 0.979712 0.016652 0.266695
H111  H     H_    0.286773 0.978607 0.981735 0.263962
O24   O     O_3   0.747609 0.713558 0.040833 -0.614825
C106  C     C_3   0.716994 0.801087 0.024092 0.030535
H112  H     H_    0.676837 0.837558 0.051871 0.111976
H113  H     H_    0.675468 0.792471 0.989455 0.143868
C107  C     C_3   0.797864 0.861688 0.014236 -0.320213
H114  H     H_    0.840604 0.870308 0.048433 0.223473
H115  H     H_    0.838060 0.826808 0.986188 0.211166
C108  C     C_3   0.769183 0.957570 0.996141 -0.956149
H116  H     H_    0.727531 0.950633 0.961508 0.263490
H117  H     H_    0.829397 0.999698 0.989264 0.267218
H118  H     H_    0.730335 0.994538 0.024050 0.263849
O25   O     O_3   0.283234 0.558193 0.023964 -0.605018
C109  C     C_3   0.201377 0.590218 0.042337 0.140283
H119  H     H_    0.162158 0.623320 0.011865 0.195388
H120  H     H_    0.209156 0.644874 0.071756 0.103559
C110  C     C_3   0.146687 0.507530 0.059033 -0.386971
H121  H     H_    0.133355 0.458455 0.027605 0.242356
H122  H     H_    0.184965 0.469600 0.088190 0.230083
C111  C     C_3   0.057605 0.539463 0.078360 -0.914748
H123  H     H_    0.069274 0.586624 0.110690 0.269161
H124  H     H_    0.018967 0.477937 0.089454 0.277218
H125  H     H_    0.017494 0.576594 0.049584 0.261893
O26   O     O_3   0.758754 0.572654 0.982161 -0.605418
C112  C     C_3   0.838617 0.608445 0.963645 0.136811
H126  H     H_    0.876283 0.645536 0.994142 0.194420
H127  H     H_    0.827693 0.660927 0.934413 0.105304
C113  C     C_3   0.897415 0.528176 0.946545 -0.392749
H128  H     H_    0.913860 0.481942 0.977851 0.241901
H129  H     H_    0.860852 0.486096 0.917534 0.231317
C114  C     C_3   0.984259 0.564309 0.926781 -0.909971
H130  H     H_    0.969561 0.607991 0.894297 0.266528
H131  H     H_    0.026364 0.504562 0.915818 0.282957
H132  H     H_    0.022298 0.606371 0.955260 0.255445
O27   O     O_3   0.056769 0.687809 0.503532 -0.605195
C115  C     C_3   0.014217 0.726426 0.461176 0.099373
H133  H     H_    0.988720 0.795736 0.472350 0.183387
H134  H     H_    0.954293 0.686100 0.448245 0.113595
C116  C     C_3   0.077908 0.740843 0.419598 -0.409741
H135  H     H_    0.139088 0.777592 0.434103 0.232587
H136  H     H_    0.097703 0.672313 0.403999 0.213218
C117  C     C_3   0.033546 0.798471 0.378828 -0.939595
H137  H     H_    0.971344 0.763950 0.363827 0.253517
H138  H     H_    0.080142 0.805819 0.348847 0.275942
H139  H     H_    0.016852 0.869110 0.392912 0.268644
O28   O     O_3   0.927674 0.465470 0.401246 -0.587352
C118  C     C_3   0.906026 0.534506 0.366599 0.022639
H140  H     H_    0.940959 0.600600 0.377124 0.136335
H141  H     H_    0.832546 0.547326 0.363161 0.172297
C119  C     C_3   0.937271 0.502084 0.316885 -0.296427
H142  H     H_    0.011250 0.493939 0.319078 0.232159
H143  H     H_    0.906525 0.433324 0.306880 0.234835
C120  C     C_3   0.910987 0.571589 0.277254 -0.933332
H144  H     H_    0.836980 0.577277 0.273267 0.290034
H145  H     H_    0.936230 0.547300 0.241782 0.284156
H146  H     H_    0.940166 0.641289 0.286617 0.254157
O29   O     O_3   0.966175 0.587039 0.567827 -0.588079
C121  C     C_3   0.008974 0.516901 0.595941 0.084005
H147  H     H_    0.061457 0.482149 0.574950 0.123140
H148  H     H_    0.960519 0.463449 0.607343 0.117563
C122  C     C_3   0.054343 0.562365 0.641649 -0.310639
H149  H     H_    0.099157 0.619364 0.630758 0.234223
H150  H     H_    0.002530 0.593061 0.664755 0.223510
C123  C     C_3   0.109622 0.492102 0.671389 -0.927144
H151  H     H_    0.066264 0.434660 0.683141 0.262487
H152  H     H_    0.140989 0.527384 0.704409 0.278754
H153  H     H_    0.163496 0.462691 0.649296 0.269028
O30   O     O_3   0.031407 0.357861 0.459155 -0.590961
C124  C     C_3   0.011180 0.309843 0.501821 0.070990
H154  H     H_    0.991319 0.358271 0.531512 0.103861
H155  H     H_    0.070245 0.268794 0.515191 0.141600
C125  C     C_3   0.932608 0.243884 0.489601 -0.300895
H156  H     H_    0.877173 0.283132 0.471015 0.244590
H157  H     H_    0.953764 0.187628 0.464263 0.218758
C126  C     C_3   0.897961 0.200860 0.535544 -0.984012
H158  H     H_    0.949841 0.155335 0.553034 0.270632
H159  H     H_    0.837403 0.158644 0.525556 0.273826
H160  H     H_    0.879085 0.256192 0.561995 0.265004

loop_
_geom_bond_atom_site_label_1
_geom_bond_atom_site_label_2
_geom_bond_distance
_ccdc_geom_bond_type
C76   C77   1.524075 S    
C16   C18   1.407189 A    
C94   H84   1.111756 S    
C126  H159  1.109109 S    
C84   H60   1.105199 S    
C58   N4    1.378541 A    
C78   C79   1.535691 S    
C120  H145  1.110333 S    
C120  H144  1.110374 S    
C109  H120  1.115519 S    
C118  H140  1.108642 S    
C115  C116  1.538288 S    
O3    C2    1.293612 A    
N1    C17   1.441682 S    
O22   C100  1.414903 S    
C56   C62   1.416464 A    
C101  H101  1.111939 S    
C66   H14   1.103838 S    
C8    O11   1.349632 S    
C80   H48   1.110123 S    
C76   H39   1.111267 S    
C31   C33   1.420103 A    
C46   C50   1.408847 A    
C86   H65   1.111775 S    
C89   H72   1.111790 S    
C98   C99   1.525750 S    
C5    N1    1.371664 A    
C68   H21   1.108579 S    
C121  C122  1.528228 S    
C47   C67   1.515316 S    
C42   O28   1.386203 S    
C125  C126  1.525717 S    
O1    C1    1.299607 A    
C44   C48   1.393812 A    
C46   C66   1.516832 S    
C125  H157  1.111439 S    
C114  H131  1.110328 S    
C10   C12   1.394628 A    
O28   C118  1.411163 S    
C80   H49   1.110621 S    
C54   C62   1.410149 A    
C45   C49   1.423602 A    
C117  H137  1.110300 S    
C89   H73   1.110345 S    
C97   H92   1.112102 S    
C124  H155  1.112823 S    
C25   C38   1.409223 A    
C13   C15   1.404841 A    
C85   H63   1.110881 S    
C29   C35   1.419908 A    
C107  H115  1.111549 S    
C78   H44   1.110872 S    
C30   C36   1.421722 A    
C100  C101  1.527669 S    
C71   H27   1.110313 S    
C117  H138  1.110246 S    
C96   H88   1.109634 S    
C35   O23   1.384105 S    
O25   C109  1.421129 S    
O17   C85   1.415639 S    
C44   C51   1.407166 A    
C39   O25   1.394983 S    
C13   C63   1.506791 S    
O7    Zn1   1.995296 S    
C69   H23   1.110947 S    
C101  H100  1.110181 S    
C90   H76   1.110790 S    
C4    C28   1.473562 S    
C19   C34   1.408553 A    
C19   C21   1.399625 A    
C88   H70   1.110899 S    
C70   H25   1.111588 S    
C38   O22   1.384450 S    
C82   H54   1.109219 S    
C78   H45   1.106722 S    
C81   H51   1.090110 S    
C104  H107  1.111760 S    
C36   C38   1.400688 A    
C75   H37   1.110883 S    
C122  H150  1.111591 S    
C105  H110  1.110350 S    
O23   C103  1.413704 S    
C51   C52   1.452565 S    
C93   H82   1.110104 S    
C3    C27   1.468912 S    
C14   C64   1.506860 S    
C29   C33   1.416132 A    
O6    C4    1.309796 A    
C64   H9    1.108185 S    
C20   C22   1.400901 A    
O3    Zn1   1.996539 S    
C123  H153  1.111175 S    
C6    N2    1.371558 A    
C119  H142  1.111854 S    
C92   C93   1.522276 S    
C57   C81   1.483049 S    
C41   C51   1.405235 A    
C107  C108  1.525780 S    
C87   H68   1.110359 S    
C126  H160  1.111171 S    
C67   H18   1.105080 S    
C76   H40   1.110549 S    
C112  H126  1.110553 S    
C116  C117  1.526957 S    
C9    H4    1.080850 S    
C41   O27   1.392916 S    
O2    C2    1.289541 A    
C74   H35   1.110395 S    
C59   C83   1.490137 S    
C111  H125  1.110654 S    
C5    C21   1.396905 A    
C99   H95   1.110819 S    
C83   H58   1.104577 S    
C123  H152  1.110661 S    
C96   H90   1.109173 S    
C83   H57   1.099903 S    
C79   H47   1.110320 S    
C87   H69   1.110814 S    
C65   H12   1.102845 S    
C94   C95   1.530673 S    
C121  H148  1.114524 S    
C105  H111  1.110898 S    
C90   H75   1.110341 S    
O20   C94   1.415818 S    
C42   C46   1.394126 A    
C63   H6    1.108167 S    
O19   C91   1.417961 S    
C121  H147  1.109862 S    
C67   H17   1.110055 S    
C75   C76   1.535596 S    
C100  H98   1.117172 S    
C32   C39   1.427859 A    
C118  C119  1.526502 S    
C115  H133  1.108894 S    
C119  C120  1.524977 S    
C60   N4    1.383091 A    
C11   O20   1.393805 S    
O8    Zn2   1.995299 S    
C88   H71   1.116819 S    
C11   C27   1.415215 A    
C110  H122  1.110133 S    
C97   H91   1.116211 S    
C48   C49   1.421280 A    
C124  C125  1.528223 S    
C29   C32   1.418338 A    
C107  H114  1.111722 S    
C63   H5    1.110773 S    
C1    C49   1.475655 S    
Zn1   N4    2.028879 S    
C77   H43   1.110072 S    
C75   H38   1.110863 S    
C31   C40   1.427753 A    
C92   H79   1.108631 S    
C70   H26   1.110754 S    
C125  H156  1.110428 S    
C64   H10   1.103375 S    
C91   H78   1.117258 S    
C23   H1    1.080900 S    
O5    C3    1.293040 A    
C10   C18   1.395412 A    
C43   C47   1.391503 A    
C24   H2    1.080774 S    
N1    C7    1.371068 A    
C108  H116  1.110940 S    
C113  C114  1.526659 S    
C108  H118  1.110926 S    
C79   C80   1.525201 S    
C94   H85   1.115670 S    
C13   C27   1.413720 A    
C58   C82   1.499763 S    
C108  H117  1.110352 S    
C61   C62   1.520005 S    
C7    C25   1.405922 A    
C111  H124  1.110303 S    
C57   N3    1.379822 A    
O27   C115  1.416982 S    
C122  C123  1.525830 S    
C8    C26   1.402952 A    
C114  H132  1.110431 S    
C93   H83   1.108453 S    
O30   C124  1.413317 S    
O14   C72   1.414913 S    
C106  H113  1.112070 S    
C42   C52   1.405738 A    
C104  H108  1.111545 S    
C65   H11   1.105082 S    
C19   C25   1.407593 A    
C68   H22   1.103391 S    
C43   C52   1.412759 A    
C81   H53   1.110642 S    
C103  H105  1.116221 S    
C32   C34   1.419833 A    
C69   C70   1.535326 S    
C72   H30   1.111732 S    
C93   H81   1.110426 S    
C86   H66   1.110570 S    
C77   H42   1.110319 S    
C71   H28   1.110440 S    
C73   C74   1.527046 S    
C99   H97   1.110038 S    
C113  H129  1.110068 S    
C87   H67   1.111049 S    
C98   H93   1.111942 S    
C114  H130  1.110868 S    
N2    C8    1.370907 A    
C43   O29   1.388096 S    
C65   H13   1.108846 S    
O8    C3    1.310111 A    
C112  H127  1.115504 S    
C53   C61   1.410807 A    
C120  H146  1.111179 S    
C20   C26   1.407888 A    
C80   H50   1.110996 S    
C109  C110  1.530591 S    
C81   H52   1.106588 S    
C48   C68   1.506750 S    
C113  H128  1.111790 S    
C123  H151  1.110788 S    
O15   C75   1.416123 S    
C44   O30   1.387773 S    
C60   C84   1.506479 S    
C102  H102  1.111047 S    
C83   H59   1.110646 S    
O18   C88   1.415780 S    
C12   C28   1.411003 A    
C73   H33   1.111683 S    
C79   H46   1.107911 S    
N2    C18   1.441405 S    
C86   C87   1.525789 S    
C21   C23   1.395503 A    
C2    C50   1.429627 S    
O24   C106  1.413902 S    
C96   H89   1.110223 S    
C20   C33   1.409181 A    
O6    Zn2   1.981217 S    
C66   H16   1.109900 S    
C88   C89   1.532497 S    
C117  H139  1.110998 S    
C118  H141  1.114443 S    
C95   H86   1.112123 S    
C6    O10   1.349700 S    
O29   C121  1.412866 S    
C56   C60   1.421563 A    
C115  H134  1.105896 S    
O4    C1    1.307511 A    
C97   C98   1.527452 S    
C36   O24   1.384152 S    
C104  C105  1.525733 S    
C7    O12   1.348595 S    
C82   H55   1.110272 S    
C106  H112  1.116228 S    
C103  C104  1.527348 S    
C53   O13   1.388215 S    
C84   H62   1.090099 S    
C12   O19   1.387582 S    
C82   H56   1.098240 S    
C54   O14   1.385025 S    
C68   H20   1.108859 S    
C30   C34   1.416368 A    
C59   N3    1.380485 A    
C37   O21   1.384318 S    
C110  C111  1.526627 S    
C71   H29   1.110380 S    
C15   O17   1.385025 S    
C99   H96   1.110360 S    
C47   C50   1.409121 A    
C89   C90   1.525623 S    
C91   H77   1.111767 S    
C70   C71   1.524228 S    
C14   C16   1.408143 A    
C91   C92   1.531765 S    
C111  H123  1.110867 S    
C74   H36   1.110432 S    
C90   H74   1.110320 S    
C15   C17   1.408732 A    
O13   C69   1.417058 S    
C6    C22   1.400564 A    
C22   C24   1.396663 A    
C119  H143  1.111866 S    
C95   C96   1.522829 S    
C55   C61   1.410544 A    
C124  H154  1.111892 S    
C110  H121  1.111784 S    
C85   H64   1.116973 S    
C10   H3    1.080394 S    
O21   C97   1.413340 S    
C105  H109  1.110923 S    
C14   C28   1.418581 A    
C45   C65   1.512127 S    
C100  H99   1.111872 S    
C103  H106  1.112116 S    
C109  H119  1.110018 S    
C102  H104  1.110885 S    
C95   H87   1.110360 S    
C63   H7    1.103323 S    
C9    C11   1.398841 A    
O4    Zn2   1.996540 S    
C98   H94   1.111805 S    
O2    Zn2   1.995703 S    
O7    C4    1.296211 A    
C69   H24   1.110901 S    
C72   H31   1.117805 S    
C30   C31   1.420697 A    
C77   H41   1.109738 S    
C102  H103  1.110647 S    
C26   C37   1.409710 A    
C126  H158  1.110772 S    
C41   C45   1.394701 A    
O5    Zn1   1.981220 S    
O1    Zn1   1.995704 S    
O26   C112  1.420824 S    
C55   O15   1.387957 S    
C84   H61   1.110731 S    
C122  H149  1.111648 S    
C54   C58   1.418560 A    
C112  C113  1.530967 S    
C40   O26   1.394999 S    
C116  H135  1.108103 S    
C72   C73   1.527218 S    
C53   C57   1.420896 A    
C66   H15   1.108434 S    
C73   H32   1.110785 S    
O16   C78   1.418000 S    
C67   H19   1.108853 S    
Zn2   N3    2.028879 S    
C35   C37   1.397825 A    
C64   H8    1.110689 S    
C5    O9    1.350466 S    
C55   C59   1.420391 A    
C24   C40   1.407835 A    
C16   O18   1.384879 S    
C101  C102  1.525974 S    
C23   C39   1.405394 A    
C74   H34   1.110816 S    
C106  C107  1.527332 S    
C9    C17   1.397010 A    
C116  H136  1.111321 S    
C92   H80   1.109513 S    
C85   C86   1.533176 S    
C56   O16   1.391155 S    
