data_mof_unit_65555.cif
_audit_creation_date              2012-12-10T20:48:18-0500
_audit_creation_method            fapswitch 2.2
_symmetry_space_group_name_H-M    P1
_symmetry_Int_Tables_number       1
_space_group_crystal_system       triclinic
_cell_length_a                    16.037979
_cell_length_b                    19.184971
_cell_length_c                    19.219772
_cell_angle_alpha                 94.422964
_cell_angle_beta                  95.156761
_cell_angle_gamma                 90.48304
_cell_volume                      5871.51778394

loop_
_atom_site_label
_atom_site_type_symbol
_atom_type_description
_atom_site_fract_x
_atom_site_fract_y
_atom_site_fract_z
_atom_type_partial_charge
C1    C     C_R   0.509852 0.310625 0.492191 0.542104
C2    C     C_R   0.431949 0.803602 0.548990 -0.144729
C3    C     C_R   0.440846 0.122886 0.483224 -0.103698
C4    C     C_R   0.490814 0.689466 0.506533 0.518986
C5    C     C_R   0.440431 0.194815 0.479308 -0.172826
C6    C     C_R   0.516670 0.087636 0.496416 0.202788
C7    C     C_R   0.515093 0.233853 0.489519 -0.004241
C8    C     C_R   0.592576 0.199568 0.501301 0.004363
C9    C     C_R   0.593081 0.125827 0.504280 0.038221
C10   C     C_R   0.483404 0.493552 0.232934 0.015656
C11   C     C_R   0.523574 0.546781 0.201719 -0.122884
C12   C     C_1   0.111062 0.482676 0.482793 -0.033140
C13   C     C_R   0.514980 0.550433 0.128958 0.020178
C14   C     C_R   0.466358 0.498567 0.086544 0.241398
C15   C     C_R   0.424748 0.446650 0.117998 -0.109008
C16   C     C_R   0.509925 0.508785 0.690121 0.546802
C17   C     C_R   0.433448 0.443787 0.190556 -0.145611
C18   C     C_R   0.441718 0.510286 0.871886 -0.092639
C19   C     C_R   0.440567 0.514481 0.799798 -0.172566
C20   C     C_R   0.518258 0.503483 0.912697 0.193980
C21   C     C_R   0.515270 0.511969 0.767016 0.014258
C22   C     C_R   0.592904 0.507724 0.807994 0.028297
C23   C     C_1   0.889051 0.517086 0.517700 -0.028100
C24   C     C_R   0.592844 0.502607 0.880380 -0.106196
C25   C     C_R   0.490975 0.492522 0.309779 0.515063
C26   C     C_R   0.724165 0.509908 0.509991 0.516633
C27   C     C_R   0.275942 0.490057 0.490105 0.503097
C28   C     C_1   0.813740 0.513851 0.514212 0.026660
C29   C     C_2   0.979033 0.520810 0.521673 -0.110593
C30   C     C_2   0.021089 0.478844 0.478948 -0.111978
C31   C     C_2   0.674873 0.511810 0.777864 0.597346
C32   C     C_3   0.555077 0.610960 0.098150 -0.358749
C33   C     C_2   0.672404 0.240668 0.510204 0.635736
C34   C     C_1   0.186366 0.486018 0.486110 0.025539
C35   C     C_2   0.539973 0.902969 0.384609 0.604389
C36   C     C_2   0.673119 0.087290 0.512851 0.633522
C37   C     C_R   0.481469 0.765549 0.503459 0.002051
C38   C     C_R   0.518148 0.799768 0.451560 -0.143734
C39   C     C_R   0.505741 0.871181 0.444455 0.075604
C40   C     C_R   0.458342 0.909581 0.492844 0.209719
C41   C     C_R   0.420567 0.875000 0.543576 -0.117870
H1    H     H_    0.988129 0.441314 0.440686 0.146523
H2    H     H_    0.380917 0.220468 0.470326 0.145648
H3    H     H_    0.381385 0.094977 0.475646 0.160777
H4    H     H_    0.383533 0.903960 0.580045 0.139307
H5    H     H_    0.402202 0.778256 0.588931 0.151344
H6    H     H_    0.742880 0.551011 0.706059 0.342450
H7    H     H_    0.508049 0.636398 0.062829 0.158613
H8    H     H_    0.580388 0.651207 0.139479 0.123507
H9    H     H_    0.607891 0.592430 0.068427 0.164598
H10   H     H_    0.744064 0.314424 0.474115 0.342655
H11   H     H_    0.626223 0.899004 0.314174 0.353000
H12   H     H_    0.554113 0.770095 0.414751 0.179031
H13   H     H_    0.738322 0.011552 0.559652 0.351272
H14   H     H_    0.380804 0.517807 0.769193 0.138396
H15   H     H_    0.382760 0.511970 0.895269 0.151149
H16   H     H_    0.386186 0.407719 0.085920 0.134993
H17   H     H_    0.400964 0.402744 0.213452 0.150539
H18   H     H_    0.651574 0.499477 0.912571 0.158155
H19   H     H_    0.560815 0.586321 0.234204 0.145283
H20   H     H_    0.011984 0.558352 0.559925 0.144301
N1    N     N_2   0.449923 0.982980 0.493157 -0.226116
N2    N     N_2   0.519364 0.013574 0.498107 -0.149632
N3    N     N_2   0.455881 0.498838 0.012637 -0.246920
N4    N     N_2   0.524197 0.500055 0.986519 -0.235838
O1    O     O_3   0.500000 0.500000 0.500000 -0.449397
O2    O     O_R   0.688130 0.469010 0.547620 -0.512122
O3    O     O_R   0.315580 0.449250 0.449280 -0.538433
O4    O     O_R   0.680710 0.547310 0.468650 -0.530906
O5    O     O_R   0.315580 0.534430 0.534450 -0.540397
O6    O     O_2   0.735293 0.481337 0.803777 -0.499031
O7    O     O_R   0.684078 0.552383 0.721529 -0.682642
O8    O     O_2   0.723884 0.232373 0.559685 -0.464102
O9    O     O_R   0.688198 0.289219 0.462140 -0.677530
O10   O     O_2   0.506808 0.953885 0.359986 -0.474920
O11   O     O_R   0.609097 0.873194 0.354857 -0.697112
O12   O     O_R   0.456860 0.545290 0.655940 -0.541886
O13   O     O_2   0.731269 0.101238 0.479014 -0.466385
O14   O     O_R   0.681398 0.034213 0.558840 -0.654930
O15   O     O_R   0.446440 0.450430 0.339790 -0.537215
O16   O     O_R   0.557290 0.347960 0.537250 -0.514741
O17   O     O_R   0.539410 0.656320 0.467010 -0.542633
O18   O     O_R   0.456880 0.340240 0.450910 -0.537272
O19   O     O_R   0.446420 0.655480 0.544820 -0.537544
O20   O     O_R   0.557280 0.467820 0.657110 -0.505312
O21   O     O_R   0.539420 0.536460 0.347160 -0.545881
Zn1   Zn    Zn3+2 0.430910 0.557800 0.557800 0.955913
Zn2   Zn    Zn3+2 0.574380 0.447110 0.559460 1.013272
Zn3   Zn    Zn3+2 0.563780 0.559000 0.446630 0.965870
Zn4   Zn    Zn3+2 0.430930 0.436090 0.436110 0.958472

loop_
_geom_bond_atom_site_label_1
_geom_bond_atom_site_label_2
_ccdc_geom_bond_type
C16   C21   S    
C25   O15   A    
C32   H7    S    
C13   C32   S    
H10   O9    S    
C3    C6    A    
C6    C9    A    
C7    C8    A    
O1    Zn4   S    
C2    H5    S    
C35   O10   D    
O2    Zn2   S    
N1    N2    D    
O17   Zn3   S    
C26   O2    A    
C23   C29   S    
C19   C21   A    
C18   C19   A    
O1    Zn2   S    
C38   C39   A    
C10   C17   A    
C1    O16   A    
C40   N1    S    
C16   O12   A    
C27   O3    A    
C20   C24   A    
C8    C9    A    
C9    C36   S    
O3    Zn4   S    
O19   Zn1   S    
C29   C30   D    
C18   H15   S    
C17   H17   S    
C31   O6    D    
C5    H2    S    
C21   C22   A    
C15   H16   S    
O4    Zn3   S    
O5    Zn1   S    
O1    Zn3   S    
C27   C34   S    
C35   O11   S    
C29   H20   S    
C3    H3    S    
C22   C31   S    
C20   N4    S    
C39   C40   A    
C5    C7    A    
C3    C5    A    
C36   O14   S    
C6    N2    S    
C35   C39   S    
C37   C38   A    
C4    O19   A    
C14   N3    S    
C23   C28   T    
C4    C37   S    
C32   H9    S    
C27   O5    A    
C10   C25   S    
C33   O8    D    
C31   O7    S    
C16   O20   A    
C22   C24   A    
C12   C34   T    
C11   H19   S    
O1    Zn1   S    
H13   O14   S    
O20   Zn2   S    
C19   H14   S    
C15   C17   A    
O18   Zn4   S    
C40   C41   A    
C12   C30   S    
C1    C7    S    
H11   O11   S    
O21   Zn3   S    
C1    O18   A    
C26   C28   S    
N3    N4    D    
C36   O13   D    
C11   C13   A    
C2    C37   A    
C38   H12   S    
C24   H18   S    
C25   O21   A    
C18   C20   A    
C8    C33   S    
O15   Zn4   S    
C32   H8    S    
O16   Zn2   S    
C10   C11   A    
C33   O9    S    
C4    O17   A    
H6    O7    S    
O12   Zn1   S    
C26   O4    A    
C41   H4    S    
C14   C15   A    
C30   H1    S    
C2    C41   A    
C13   C14   A    
