data_mof_unit_56473.cif
_audit_creation_date              2012-12-11T17:43:59-0500
_audit_creation_method            fapswitch 2.2
_symmetry_space_group_name_H-M    P1
_symmetry_Int_Tables_number       1
_space_group_crystal_system       triclinic
_cell_length_a                    20.227517
_cell_length_b                    22.735496
_cell_length_c                    6.942915
_cell_angle_alpha                 90.009515
_cell_angle_beta                  86.826453
_cell_angle_gamma                 89.999841
_cell_volume                      3188.02940346

loop_
_atom_site_label
_atom_site_type_symbol
_atom_type_description
_atom_site_fract_x
_atom_site_fract_y
_atom_site_fract_z
_atom_type_partial_charge
O1    O     O_R   0.751270 0.447300 0.600030 -0.542842
O2    O     O_R   0.248730 0.947300 0.399970 -0.542838
O3    O     O_R   0.613530 0.440160 0.952150 -0.537181
O4    O     O_R   0.386470 0.940160 0.047850 -0.537199
O5    O     O_R   0.613050 0.552700 0.122560 -0.534170
O6    O     O_R   0.386950 0.052700 0.877440 -0.534112
C1    C     C_R   0.591517 0.425413 0.787000 0.697389
C2    C     C_R   0.408486 0.925413 0.212960 0.697425
O7    O     O_R   0.750780 0.440350 0.929820 -0.545023
O8    O     O_R   0.249220 0.940350 0.070180 -0.545022
O9    O     O_R   0.751280 0.552900 0.100070 -0.541561
O10   O     O_R   0.248720 0.052900 0.899930 -0.541515
C3    C     C_R   0.773968 0.426168 0.757379 0.690838
C4    C     C_R   0.226033 0.926165 0.242606 0.690855
O11   O     O_R   0.613040 0.447100 0.622520 -0.535817
O12   O     O_R   0.386960 0.947100 0.377480 -0.535815
O13   O     O_3   0.682160 0.536920 0.777780 -0.363669
O14   O     O_3   0.317840 0.036920 0.222220 -0.363670
V1    V     V_3+5 0.682160 0.493150 0.052630 1.424340
V2    V     V_3+5 0.317840 0.993150 0.947370 1.424361
O15   O     O_R   0.750790 0.559840 0.429870 -0.542597
O16   O     O_R   0.249210 0.059840 0.570130 -0.542644
C5    C     C_R   0.773595 0.574398 0.257417 0.697111
C6    C     C_R   0.226403 0.074397 0.742599 0.697041
O17   O     O_R   0.613540 0.559650 0.452200 -0.534056
O18   O     O_R   0.386460 0.059650 0.547800 -0.534092
C7    C     C_R   0.591577 0.574384 0.287079 0.693875
C8    C     C_R   0.408424 0.074380 0.712959 0.693862
V3    V     V_3+5 0.682160 0.506850 0.552630 1.432968
V4    V     V_3+5 0.317840 0.006850 0.447370 1.432820
O19   O     O_3   0.682150 0.463080 0.277610 -0.370033
O20   O     O_3   0.317850 0.963080 0.722390 -0.370043
C9    C     C_R   0.579839 0.861105 0.160865 -0.099256
C10   C     C_R   0.420038 0.361255 0.835821 -0.099186
H1    H     H_    0.629037 0.878156 0.127620 0.173666
H2    H     H_    0.370777 0.378380 0.867466 0.173665
C11   C     C_R   0.463052 0.882303 0.211457 -0.041361
C12   C     C_R   0.536948 0.382312 0.788259 -0.041245
C13   C     C_R   0.472680 0.596185 0.330335 -0.162334
C14   C     C_R   0.527399 0.096084 0.671886 -0.162476
C15   C     C_R   0.418935 0.634310 0.339675 -0.114091
C16   C     C_R   0.581180 0.134169 0.663471 -0.114044
C17   C     C_R   0.427945 0.694421 0.309013 -0.138873
C18   C     C_R   0.572140 0.194318 0.693279 -0.138868
C19   C     C_R   0.491791 0.718334 0.267344 0.077211
C20   C     C_R   0.508222 0.218313 0.733096 0.077191
C21   C     C_R   0.546808 0.678691 0.256616 0.015112
C22   C     C_R   0.453160 0.178719 0.742726 0.015091
C23   C     C_R   0.502714 0.780095 0.236413 0.035724
C24   C     C_R   0.497275 0.280107 0.763257 0.035724
C25   C     C_R   0.568551 0.800663 0.193935 0.065541
C26   C     C_R   0.431360 0.300767 0.803715 0.065463
C27   C     C_R   0.621871 0.760575 0.184676 0.254530
C28   C     C_R   0.377993 0.260728 0.811887 0.254533
C29   C     C_R   0.610740 0.700863 0.215871 -0.213078
C30   C     C_R   0.389154 0.200976 0.781566 -0.213076
C31   C     C_R   0.450531 0.822341 0.245600 -0.189926
C32   C     C_R   0.549508 0.322300 0.755164 -0.189883
C33   C     C_R   0.527713 0.901187 0.168534 -0.185760
C34   C     C_R   0.472203 0.401295 0.829100 -0.185862
C35   C     C_R   0.536689 0.617409 0.288680 -0.068854
C36   C     C_R   0.463315 0.117396 0.711601 -0.068741
H3    H     H_    0.399572 0.810262 0.276869 0.090928
H4    H     H_    0.600522 0.310154 0.725359 0.090840
H5    H     H_    0.464314 0.549693 0.356162 0.108780
H6    H     H_    0.535798 0.049552 0.646919 0.108743
H7    H     H_    0.383750 0.720848 0.319237 0.106954
H8    H     H_    0.616372 0.220704 0.683898 0.106955
H9    H     H_    0.369634 0.617121 0.371800 0.126231
H10   H     H_    0.630542 0.116913 0.632827 0.126227
H11   H     H_    0.653132 0.671701 0.207584 0.142087
H12   H     H_    0.346724 0.171854 0.788985 0.141901
C37   C     C_R   0.170724 0.882785 0.260860 -0.047057
C38   C     C_R   0.829288 0.382796 0.739105 -0.047062
C39   C     C_R   0.142803 0.859321 0.096058 -0.217221
C40   C     C_R   0.857115 0.359252 0.903909 -0.217257
C41   C     C_R   0.090157 0.819208 0.113591 -0.138114
C42   C     C_R   0.909774 0.319152 0.886382 -0.138139
C43   C     C_R   0.064028 0.801470 0.297482 0.431928
C44   C     C_R   0.936016 0.301509 0.702495 0.431948
C45   C     C_R   0.092111 0.824719 0.461100 -0.178446
C46   C     C_R   0.908028 0.324838 0.538870 -0.178428
C47   C     C_R   0.144639 0.864835 0.443637 -0.200264
C48   C     C_R   0.855483 0.364939 0.556327 -0.200238
C49   C     C_R   0.907781 0.683023 0.386300 -0.120244
C50   C     C_R   0.092372 0.183163 0.613724 -0.119869
C51   C     C_R   0.855909 0.642138 0.403876 -0.191334
C52   C     C_R   0.144256 0.142287 0.596153 -0.191019
C53   C     C_R   0.933049 0.701604 0.202419 0.433339
C54   C     C_R   0.066911 0.201571 0.797614 0.433532
N1    N     N_2   0.010376 0.760739 0.325558 -0.302886
N2    N     N_2   0.989694 0.260801 0.674429 -0.302857
N3    N     N_2   0.986482 0.742561 0.174288 -0.302053
N4    N     N_2   0.013451 0.242504 0.825729 -0.302090
C55   C     C_R   0.827962 0.618682 0.239130 -0.042912
C56   C     C_R   0.172028 0.118674 0.760911 -0.042743
H13   H     H_    0.837985 0.628683 0.546965 0.133831
H14   H     H_    0.162332 0.128971 0.453050 0.133862
H15   H     H_    0.928001 0.699731 0.516639 0.135967
H16   H     H_    0.072295 0.199999 0.483372 0.135968
H17   H     H_    0.072992 0.811723 0.603557 0.122647
H18   H     H_    0.927236 0.311918 0.396414 0.122692
H19   H     H_    0.164685 0.881856 0.573871 0.132766
H20   H     H_    0.835514 0.382027 0.426093 0.132763
C57   C     C_R   0.852930 0.637707 0.056389 -0.164298
C58   C     C_R   0.146872 0.137531 0.943668 -0.164691
C59   C     C_R   0.904688 0.678599 0.038878 -0.150193
C60   C     C_R   0.095099 0.178410 0.961175 -0.150554
H21   H     H_    0.832658 0.620878 0.926223 0.132933
H22   H     H_    0.167000 0.120572 0.073846 0.132753
H23   H     H_    0.923102 0.692278 0.896437 0.120201
H24   H     H_    0.076533 0.191954 0.103626 0.120084
H25   H     H_    0.161449 0.872076 0.952947 0.132170
H26   H     H_    0.838383 0.371932 0.047022 0.132202
H27   H     H_    0.537911 0.947295 0.140697 0.111808
H28   H     H_    0.461968 0.447450 0.855970 0.111763
H29   H     H_    0.070150 0.802302 0.983212 0.135986
H30   H     H_    0.929705 0.302184 0.016765 0.135984
Br1   Br    Br    0.712364 0.784126 0.129829 -0.541289
Br2   Br    Br    0.287397 0.284400 0.864016 -0.541038

loop_
_geom_bond_atom_site_label_1
_geom_bond_atom_site_label_2
_ccdc_geom_bond_type
C52   C56   A    
O11   V3    S    
C28   Br2   S    
C37   C39   A    
O4    C2    A    
V1    O19   S    
C23   C31   A    
C13   C15   A    
C45   H17   S    
C57   C59   A    
O9    V1    S    
C47   H19   S    
C15   H9    S    
C42   H30   S    
C40   C42   A    
C41   H29   S    
C6    C56   S    
C58   H22   S    
C50   C52   A    
O12   V4    S    
C16   H10   S    
C14   C36   A    
O17   V3    S    
O10   C6    A    
C19   C21   A    
C33   H27   S    
O7    C3    A    
C57   H21   S    
C10   C26   A    
C7    C35   S    
O13   V1    S    
O5    C7    A    
C22   C36   A    
O7    V1    S    
O6    C8    A    
C18   C20   A    
C30   H12   S    
C51   C55   A    
C24   C26   A    
O3    V1    S    
C39   H25   S    
C50   H16   S    
C43   N1    S    
C49   C51   A    
C2    O12   A    
C12   C32   A    
C10   C34   A    
C15   C17   A    
C53   C59   A    
C16   C18   A    
O1    V3    S    
O18   C8    A    
C45   C47   A    
C26   C28   A    
C54   N4    S    
C20   C22   A    
C27   C29   A    
C32   H4    S    
C13   C35   A    
C28   C30   A    
C56   C58   A    
C24   C32   A    
C4    C37   S    
C41   C43   A    
C44   C46   A    
C50   C54   A    
O8    V2    S    
C43   C45   A    
C49   C53   A    
C1    O11   A    
C23   C25   A    
O15   V3    S    
C9    C25   A    
C60   H24   S    
C25   C27   A    
C44   N2    S    
C49   H15   S    
N1    N3    D    
C17   C19   A    
C40   H26   S    
C19   C23   A    
O10   V2    S    
N2    N4    D    
C46   H18   S    
C42   C44   A    
C39   C41   A    
C11   C33   A    
C38   C40   A    
C12   C34   A    
C17   H7    S    
O18   V4    S    
C46   C48   A    
O15   C5    A    
O8    C4    A    
O14   V4    S    
C48   H20   S    
O16   C6    A    
C34   H28   S    
O1    C3    A    
C2    C11   S    
C21   C29   A    
V2    O20   S    
C22   C30   A    
C20   C24   A    
O16   V4    S    
C59   H23   S    
C31   H3    S    
C38   C48   A    
C14   C16   A    
C21   C35   A    
C27   Br1   S    
C11   C31   A    
O5    V1    S    
O17   C7    A    
O6    V2    S    
C13   H5    S    
O3    C1    A    
O2    V4    S    
C54   C60   A    
V3    O19   S    
O13   V3    S    
V4    O20   S    
C58   C60   A    
O9    C5    A    
C9    H1    S    
C1    C12   S    
C5    C55   S    
O14   V2    S    
C53   N3    S    
O2    C4    A    
C29   H11   S    
C18   H8    S    
O4    V2    S    
C3    C38   S    
C10   H2    S    
C9    C33   A    
C55   C57   A    
C14   H6    S    
C37   C47   A    
C52   H14   S    
C51   H13   S    
C8    C36   S    
