data_mof_unit_44663.cif
_audit_creation_date              2012-10-26T19:25:17-0400
_audit_creation_method            fapswitch 2.2
_symmetry_space_group_name_H-M    P1
_symmetry_Int_Tables_number       1
_space_group_crystal_system       triclinic
_cell_length_a                    12.378331
_cell_length_b                    13.231626
_cell_length_c                    19.359595
_cell_angle_alpha                 76.832528
_cell_angle_beta                  101.696666
_cell_angle_gamma                 116.924201
_cell_volume                      2734.62474166

loop_
_atom_site_label
_atom_site_type_symbol
_atom_type_description
_atom_site_fract_x
_atom_site_fract_y
_atom_site_fract_z
_atom_type_partial_charge
C1    C     C_R   0.854890 0.286696 0.505861 0.525840
C2    C     C_R   0.997386 0.494880 0.146542 0.014940
C3    C     C_R   0.275513 0.024366 0.407274 -0.129721
C4    C     C_R   0.999828 0.499175 0.632443 0.536484
C5    C     C_R   0.228496 0.835036 0.475287 -0.000414
C6    C     C_R   0.816120 0.083938 0.548956 -0.113449
C7    C     C_R   0.737751 0.967447 0.561473 0.099208
C8    C     C_R   0.614115 0.930971 0.536777 -0.088241
C9    C     C_R   0.567099 0.009319 0.496929 0.002874
C10   C     C_R   0.650176 0.124629 0.476820 0.014423
C11   C     C_R   0.440375 0.976603 0.475507 0.028069
C12   C     C_R   0.999967 0.496865 0.708795 -0.009306
C13   C     C_R   0.400271 0.055473 0.428545 0.053887
C14   C     C_R   0.485154 0.163559 0.402069 -0.136309
C15   C     C_R   0.608334 0.197091 0.424909 -0.115685
C16   C     C_R   0.145164 0.713457 0.489678 0.551791
C17   C     C_R   0.351874 0.868151 0.500131 -0.129754
C18   C     C_R   0.190001 0.914349 0.430234 -0.131412
C19   C     C_R   0.773112 0.163572 0.508509 -0.024071
C20   C     C_R   0.340353 0.319018 0.608209 -0.159742
C21   C     C_R   0.755848 0.639910 0.399717 0.303194
C22   C     C_R   0.649829 0.654249 0.369754 0.078339
C23   C     C_R   0.998561 0.494809 0.070597 0.338927
C24   C     C_R   0.544805 0.592150 0.404138 -0.141885
C25   C     C_R   0.545970 0.523912 0.471299 -0.031002
C26   C     C_R   0.651540 0.502251 0.495477 0.145026
C27   C     C_R   0.443337 0.469505 0.512490 0.005596
C28   C     C_R   0.998584 0.498558 0.367693 0.563004
C29   C     C_R   0.441463 0.380338 0.569688 0.021506
C30   C     C_R   0.541708 0.354253 0.589344 -0.165765
C31   C     C_R   0.645767 0.416315 0.554624 -0.097051
C32   C     C_R   0.344296 0.501647 0.502483 0.252803
C33   C     C_R   0.242272 0.347850 0.591872 0.016714
C34   C     C_R   0.000591 0.492718 0.931099 0.351587
C35   C     C_R   0.087076 0.472208 0.759249 -0.113154
C36   C     C_R   0.088373 0.468759 0.832290 0.103994
C37   C     C_R   0.001395 0.491940 0.855109 0.061574
C38   C     C_R   0.913697 0.515392 0.804302 -0.147506
C39   C     C_R   0.912955 0.517882 0.731943 -0.148633
C40   C     C_R   0.103379 0.513169 0.194676 -0.129712
C41   C     C_R   0.102368 0.513252 0.266398 -0.162058
C42   C     C_R   0.995728 0.495866 0.291648 0.051578
C43   C     C_R   0.888115 0.475933 0.243634 0.083740
C44   C     C_R   0.890027 0.475895 0.171605 -0.109547
Cu1   Cu    Cu3+1 0.098280 0.475420 0.516260 0.953979
Cu2   Cu    Cu3+1 0.901720 0.524580 0.483740 0.968623
H1    H     H_    0.153780 0.454353 0.742004 0.126295
H2    H     H_    0.337308 0.249072 0.650949 0.102782
H3    H     H_    0.462204 0.594412 0.375417 0.104964
H4    H     H_    0.718743 0.391985 0.574979 0.180098
H5    H     H_    0.846165 0.533388 0.820442 0.139406
H6    H     H_    0.844377 0.536646 0.694176 0.141515
H7    H     H_    0.187517 0.527505 0.177064 0.144011
H8    H     H_    0.185884 0.528136 0.301977 0.114677
H9    H     H_    0.806828 0.460507 0.135510 0.137480
H10   H     H_    0.094793 0.890280 0.410688 0.134191
H11   H     H_    0.876177 0.924391 0.613845 0.227415
H12   H     H_    0.456261 0.222724 0.363594 0.113126
H13   H     H_    0.743244 0.852483 0.648945 0.229424
H14   H     H_    0.127761 0.357319 0.910947 0.235535
H15   H     H_    0.238041 0.432591 0.857190 0.222560
H16   H     H_    0.313154 0.597290 0.407894 0.220444
H17   H     H_    0.438825 0.673826 0.465315 0.209777
H18   H     H_    0.889137 0.790832 0.362688 0.194501
H19   H     H_    0.845161 0.686083 0.312943 0.243454
H20   H     H_    0.701859 0.813231 0.312713 0.227870
H21   H     H_    0.560742 0.722393 0.284759 0.232207
H22   H     H_    0.711155 0.372054 0.256272 0.221048
H23   H     H_    0.244402 0.084216 0.371408 0.111910
H24   H     H_    0.745549 0.513787 0.238670 0.234770
H25   H     H_    0.376318 0.806822 0.538539 0.126771
H26   H     H_    0.910504 0.112581 0.572145 0.122169
H27   H     H_    0.558076 0.840102 0.548083 0.120189
H28   H     H_    0.670000 0.279488 0.399637 0.167863
H29   H     H_    0.163335 0.299373 0.620798 0.117848
H30   H     H_    0.541164 0.286954 0.633587 0.114890
N1    N     N_R   0.896201 0.471729 0.955835 -0.241464
N2    N     N_3   0.864494 0.703504 0.365232 -0.538099
N3    N     N_3   0.648811 0.728920 0.303039 -0.649023
N4    N     N_3   0.775914 0.452745 0.267810 -0.616316
N5    N     N_R   0.895182 0.472604 0.024258 -0.233548
N6    N     N_R   0.103121 0.516827 0.045691 -0.230268
N7    N     N_R   0.104122 0.516032 0.977293 -0.175040
N8    N     N_R   0.246290 0.438200 0.540910 -0.201401
N9    N     N_R   0.754310 0.561190 0.459520 -0.224044
N10   N     N_3   0.781623 0.884770 0.600747 -0.625686
N11   N     N_3   0.175599 0.439011 0.883145 -0.591725
N12   N     N_3   0.350852 0.607803 0.460463 -0.575588
O1    O     O_R   0.972510 0.318130 0.520450 -0.508980
O2    O     O_R   0.806530 0.359650 0.492990 -0.528368
O3    O     O_R   0.083010 0.479220 0.613590 -0.506965
O4    O     O_R   0.917030 0.520740 0.586130 -0.522346
O5    O     O_R   0.193470 0.640350 0.507010 -0.467661
O6    O     O_R   0.027490 0.681870 0.479550 -0.473068
O7    O     O_R   0.082970 0.479260 0.413870 -0.508745
O8    O     O_R   0.916990 0.520780 0.386410 -0.444138

loop_
_geom_bond_atom_site_label_1
_geom_bond_atom_site_label_2
_ccdc_geom_bond_type
H22   N4    S    
C1    O2    A    
C23   N6    A    
H17   N12   S    
C27   C29   A    
C34   C37   S    
C41   C42   A    
C35   C36   A    
C35   H1    S    
C7    C8    A    
Cu1   Cu2   S    
C6    H26   S    
H20   N3    S    
C16   O5    A    
C37   C38   A    
C28   O7    A    
C36   C37   A    
C3    H23   S    
C22   N3    S    
C10   C15   A    
C34   N1    A    
C38   C39   A    
C7    N10   S    
C5    C17   A    
C32   N12   S    
H11   N10   S    
C3    C18   A    
C5    C16   S    
H15   N11   S    
C33   H29   S    
C2    C44   A    
C8    C9    A    
C21   N2    S    
C4    C12   S    
Cu1   O1    S    
C9    C10   A    
C3    C13   A    
C18   H10   S    
C4    O3    A    
C39   H6    S    
Cu1   O5    S    
C26   C31   A    
C21   C22   A    
C14   H12   S    
H14   N11   S    
C20   C29   A    
C36   N11   S    
C32   N8    A    
C21   N9    A    
C1    C19   S    
H24   N4    S    
H21   N3    S    
C24   C25   A    
C38   H5    S    
C43   N4    S    
H16   N12   S    
C43   C44   A    
C29   C30   A    
C6    C19   A    
C30   H30   S    
Cu2   O6    S    
N1    N5    A    
C10   C19   A    
Cu2   O8    S    
C12   C35   A    
C9    C11   A    
C20   H2    S    
C20   C33   A    
C40   C41   A    
C17   H25   S    
C22   C24   A    
Cu1   N8    S    
C42   C43   A    
C31   H4    S    
Cu1   O7    S    
C24   H3    S    
C11   C17   A    
C1    O1    A    
H19   N2    S    
C23   N5    A    
C27   C32   A    
H18   N2    S    
C40   H7    S    
C6    C7    A    
Cu2   O2    S    
C25   C27   A    
C16   O6    A    
C28   O8    A    
Cu2   N9    S    
C12   C39   A    
C25   C26   A    
H13   N10   S    
C11   C13   A    
C44   H9    S    
C30   C31   A    
C5    C18   A    
C26   N9    A    
C28   C42   S    
C8    H27   S    
Cu1   O3    S    
C33   N8    A    
C41   H8    S    
C2    C40   A    
C15   H28   S    
Cu2   O4    S    
N6    N7    A    
C34   N7    A    
C2    C23   S    
C14   C15   A    
C13   C14   A    
C4    O4    A    
