data_mof_unit_60567.cif
_audit_creation_date              2012-10-26T19:34:47-0400
_audit_creation_method            fapswitch 2.2
_symmetry_space_group_name_H-M    P1
_symmetry_Int_Tables_number       1
_space_group_crystal_system       triclinic
_cell_length_a                    13.894731
_cell_length_b                    18.168466
_cell_length_c                    19.411123
_cell_angle_alpha                 90.667412
_cell_angle_beta                  90.900994
_cell_angle_gamma                 85.539208
_cell_volume                      4884.54425294

loop_
_atom_site_label
_atom_site_type_symbol
_atom_type_description
_atom_site_fract_x
_atom_site_fract_y
_atom_site_fract_z
_atom_type_partial_charge
C1    C     C_R   0.500259 0.500351 0.632566 0.547794
C2    C     C_R   0.584193 0.511480 0.038301 -0.094043
C3    C     C_R   0.502116 0.501679 0.928097 0.017468
C4    C     C_R   0.498850 0.498370 0.071928 0.018094
C5    C     C_R   0.558856 0.274550 0.543656 0.012281
C6    C     C_R   0.430041 0.722076 0.461695 0.022964
C7    C     C_R   0.557528 0.197133 0.544076 -0.140595
C8    C     C_R   0.423380 0.799811 0.459706 -0.175094
C9    C     C_R   0.495652 0.161460 0.498973 0.033193
C10   C     C_R   0.488685 0.839834 0.497800 -0.015522
C11   C     C_R   0.434810 0.205544 0.454425 0.080232
C12   C     C_R   0.499844 0.499647 0.367432 0.555976
C13   C     C_R   0.560582 0.799975 0.537029 0.125786
C14   C     C_R   0.438256 0.283185 0.455830 0.296202
C15   C     C_R   0.565889 0.722152 0.537081 0.290804
C16   C     C_R   0.683072 0.488482 0.500114 0.552104
C17   C     C_R   0.316926 0.511521 0.499881 0.560882
C18   C     C_R   0.528813 0.036639 0.442445 -0.090886
C19   C     C_R   0.449288 0.964866 0.551882 -0.127696
C20   C     C_R   0.524899 0.959432 0.440063 0.102900
C21   C     C_R   0.453448 0.042286 0.554180 0.099666
C22   C     C_R   0.484768 0.922564 0.495287 0.004997
C23   C     C_R   0.501786 0.431486 0.255127 -0.081346
C24   C     C_R   0.493531 0.078927 0.499120 0.033432
C25   C     C_1   0.214049 0.518119 0.499720 -0.001765
C26   C     C_1   0.785946 0.481906 0.500274 -0.005651
C27   C     C_2   0.024023 0.530345 0.499441 -0.106317
C28   C     C_2   0.975969 0.469717 0.500552 -0.105981
C29   C     C_1   0.872584 0.476015 0.500413 -0.033090
C30   C     C_1   0.127410 0.524036 0.499580 -0.032469
C31   C     C_R   0.497707 0.565236 0.255323 -0.132927
C32   C     C_R   0.501026 0.434879 0.744682 -0.131048
C33   C     C_R   0.497585 0.564444 0.183618 -0.132625
C34   C     C_R   0.500641 0.568450 0.744854 -0.083011
C35   C     C_R   0.501407 0.435693 0.816388 -0.133225
C36   C     C_R   0.498999 0.497385 0.147336 0.066043
C37   C     C_R   0.501911 0.502664 0.852673 0.065070
C38   C     C_R   0.501571 0.430495 0.183247 0.284221
C39   C     C_R   0.501011 0.569468 0.816739 0.286888
C40   C     C_R   0.499682 0.498770 0.291698 -0.027786
C41   C     C_R   0.500721 0.501241 0.708298 -0.028836
C42   C     C_R   0.414580 0.487071 0.033479 0.282998
C43   C     C_R   0.586422 0.512895 0.966557 0.283579
C44   C     C_R   0.416789 0.488525 0.961739 -0.095003
Cl1   Cl    Cl    0.506338 0.344731 0.139711 -0.522648
Cl2   Cl    Cl    0.498350 0.655200 0.860234 -0.516657
Cl3   Cl    Cl    0.305084 0.472342 0.073686 -0.499529
Cl4   Cl    Cl    0.696048 0.527308 0.926381 -0.496800
Cu1   Cu    Cu3+1 0.500030 0.426640 0.500000 0.988991
Cu2   Cu    Cu3+1 0.499970 0.573360 0.500000 0.948372
H1    H     H_    0.013949 0.415132 0.501561 0.144097
H2    H     H_    0.499925 0.620271 0.717741 0.162699
H3    H     H_    0.351832 0.479907 0.932059 0.162480
H4    H     H_    0.649151 0.520061 0.067992 0.162451
H5    H     H_    0.606958 0.301201 0.578615 0.132644
H6    H     H_    0.378854 0.692447 0.431918 0.142726
H7    H     H_    0.604851 0.165172 0.579298 0.127083
H8    H     H_    0.367461 0.828550 0.428507 0.120830
H9    H     H_    0.323529 0.141421 0.437838 0.249804
H10   H     H_    0.405572 0.138492 0.373788 0.244663
H11   H     H_    0.596009 0.871537 0.612474 0.240986
H12   H     H_    0.986045 0.584931 0.498432 0.144012
H13   H     H_    0.667068 0.870169 0.542080 0.234266
H14   H     H_    0.390208 0.310912 0.360099 0.237950
H15   H     H_    0.304679 0.318350 0.421522 0.237922
H16   H     H_    0.696241 0.663397 0.540959 0.248004
H17   H     H_    0.619979 0.645309 0.606803 0.265324
H18   H     H_    0.618668 0.880834 0.399031 0.240212
H19   H     H_    0.509612 0.890878 0.358572 0.241775
H20   H     H_    0.452981 0.063520 0.656391 0.239442
H21   H     H_    0.343397 0.073843 0.617180 0.240853
H22   H     H_    0.560279 0.063848 0.399837 0.144420
H23   H     H_    0.419359 0.937472 0.595004 0.126280
H24   H     H_    0.496211 0.617883 0.282191 0.145374
H25   H     H_    0.500961 0.382299 0.717821 0.146977
H26   H     H_    0.495970 0.616180 0.156257 0.145299
H27   H     H_    0.501693 0.384031 0.843750 0.145549
H28   H     H_    0.504055 0.379592 0.282211 0.158710
N1    N     N_R   0.500010 0.316380 0.499980 -0.213063
N2    N     N_R   0.499990 0.683620 0.500020 -0.237415
N3    N     N_3   0.367296 0.173165 0.408795 -0.643399
N4    N     N_3   0.631400 0.837297 0.575688 -0.583904
N5    N     N_3   0.376184 0.327809 0.410868 -0.532034
N6    N     N_3   0.644234 0.685509 0.575144 -0.561145
N7    N     N_3   0.564262 0.919473 0.381646 -0.613160
N8    N     N_3   0.416091 0.083745 0.612343 -0.618434
O1    O     O_R   0.500040 0.438020 0.599820 -0.503758
O2    O     O_R   0.499960 0.561980 0.400180 -0.506304
O3    O     O_R   0.500000 0.561930 0.599810 -0.516742
O4    O     O_R   0.500000 0.438070 0.400190 -0.476372
O5    O     O_R   0.637870 0.429290 0.499990 -0.494602
O6    O     O_R   0.362130 0.570710 0.500010 -0.502178
O7    O     O_R   0.637830 0.553200 0.499980 -0.514684
O8    O     O_R   0.362170 0.446800 0.500020 -0.466023

loop_
_geom_bond_atom_site_label_1
_geom_bond_atom_site_label_2
_ccdc_geom_bond_type
C1    O1    A    
C4    C36   S    
Cu1   O1    S    
Cu1   O4    S    
C32   H25   S    
C10   C22   S    
C17   O6    A    
C3    C43   A    
C16   O7    A    
C18   C24   A    
C12   O4    A    
C28   C29   S    
C19   C21   A    
H11   N4    S    
C28   H1    S    
H15   N5    S    
C23   C40   A    
C33   C36   A    
C31   C40   A    
C38   Cl1   S    
C33   H26   S    
C8    H8    S    
C44   H3    S    
C32   C41   A    
C31   C33   A    
Cu1   O8    S    
C5    N1    A    
C43   Cl4   S    
Cu2   O2    S    
H17   N6    S    
C27   C30   S    
C18   H22   S    
H18   N7    S    
C34   C41   A    
C42   C44   A    
C14   N5    S    
Cu1   O5    S    
C16   C26   S    
C3    C44   A    
C12   O2    A    
H13   N4    S    
C34   C39   A    
C32   C35   A    
C19   H23   S    
C19   C22   A    
C2    H4    S    
C5    C7    A    
C31   H24   S    
C6    C8    A    
C13   N4    S    
C35   H27   S    
C11   N3    S    
Cu1   N1    S    
C12   C40   S    
C2    C4    A    
H14   N5    S    
C27   H12   S    
H21   N8    S    
H10   N3    S    
Cu2   O3    S    
C6    N2    A    
C15   N2    A    
C2    C43   A    
C20   N7    S    
C9    C24   S    
C14   N1    A    
C9    C11   A    
C16   O5    A    
C39   Cl2   S    
C1    C41   S    
C20   C22   A    
C13   C15   A    
H20   N8    S    
H19   N7    S    
Cu2   O6    S    
C25   C30   T    
C7    C9    A    
C21   N8    S    
C1    O3    A    
C35   C37   A    
C5    H5    S    
H9    N3    S    
C6    H6    S    
C10   C13   A    
Cu2   N2    S    
Cu2   O7    S    
C15   N6    S    
C23   C38   A    
C34   H2    S    
C17   C25   S    
C36   C38   A    
C37   C39   A    
C4    C42   A    
C11   C14   A    
C18   C20   A    
C42   Cl3   S    
C23   H28   S    
H16   N6    S    
C3    C37   S    
C26   C29   T    
C8    C10   A    
Cu1   Cu2   S    
C21   C24   A    
C27   C28   D    
C17   O8    A    
C7    H7    S    
