data_mof_unit_39578.cif
_audit_creation_date              2013-03-05T15:55:53-0500
_audit_creation_method            fapswitch 2.2
_symmetry_space_group_name_H-M    P1
_symmetry_Int_Tables_number       1
_space_group_crystal_system       triclinic
_cell_length_a                    12.349771
_cell_length_b                    13.092568
_cell_length_c                    15.866089
_cell_angle_alpha                 77.932133
_cell_angle_beta                  101.055877
_cell_angle_gamma                 116.368732
_cell_volume                      2233.31044649

loop_
_atom_site_label
_atom_site_type_symbol
_atom_site_description
_atom_site_fract_x
_atom_site_fract_y
_atom_site_fract_z
_atom_type_partial_charge
O1    O     O_R   0.972510 0.318130 0.524770 -0.583494
O2    O     O_R   0.806530 0.359650 0.491510 -0.618009
C1    C     C_R   0.855063 0.286179 0.509446 0.761568
O3    O     O_R   0.082970 0.479240 0.637550 -0.566924
O4    O     O_R   0.916990 0.520750 0.604290 -0.587055
C2    C     C_R   0.999358 0.499693 0.659797 0.800557
Cu1   Cu    Cu3+1 0.098270 0.475420 0.519690 0.954947
Cu2   Cu    Cu3+1 0.901730 0.524580 0.480310 0.985627
O5    O     O_R   0.193470 0.640350 0.508490 -0.585754
O6    O     O_R   0.027490 0.681870 0.475230 -0.543655
O7    O     O_R   0.083010 0.479250 0.395710 -0.579466
O8    O     O_R   0.917030 0.520760 0.362450 -0.539540
C3    C     C_R   0.145241 0.713624 0.486495 0.805882
C4    C     C_R   0.000514 0.500059 0.340225 0.826664
C5    C     C_3   0.951018 0.390723 0.040157 0.308335
C6    C     C_3   0.885101 0.445797 0.966305 0.234173
H1    H     H_    0.878631 0.600130 0.018335 0.198662
C7    C     C_1   0.998139 0.499076 0.749196 -0.130093
C8    C     C_1   0.001531 0.500086 0.250900 -0.109702
C9    C     C_3   0.064964 0.443844 0.991248 0.238152
C10   C     C_3   0.997548 0.497683 0.916280 -0.115870
C11   C     C_3   0.114870 0.553293 0.034046 0.185057
C12   C     C_3   0.001929 0.500575 0.083988 -0.125972
C13   C     C_3   0.047522 0.606845 0.960191 0.372543
C14   C     C_3   0.933355 0.555649 0.009792 -0.371728
C15   C     C_1   0.997620 0.498378 0.824654 0.170455
C16   C     C_1   0.002025 0.500276 0.175528 0.150552
C17   C     C_R   0.286190 0.012584 0.366981 -0.152887
H2    H     H_    0.111318 0.873582 0.358873 0.230299
H3    H     H_    0.259177 0.064630 0.312212 0.187417
C18   C     C_R   0.229285 0.834535 0.465914 -0.059488
C19   C     C_R   0.810956 0.087574 0.580915 -0.180134
C20   C     C_R   0.729014 0.975098 0.604634 -0.126652
C21   C     C_R   0.607172 0.937373 0.570813 -0.147610
C22   C     C_R   0.565247 0.010908 0.508966 0.075072
C23   C     C_R   0.651947 0.121785 0.478563 0.018082
C24   C     C_R   0.440925 0.976885 0.474549 0.009174
C25   C     C_R   0.407444 0.049177 0.404797 0.051453
C26   C     C_R   0.495667 0.155095 0.371642 0.407916
C27   C     C_R   0.616734 0.188581 0.406638 -0.281527
C28   C     C_R   0.348491 0.872306 0.506674 -0.219756
C29   C     C_R   0.199259 0.904755 0.395619 -0.167006
C30   C     C_R   0.772951 0.162764 0.519945 -0.062128
H4    H     H_    0.366854 0.816413 0.562038 0.147725
H5    H     H_    0.903365 0.116891 0.612594 0.147896
H6    H     H_    0.549074 0.849232 0.592746 0.135754
H7    H     H_    0.759350 0.917596 0.651670 0.152387
H8    H     H_    0.683201 0.266130 0.374495 0.184354
C31   C     C_R   0.337035 0.314765 0.630365 0.399569
H9    H     H_    0.163098 0.302891 0.647453 0.150052
H10   H     H_    0.543742 0.286327 0.661857 0.201709
N1    N     N_R   0.246280 0.438200 0.549540 -0.215835
C32   C     C_R   0.755942 0.647991 0.384421 0.547983
C33   C     C_R   0.654749 0.672353 0.357699 -0.250640
C34   C     C_R   0.552033 0.613540 0.399937 -0.281626
C35   C     C_R   0.547965 0.528551 0.471130 0.020067
C36   C     C_R   0.651615 0.501769 0.495276 0.189624
C37   C     C_R   0.443950 0.469074 0.518452 -0.067273
C38   C     C_R   0.441180 0.378319 0.585892 0.019944
C39   C     C_R   0.542565 0.353173 0.608767 -0.225272
C40   C     C_R   0.645645 0.414607 0.565667 -0.151128
C41   C     C_R   0.342269 0.496872 0.502157 0.002831
C42   C     C_R   0.242096 0.349145 0.612368 0.006668
N2    N     N_R   0.754330 0.561180 0.450980 -0.273633
H11   H     H_    0.337209 0.565393 0.452963 0.149322
H12   H     H_    0.477496 0.637021 0.375021 0.178422
H13   H     H_    0.657194 0.740185 0.304498 0.197673
H14   H     H_    0.718895 0.390804 0.590515 0.208891
N3    N     N_R   0.758980 0.387653 0.929952 0.135593
O9    O     O_R   0.672109 0.351305 0.978869 -0.319531
O10   O     O_R   0.732262 0.373092 0.848700 -0.376181
O11   O     O_3   0.329235 0.222929 0.694636 -0.576290
C43   C     C_3   0.291822 0.122126 0.656398 0.057055
H15   H     H_    0.324739 0.062834 0.702600 0.188123
H16   H     H_    0.331915 0.138265 0.594958 0.130046
C44   C     C_3   0.153333 0.060889 0.640762 -0.823342
H17   H     H_    0.117412 0.112107 0.588127 0.233707
H18   H     H_    0.126249 0.975518 0.621015 0.231819
H19   H     H_    0.112847 0.048243 0.700949 0.251130
N4    N     N_R   0.863666 0.724361 0.345560 0.118299
O12   O     O_R   0.906197 0.832368 0.354608 -0.413940
O13   O     O_R   0.883933 0.699750 0.276534 -0.378574
O14   O     O_3   0.902111 0.279817 0.088428 -0.563961
C45   C     C_3   0.856093 0.195011 0.032801 0.088527
H20   H     H_    0.916977 0.214360 0.982606 0.164601
H21   H     H_    0.765002 0.186262 0.000192 0.204467
C46   C     C_3   0.842588 0.080047 0.086407 -0.726480
H22   H     H_    0.780000 0.056065 0.136159 0.269525
H23   H     H_    0.804957 0.012064 0.043617 0.209396
H24   H     H_    0.932742 0.085948 0.119191 0.246128
O15   O     O_3   0.100317 0.717899 0.912861 -0.545602
C47   C     C_3   0.116155 0.801259 0.963392 0.103729
H25   H     H_    0.167742 0.791009 0.027923 0.181789
H26   H     H_    0.026424 0.795545 0.972507 0.140108
C48   C     C_3   0.187471 0.920589 0.916434 -0.707862
H27   H     H_    0.137482 0.934325 0.852183 0.239967
H28   H     H_    0.199877 0.987162 0.955314 0.204656
H29   H     H_    0.278285 0.929639 0.906928 0.266345
N5    N     N_R   0.240860 0.614503 0.069460 0.116817
O16   O     O_R   0.326523 0.659329 0.018662 -0.317682
O17   O     O_R   0.268479 0.624854 0.151481 -0.393186
O18   O     O_3   0.130164 0.385904 0.975029 -0.558260
C49   C     C_3   0.188705 0.351032 0.053498 0.099282
H30   H     H_    0.129163 0.313288 0.106748 0.164104
H31   H     H_    0.272384 0.425495 0.073996 0.203548
C50   C     C_3   0.225227 0.259759 0.039241 -0.753144
H32   H     H_    0.287606 0.295095 0.988038 0.280224
H33   H     H_    0.272310 0.232003 0.100305 0.221242
H34   H     H_    0.143082 0.183748 0.019042 0.238158
O19   O     O_3   0.464290 0.222369 0.300558 -0.577140
C51   C     C_3   0.471530 0.321697 0.327479 0.063217
H35   H     H_    0.568215 0.383967 0.338842 0.166213
H36   H     H_    0.426918 0.300312 0.387669 0.135948
C52   C     C_3   0.406643 0.379034 0.256359 -0.738025
H37   H     H_    0.309371 0.318965 0.244431 0.228695
H38   H     H_    0.412065 0.457716 0.276198 0.228350
H39   H     H_    0.449654 0.403356 0.195511 0.264793

loop_
_geom_bond_atom_site_label_1
_geom_bond_atom_site_label_2
_geom_bond_distance
_ccdc_geom_bond_type
C37   C41   1.420669 A    
C46   H22   1.110828 S    
C6    C10   1.542471 S    
C31   C42   1.394814 A    
C18   C29   1.393592 A    
H2    C29   1.071867 S    
C19   H5    1.083478 S    
C48   H27   1.110524 S    
C7    C15   1.196563 T    
C44   H19   1.110301 S    
C34   C35   1.401113 A    
C52   H37   1.110519 S    
C48   H29   1.110855 S    
Cu1   Cu2   2.708132 S    
C32   C33   1.391964 A    
Cu1   O7    1.931940 S    
C1    C30   1.470950 S    
C22   C24   1.423570 A    
C44   H18   1.110625 S    
Cu1   N1    2.040996 S    
O4    C2    1.300134 A    
O7    C4    1.299791 A    
C9    O18   1.411994 S    
C50   H32   1.110749 S    
C5    C6    1.535548 S    
C35   C36   1.436212 A    
C27   H8    1.080959 S    
C21   C22   1.418016 A    
C43   H15   1.110544 S    
N3    O10   1.300321 A    
O5    C3    1.297985 A    
O19   C51   1.412779 S    
C45   H20   1.113509 S    
C49   H31   1.110365 S    
C26   O19   1.384957 S    
O14   C45   1.411255 S    
C31   O11   1.384530 S    
C45   C46   1.520803 S    
C21   H6    1.077010 S    
C12   C16   1.451347 S    
C49   C50   1.521042 S    
C8    C16   1.196517 T    
C41   H11   1.075285 S    
C5    C12   1.547500 S    
C38   C39   1.396333 A    
H9    C42   1.082096 S    
C43   H16   1.116299 S    
O18   C49   1.411190 S    
O3    Cu1   1.928220 S    
C10   C15   1.452037 S    
C5    C9    1.545919 S    
C2    C7    1.419684 S    
C23   C27   1.409382 A    
C32   N4    1.423028 S    
C13   C14   1.556290 S    
N4    O13   1.300079 A    
C26   C27   1.391793 A    
O11   C43   1.417379 S    
C5    O14   1.411791 S    
C33   H13   1.083799 S    
C37   C38   1.415714 A    
O6    C3    1.309132 A    
C47   C48   1.521295 S    
C39   C40   1.389061 A    
O1    C1    1.306218 A    
C22   C23   1.418128 A    
C43   C44   1.527056 S    
C24   C25   1.423276 A    
N5    O16   1.300354 A    
C17   C25   1.403654 A    
Cu2   O8    1.928221 S    
C47   H26   1.112573 S    
C20   C21   1.391777 A    
C51   H36   1.116650 S    
C44   H17   1.109898 S    
Cu2   N2    2.028938 S    
O3    C2    1.299027 A    
N5    O17   1.300255 A    
C9    C11   1.534986 S    
C46   H23   1.110563 S    
C20   H7    1.082798 S    
C28   H4    1.077393 S    
C11   C13   1.535287 S    
C46   H24   1.111053 S    
C13   O15   1.411471 S    
O15   C47   1.410064 S    
C34   H12   1.076629 S    
C36   N2    1.394613 A    
C6    C14   1.547780 S    
Cu1   O5    1.934216 S    
C33   C34   1.376150 A    
C11   N5    1.457490 S    
C18   C28   1.397115 A    
C51   H35   1.112239 S    
O1    Cu1   1.948592 S    
C4    C8    1.419629 S    
C3    C18   1.464316 S    
O2    Cu2   1.934216 S    
C6    N3    1.457386 S    
C45   H21   1.110589 S    
N4    O12   1.300891 A    
N1    C42   1.355010 A    
O4    Cu2   1.931939 S    
C52   H38   1.109496 S    
C48   H28   1.110703 S    
C36   C40   1.406757 A    
C31   C38   1.412931 A    
H1    C14   1.109965 S    
C19   C20   1.387392 A    
C17   H3    1.083450 S    
O2    C1    1.302988 A    
O8    C4    1.299385 A    
N1    C41   1.360873 A    
C40   H14   1.064485 S    
C25   C26   1.399831 A    
C50   H33   1.110515 S    
C17   C29   1.387313 A    
C47   H25   1.113772 S    
C32   N2    1.376047 A    
C19   C30   1.401162 A    
C35   C37   1.434250 A    
C51   C52   1.520633 S    
C12   C14   1.558224 S    
C24   C28   1.407322 A    
N3    O9    1.300469 A    
C52   H39   1.110622 S    
C9    C10   1.547831 S    
Cu2   O6    1.948592 S    
C10   C13   1.541703 S    
C49   H30   1.113379 S    
C11   C12   1.545879 S    
C23   C30   1.418053 A    
H10   C39   1.083531 S    
C50   H34   1.110902 S    
