data_mof_unit_32602.cif
_audit_creation_date              2012-10-26T18:43:52-0400
_audit_creation_method            fapswitch 2.2
_symmetry_space_group_name_H-M    P1
_symmetry_Int_Tables_number       1
_space_group_crystal_system       triclinic
_cell_length_a                    9.542279
_cell_length_b                    10.822371
_cell_length_c                    17.280349
_cell_angle_alpha                 90.336278
_cell_angle_beta                  86.183092
_cell_angle_gamma                 90.143726
_cell_volume                      1780.55005268

loop_
_atom_site_label
_atom_site_type_symbol
_atom_type_description
_atom_site_fract_x
_atom_site_fract_y
_atom_site_fract_z
_atom_type_partial_charge
C1    C     C_R   0.500006 0.737664 0.501360 0.543148
C2    C     C_R   0.522305 0.506446 0.265173 -0.013066
C3    C     C_R   0.373567 0.935960 0.507773 0.019108
C4    C     C_R   0.481985 0.500027 0.649864 0.544212
C5    C     C_R   0.499368 0.870781 0.508795 0.007429
C6    C     C_R   0.623919 0.936030 0.520330 -0.163744
C7    C     C_R   0.623787 0.064866 0.520130 -0.165451
C8    C     C_R   0.499094 0.129171 0.508411 0.006392
C9    C     C_R   0.373426 0.063142 0.507508 0.026480
C10   C     C_3   0.261124 0.068144 0.451390 -0.271829
C11   C     C_3   0.260900 0.927946 0.451961 -0.270348
C12   C     C_R   0.361076 0.561061 0.775629 -0.129297
C13   C     C_R   0.930352 0.406589 0.464547 0.160108
C14   C     C_R   0.920851 0.585521 0.541132 -0.015134
C15   C     C_R   0.069770 0.585625 0.541067 -0.017072
C16   C     C_R   0.499823 0.262286 0.501122 0.550340
C17   C     C_R   0.077723 0.406248 0.464792 0.161075
C18   C     C_3   0.093518 0.370305 0.381208 -0.281779
C19   C     C_3   0.934711 0.371859 0.380845 -0.285056
C20   C     C_R   0.517637 0.505488 0.350084 0.536043
C21   C     C_R   0.473518 0.502108 0.734270 0.018743
C22   C     C_R   0.581824 0.449441 0.773915 -0.131884
C23   C     C_R   0.385216 0.503267 0.152117 0.045101
C24   C     C_R   0.577929 0.455653 0.854271 -0.114142
C25   C     C_R   0.466659 0.516290 0.895525 0.037950
C26   C     C_R   0.358899 0.569750 0.856102 -0.116845
C27   C     C_3   0.755183 0.371641 0.099007 -0.273482
C28   C     C_3   0.834928 0.471699 0.051991 -0.440705
C29   C     C_3   0.312412 0.653036 0.262348 -0.264820
C30   C     C_3   0.314198 0.766952 0.210331 -0.461037
C31   C     C_3   0.237318 0.492480 0.124085 -0.271613
C32   C     C_3   0.190204 0.357427 0.125216 -0.442118
C33   C     C_R   0.406161 0.550516 0.226653 0.019875
C34   C     C_R   0.632375 0.445943 0.223288 -0.144921
C35   C     C_R   0.627029 0.424600 0.143819 0.017194
C36   C     C_R   0.501421 0.451012 0.108258 0.046238
C37   C     C_2   0.464556 0.528308 0.979656 -0.151006
C38   C     C_2   0.495371 0.432890 0.024247 -0.137542
Cu1   Cu    Cu3+1 0.359330 0.500020 0.500000 0.929301
Cu2   Cu    Cu3+1 0.640670 0.499980 0.500000 0.930243
H1    H     H_    0.669489 0.403725 0.742730 0.123049
H2    H     H_    0.144722 0.442697 0.344034 0.151577
H3    H     H_    0.138570 0.276545 0.372224 0.114584
H4    H     H_    0.896024 0.446706 0.344147 0.146583
H5    H     H_    0.888323 0.279088 0.371477 0.120241
H6    H     H_    0.722578 0.415025 0.252603 0.113231
H7    H     H_    0.525414 0.344345 0.998430 0.116851
H8    H     H_    0.273041 0.617394 0.887677 0.097695
H9    H     H_    0.277398 0.603198 0.745646 0.116118
H10   H     H_    0.434709 0.616934 0.005694 0.118625
H11   H     H_    0.663336 0.415900 0.884006 0.103741
H12   H     H_    0.722290 0.888190 0.525864 0.127707
H13   H     H_    0.766132 0.518120 0.011909 0.163254
H14   H     H_    0.876813 0.541925 0.091569 0.148376
H15   H     H_    0.924049 0.429584 0.016757 0.129602
H16   H     H_    0.827898 0.330284 0.139272 0.128099
H17   H     H_    0.724676 0.295477 0.060228 0.131276
H18   H     H_    0.423523 0.801220 0.199323 0.152650
H19   H     H_    0.269669 0.745968 0.154042 0.145090
H20   H     H_    0.250278 0.841386 0.239613 0.130584
H21   H     H_    0.203153 0.620311 0.274584 0.131257
H22   H     H_    0.349645 0.686024 0.318275 0.165587
H23   H     H_    0.722117 0.113368 0.525550 0.133436
H24   H     H_    0.258253 0.300939 0.084269 0.156043
H25   H     H_    0.193893 0.319331 0.184631 0.147459
H26   H     H_    0.080973 0.350338 0.107784 0.132757
H27   H     H_    0.158782 0.544414 0.161188 0.135656
H28   H     H_    0.230654 0.530506 0.065149 0.138601
H29   H     H_    0.162213 0.108942 0.477762 0.135846
H30   H     H_    0.299302 0.107477 0.394504 0.128340
H31   H     H_    0.162134 0.887807 0.478935 0.132416
H32   H     H_    0.298175 0.886203 0.395368 0.131028
H33   H     H_    0.861353 0.656132 0.573262 0.112461
H34   H     H_    0.121907 0.656347 0.573118 0.113392
N1    N     N_R   0.852130 0.499070 0.499500 -0.230775
N2    N     N_R   0.148040 0.499110 0.499500 -0.231932
O1    O     O_R   0.381190 0.680360 0.500000 -0.511793
O2    O     O_R   0.618770 0.680320 0.499990 -0.511563
O3    O     O_R   0.367430 0.500040 0.613600 -0.502924
O4    O     O_R   0.605020 0.500000 0.613590 -0.505997
O5    O     O_R   0.381230 0.319680 0.500010 -0.492403
O6    O     O_R   0.618810 0.319640 0.500000 -0.506364
O7    O     O_R   0.394980 0.500000 0.386410 -0.511196
O8    O     O_R   0.632570 0.499960 0.386400 -0.504358

loop_
_geom_bond_atom_site_label_1
_geom_bond_atom_site_label_2
_ccdc_geom_bond_type
C37   H10   S    
C1    O1    A    
Cu2   O8    S    
C35   C36   A    
C12   H9    S    
C7    C8    A    
C31   H27   S    
C29   C30   S    
C1    C5    S    
Cu1   O1    S    
C4    O4    A    
C18   H2    S    
C5    C6    A    
C11   H31   S    
C22   H1    S    
C29   C33   S    
C34   C35   A    
C25   C37   S    
C13   N1    A    
C8    C9    A    
C23   C33   A    
C30   H20   S    
C17   N2    A    
Cu2   O4    S    
C34   H6    S    
C9    C10   S    
C26   H8    S    
C2    C34   A    
C24   H11   S    
C15   N2    A    
C8    C16   S    
C21   C22   A    
C1    O2    A    
C28   H15   S    
C31   H28   S    
C29   H21   S    
C13   C19   S    
C2    C20   S    
C14   H33   S    
Cu2   O6    S    
C24   C25   A    
C32   H24   S    
C4    O3    A    
C27   H17   S    
Cu1   O5    S    
Cu1   Cu2   S    
C28   H14   S    
C11   H32   S    
C18   C19   S    
C27   C35   S    
C25   C26   A    
C12   C21   A    
C12   C26   A    
C23   C31   S    
C37   C38   D    
C3    C9    A    
C31   C32   S    
C30   H19   S    
C16   O6    A    
C17   C18   S    
Cu1   N2    S    
C7    H23   S    
C38   H7    S    
C10   H30   S    
C2    C33   A    
C20   O8    A    
Cu2   O2    S    
C19   H4    S    
C32   H26   S    
C29   H22   S    
C27   H16   S    
C3    C5    A    
C28   H13   S    
C19   H5    S    
C6    C7    A    
Cu2   N1    S    
C13   C17   A    
C14   N1    A    
C36   C38   S    
Cu1   O7    S    
C18   H3    S    
C4    C21   S    
C30   H18   S    
C16   O5    A    
C22   C24   A    
C3    C11   S    
C10   C11   S    
C10   H29   S    
C15   H34   S    
C23   C36   A    
C20   O7    A    
C27   C28   S    
C14   C15   A    
C6    H12   S    
Cu1   O3    S    
C32   H25   S    
