data_mof_unit_38699.cif
_audit_creation_date              2012-12-10T17:46:59-0500
_audit_creation_method            fapswitch 2.2
_symmetry_space_group_name_H-M    P1
_symmetry_Int_Tables_number       1
_space_group_crystal_system       triclinic
_cell_length_a                    9.969394
_cell_length_b                    10.63731
_cell_length_c                    13.622409
_cell_angle_alpha                 91.949809
_cell_angle_beta                  82.676095
_cell_angle_gamma                 89.096087
_cell_volume                      1431.71231299

loop_
_atom_site_label
_atom_site_type_symbol
_atom_type_description
_atom_site_fract_x
_atom_site_fract_y
_atom_site_fract_z
_atom_type_partial_charge
C1    C     C_R   0.498823 0.739307 0.499977 0.927700
C2    C     C_1   0.457726 0.495566 0.789056 -0.073392
C3    C     C_R   0.434501 0.862087 0.326884 -0.187532
C4    C     C_R   0.403869 0.922776 0.242868 0.106310
C5    C     C_R   0.407091 0.054821 0.240409 0.008205
C6    C     C_R   0.441217 0.123113 0.323366 -0.168378
C7    C     C_R   0.469913 0.061923 0.409057 0.058443
C8    C     C_R   0.466480 0.930823 0.411252 0.024216
C9    C     C_R   0.495888 0.872242 0.498095 -0.097574
C10   C     C_R   0.527160 0.941561 0.581997 -0.007685
C11   C     C_R   0.535001 0.069989 0.576762 -0.287259
C12   C     C_R   0.475485 0.498725 0.685384 0.937897
C13   C     C_R   0.504311 0.128576 0.492818 -0.043831
C14   C     C_R   0.835956 0.660166 0.634697 -0.084858
C15   C     C_R   0.893566 0.737469 0.701679 -0.142772
C16   C     C_R   0.032420 0.736193 0.701907 -0.179554
C17   C     C_R   0.114541 0.657851 0.634954 -0.133736
C18   C     C_R   0.059504 0.576680 0.567394 0.156446
C19   C     C_R   0.915289 0.576977 0.567434 0.125519
C20   C     C_R   0.943951 0.431721 0.430988 0.020626
C21   C     C_R   0.086001 0.431508 0.432538 -0.164715
C22   C     C_R   0.501389 0.260925 0.497795 0.874655
C23   C     C_R   0.524761 0.499413 0.314538 0.875578
C24   C     C_1   0.545162 0.500292 0.210769 -0.083754
C25   C     C_2   0.571693 0.503135 0.018504 0.016613
C26   C     C_2   0.455412 0.490100 0.979794 -0.114611
C27   C     C_1   0.451070 0.492704 0.876590 0.077088
C28   C     C_1   0.561349 0.501473 0.122923 -0.039544
H1    H     H_    0.360331 0.477999 0.027098 0.179406
H2    H     H_    0.729633 0.670664 0.636179 0.223356
H3    H     H_    0.830058 0.800181 0.752727 0.159267
H4    H     H_    0.077102 0.797790 0.753149 0.170993
H5    H     H_    0.220731 0.665081 0.636604 0.221622
H6    H     H_    0.151944 0.375702 0.377755 0.161220
H7    H     H_    0.432175 0.760606 0.325132 0.161495
H8    H     H_    0.445990 0.224455 0.320342 0.177793
H9    H     H_    0.558482 0.125895 0.640383 0.136933
N1    N     N_R   0.857120 0.501200 0.500900 -0.130112
N2    N     N_R   0.142720 0.501280 0.500940 -0.117763
O1    O     O_R   0.385310 0.683220 0.500000 -0.634121
O2    O     O_R   0.614640 0.683250 0.500010 -0.639182
O3    O     O_R   0.368830 0.499960 0.640340 -0.638885
O4    O     O_R   0.598160 0.499980 0.640350 -0.605124
O5    O     O_R   0.385360 0.316750 0.499990 -0.626005
O6    O     O_R   0.614690 0.316780 0.500000 -0.547431
O7    O     O_R   0.401840 0.500020 0.359650 -0.609643
O8    O     O_R   0.631170 0.500040 0.359660 -0.591696
Zn1   Zn    Zn3+2 0.346870 0.499980 0.499990 0.958325
Zn2   Zn    Zn3+2 0.653130 0.500020 0.500010 1.001241
C29   C     C_2   0.707934 0.521046 0.962402 0.432585
H10   H     H_    0.794345 0.531737 0.002871 0.063547
O9    O     O_2   0.726285 0.524132 0.872207 -0.563002
C30   C     C_2   0.546433 0.885900 0.677950 0.345766
H11   H     H_    0.602332 0.936805 0.729428 0.079112
O10   O     O_2   0.495057 0.786748 0.702969 -0.606859
I1    I     I_    0.352152 0.807092 0.123679 -0.429070
C31   C     C_2   0.375617 0.122376 0.152250 0.401645
H12   H     H_    0.353083 0.071257 0.086434 0.111194
O11   O     O_2   0.374123 0.237184 0.151894 -0.600537
C32   C     C_2   0.897767 0.361603 0.346545 0.449775
H13   H     H_    0.959042 0.361683 0.274686 0.038245
O12   O     O_2   0.798487 0.296129 0.356123 -0.534190

loop_
_geom_bond_atom_site_label_1
_geom_bond_atom_site_label_2
_ccdc_geom_bond_type
C29   O9    D    
C23   C24   S    
C15   H3    S    
C6    C7    A    
C19   N1    A    
C3    H7    S    
C16   H4    S    
C20   N1    A    
C9    C10   A    
C21   N2    A    
O6    Zn2   S    
C18   N2    A    
C2    C12   S    
C23   O8    A    
C32   H13   S    
C17   C18   A    
C31   H12   S    
C22   O5    A    
C7    C8    A    
O8    Zn2   S    
C23   O7    A    
O3    Zn1   S    
C30   H11   S    
C4    I1    S    
C25   C28   S    
C11   C13   A    
C26   C27   S    
C2    C27   T    
C17   H5    S    
C14   H2    S    
C4    C5    A    
O2    Zn2   S    
C6    H8    S    
C13   C22   S    
C29   H10   S    
C12   O4    A    
C30   O10   D    
C5    C6    A    
O7    Zn1   S    
C31   O11   D    
C20   C32   S    
C10   C11   A    
C15   C16   A    
C24   C28   T    
C7    C13   A    
C22   O6    A    
C1    C9    S    
C20   C21   A    
C10   C30   S    
C26   H1    S    
C32   O12   D    
C3    C8    A    
C1    O2    A    
C11   H9    S    
C18   C19   A    
O1    Zn1   S    
C25   C29   S    
C16   C17   A    
C12   O3    A    
C21   H6    S    
C1    O1    A    
N1    Zn2   S    
C25   C26   D    
C14   C15   A    
C14   C19   A    
O4    Zn2   S    
C3    C4    A    
O5    Zn1   S    
C5    C31   S    
C8    C9    A    
N2    Zn1   S    
