data_mof_unit_52996.cif
_audit_creation_date              2012-12-10T18:18:18-0500
_audit_creation_method            fapswitch 2.2
_symmetry_space_group_name_H-M    P1
_symmetry_Int_Tables_number       1
_space_group_crystal_system       triclinic
_cell_length_a                    14.080555
_cell_length_b                    14.979742
_cell_length_c                    15.605968
_cell_angle_alpha                 89.123502
_cell_angle_beta                  67.560049
_cell_angle_gamma                 89.025093
_cell_volume                      3041.83635947

loop_
_atom_site_label
_atom_site_type_symbol
_atom_type_description
_atom_site_fract_x
_atom_site_fract_y
_atom_site_fract_z
_atom_type_partial_charge
C1    C     C_R   0.498501 0.673013 0.501627 0.898282
C2    C     C_R   0.501499 0.326986 0.498373 0.898287
C3    C     C_R   0.474842 0.383038 0.040438 -0.240913
C4    C     C_R   0.525171 0.616960 0.959557 -0.240908
C5    C     C_R   0.402785 0.357546 0.004935 -0.023372
C6    C     C_R   0.597233 0.642452 0.995056 -0.023366
C7    C     C_R   0.416435 0.187360 0.554091 -0.259620
C8    C     C_R   0.583564 0.812640 0.445909 -0.259622
C9    C     C_R   0.504151 0.231387 0.496133 -0.101292
C10   C     C_R   0.495849 0.768612 0.503867 -0.101293
C11   C     C_R   0.591822 0.184605 0.437483 -0.066829
C12   C     C_R   0.408178 0.815394 0.562518 -0.066830
C13   C     C_R   0.590827 0.091066 0.438983 0.069804
C14   C     C_R   0.409172 0.908934 0.561018 0.069803
C15   C     C_R   0.501348 0.046634 0.498778 0.055146
C16   C     C_R   0.498652 0.953366 0.501223 0.055146
C17   C     C_R   0.414306 0.095352 0.556079 0.124181
C18   C     C_R   0.585694 0.904648 0.443921 0.124181
C19   C     C_R   0.676508 0.040719 0.382409 -0.197219
C20   C     C_R   0.323491 0.959280 0.617591 -0.197219
C21   C     C_R   0.673771 0.948294 0.385031 -0.201610
C22   C     C_R   0.326229 0.051706 0.614970 -0.201609
C23   C     C_R   0.435712 0.501702 0.675589 0.886397
C24   C     C_R   0.564288 0.498299 0.324411 0.886402
C25   C     C_R   0.179147 0.441707 0.556023 -0.065639
C26   C     C_R   0.820853 0.558293 0.443977 -0.065639
C27   C     C_R   0.224456 0.558907 0.443563 0.069343
C28   C     C_R   0.775544 0.441093 0.556437 0.069347
C29   C     C_R   0.124026 0.560253 0.442116 -0.027885
C30   C     C_R   0.875974 0.439747 0.557884 -0.027884
C31   C     C_R   0.050653 0.500188 0.499819 0.087956
C32   C     C_R   0.949347 0.499812 0.500181 0.087956
C33   C     C_R   0.078425 0.440480 0.557236 0.022413
C34   C     C_R   0.921575 0.559519 0.442764 0.022413
C35   C     C_R   0.094646 0.619580 0.384991 -0.187732
C36   C     C_R   0.905354 0.380420 0.615009 -0.187732
C37   C     C_R   0.994894 0.619087 0.385436 -0.189439
C38   C     C_R   0.005106 0.380913 0.614564 -0.189440
C39   C     C_R   0.395335 0.494357 0.776362 -0.102909
C40   C     C_R   0.604667 0.505645 0.223639 -0.102903
C41   C     C_R   0.307710 0.393960 0.903001 -0.001944
C42   C     C_R   0.692307 0.606039 0.096991 -0.001955
C43   C     C_R   0.316921 0.433804 0.819241 -0.245365
C44   C     C_R   0.683086 0.566201 0.180758 -0.245355
C45   C     C_R   0.449064 0.532250 0.826070 -0.064496
C46   C     C_R   0.550944 0.467744 0.173929 -0.064492
C47   C     C_R   0.436809 0.495791 0.914126 0.033046
C48   C     C_R   0.563200 0.504207 0.085871 0.033051
C49   C     C_R   0.378614 0.415970 0.943855 0.047592
C50   C     C_R   0.621402 0.584028 0.056139 0.047595
C51   C     C_R   0.490968 0.528478 0.967499 0.057612
C52   C     C_R   0.509040 0.471520 0.032499 0.057615
H1    H     H_    0.729174 0.590241 0.217504 0.157719
H2    H     H_    0.270832 0.409767 0.782494 0.157723
N1    N     N_R   0.249980 0.499930 0.499960 -0.119629
N2    N     N_R   0.750020 0.500070 0.500040 -0.119628
O1    O     O_R   0.419720 0.632140 0.499980 -0.610505
O2    O     O_R   0.580280 0.367860 0.500020 -0.610506
O3    O     O_R   0.580270 0.632160 0.499970 -0.621951
O4    O     O_R   0.419730 0.367840 0.500030 -0.621949
O5    O     O_R   0.373870 0.499980 0.632250 -0.620313
O6    O     O_R   0.626130 0.500020 0.367750 -0.620313
O7    O     O_R   0.534420 0.500000 0.632240 -0.604002
O8    O     O_R   0.465580 0.500000 0.367760 -0.604004
Zn1   Zn    Zn3+2 0.392800 0.499980 0.500010 0.973527
Zn2   Zn    Zn3+2 0.607200 0.500020 0.499990 0.973527
C53   C     C_1   0.367393 0.266513 0.023004 0.192779
N3    N     N_1   0.339632 0.193506 0.037702 -0.175648
C54   C     C_1   0.632632 0.733487 0.976983 0.192767
N4    N     N_1   0.660396 0.806496 0.962285 -0.175649
H3    H     H_    0.201329 0.396195 0.599891 0.130293
H4    H     H_    0.798671 0.603805 0.400109 0.130292
C55   C     C_1   0.300894 0.619974 0.385287 0.243817
N5    N     N_1   0.361650 0.669164 0.338145 -0.207689
C56   C     C_1   0.699105 0.380026 0.614713 0.243817
N6    N     N_1   0.638350 0.330836 0.661855 -0.207690
H5    H     H_    0.148442 0.666839 0.339503 0.153085
H6    H     H_    0.851557 0.333161 0.660497 0.153085
H7    H     H_    0.975115 0.665510 0.340759 0.143753
H8    H     H_    0.024885 0.334490 0.659241 0.143753
C57   C     C_1   0.471607 0.403064 0.221820 0.172965
N7    N     N_1   0.408475 0.351931 0.260595 -0.182353
C58   C     C_1   0.528418 0.596908 0.778177 0.172992
N8    N     N_1   0.591565 0.648019 0.739399 -0.182356
C59   C     C_1   0.226628 0.329884 0.942810 0.169456
N9    N     N_1   0.161312 0.278857 0.974425 -0.182135
C60   C     C_1   0.773411 0.670105 0.057167 0.169445
N10   N     N_1   0.838749 0.721121 0.025542 -0.182123
H9    H     H_    0.504560 0.332364 0.073977 0.162860
H10   H     H_    0.495455 0.667633 0.926015 0.162856
H11   H     H_    0.349959 0.225241 0.598749 0.149207
H12   H     H_    0.650041 0.774759 0.401251 0.149207
C61   C     C_1   0.680077 0.232674 0.374009 0.172396
N11   N     N_1   0.750259 0.271083 0.323487 -0.187696
C62   C     C_1   0.319923 0.767326 0.625992 0.172393
N12   N     N_1   0.249741 0.728917 0.676515 -0.187694
H13   H     H_    0.746199 0.072137 0.335985 0.163752
H14   H     H_    0.253801 0.927863 0.664016 0.163753
H15   H     H_    0.740699 0.910853 0.340883 0.150779
H16   H     H_    0.259301 0.089147 0.659117 0.150781

loop_
_geom_bond_atom_site_label_1
_geom_bond_atom_site_label_2
_ccdc_geom_bond_type
C6    C54   S    
C60   N10   T    
C61   N11   T    
C27   C29   A    
C34   C37   A    
C26   H4    S    
C55   N5    T    
C62   N12   T    
C5    C53   S    
C57   N7    T    
C19   H13   S    
C47   C49   A    
C59   N9    T    
C40   C46   A    
C37   H7    S    
C35   C37   A    
C1    O3    A    
O3    Zn2   S    
C21   H15   S    
C2    O4    A    
C15   C16   A    
C18   C21   A    
C7    C9    A    
C44   H1    S    
C26   C34   A    
C31   C32   A    
C7    C17   A    
C31   C33   A    
C12   C62   S    
C25   H3    S    
C39   C45   A    
C11   C61   S    
C23   O7    A    
O7    Zn2   S    
C24   O8    A    
C41   C43   A    
C5    C49   A    
C45   C58   S    
C42   C44   A    
C41   C49   A    
N1    Zn1   S    
O2    Zn2   S    
C4    H10   S    
C45   C47   A    
C28   N2    A    
C46   C48   A    
C22   H16   S    
O6    Zn2   S    
C4    C51   A    
C51   C52   A    
C14   C20   A    
C4    C6    A    
C13   C19   A    
C39   C43   A    
C35   H5    S    
C8    C18   A    
C53   N3    T    
C32   C34   A    
C56   N6    T    
C1    O1    A    
C46   C57   S    
C43   H2    S    
C58   N8    T    
C48   C52   A    
C7    H11   S    
C6    C50   A    
C9    C11   A    
C10   C12   A    
C42   C50   A    
C8    H12   S    
C16   C18   A    
C20   C22   A    
O4    Zn1   S    
C13   C15   A    
C14   C16   A    
C36   C38   A    
C23   O5    A    
C15   C17   A    
C24   O6    A    
C19   C21   A    
C1    C10   S    
C25   N1    A    
O1    Zn1   S    
C3    C5    A    
C26   N2    A    
C47   C51   A    
C3    C52   A    
C2    O2    A    
C41   C59   S    
C29   C35   A    
C17   C22   A    
C30   C36   A    
C3    H9    S    
O8    Zn1   S    
C28   C30   A    
C12   C14   A    
C29   C31   A    
C36   H6    S    
C30   C32   A    
C11   C13   A    
C28   C56   S    
C38   H8    S    
N2    Zn2   S    
C48   C50   A    
C24   C40   S    
C27   N1    A    
C54   N4    T    
O5    Zn1   S    
C40   C44   A    
C20   H14   S    
C8    C10   A    
C33   C38   A    
C42   C60   S    
C27   C55   S    
C2    C9    S    
C23   C39   S    
C25   C33   A    
