data_mof_unit_61290.cif
_audit_creation_date              2013-03-05T16:17:10-0500
_audit_creation_method            fapswitch 2.2
_symmetry_space_group_name_H-M    P1
_symmetry_Int_Tables_number       1
_space_group_crystal_system       triclinic
_cell_length_a                    25.771324
_cell_length_b                    34.465306
_cell_length_c                    34.516779
_cell_angle_alpha                 89.991854
_cell_angle_beta                  90.00023
_cell_angle_gamma                 89.999735
_cell_volume                      30658.3746605

loop_
_atom_site_label
_atom_site_type_symbol
_atom_site_description
_atom_site_fract_x
_atom_site_fract_y
_atom_site_fract_z
_atom_type_partial_charge
Zn1   Zn    Zn3+2 0.206240 0.217520 0.967530 1.037229
Zn2   Zn    Zn3+2 0.206240 0.782480 0.967530 1.036851
Zn3   Zn    Zn3+2 0.793760 0.217520 0.967530 1.036607
Zn4   Zn    Zn3+2 0.793760 0.782480 0.967530 1.037220
Zn5   Zn    Zn3+2 0.706240 0.217520 0.467530 1.037241
Zn6   Zn    Zn3+2 0.706240 0.782480 0.467530 1.038172
Zn7   Zn    Zn3+2 0.293760 0.217520 0.467530 1.036620
Zn8   Zn    Zn3+2 0.293760 0.782480 0.467530 1.038355
Zn9   Zn    Zn3+2 0.706240 0.717520 0.967530 1.036111
Zn10  Zn    Zn3+2 0.706240 0.282480 0.967530 1.038157
Zn11  Zn    Zn3+2 0.293760 0.717520 0.967530 1.035310
Zn12  Zn    Zn3+2 0.293760 0.282480 0.967530 1.038339
Zn13  Zn    Zn3+2 0.206240 0.717520 0.467530 1.037245
Zn14  Zn    Zn3+2 0.206240 0.282480 0.467530 1.038169
Zn15  Zn    Zn3+2 0.793760 0.717520 0.467530 1.036625
Zn16  Zn    Zn3+2 0.793760 0.282480 0.467530 1.038353
Zn17  Zn    Zn3+2 0.293780 0.217520 0.032500 0.978961
Zn18  Zn    Zn3+2 0.293780 0.782480 0.032500 0.980819
Zn19  Zn    Zn3+2 0.706220 0.217520 0.032500 0.979335
Zn20  Zn    Zn3+2 0.706220 0.782480 0.032500 0.981031
Zn21  Zn    Zn3+2 0.793780 0.217520 0.532500 0.978939
Zn22  Zn    Zn3+2 0.793780 0.782480 0.532500 0.979459
Zn23  Zn    Zn3+2 0.206220 0.217520 0.532500 0.979313
Zn24  Zn    Zn3+2 0.206220 0.782480 0.532500 0.979708
Zn25  Zn    Zn3+2 0.793780 0.717520 0.032500 0.980284
Zn26  Zn    Zn3+2 0.793780 0.282480 0.032500 0.979479
Zn27  Zn    Zn3+2 0.206220 0.717520 0.032500 0.980704
Zn28  Zn    Zn3+2 0.206220 0.282480 0.032500 0.979733
Zn29  Zn    Zn3+2 0.293780 0.717520 0.532500 0.978933
Zn30  Zn    Zn3+2 0.293780 0.282480 0.532500 0.979461
Zn31  Zn    Zn3+2 0.706220 0.717520 0.532500 0.979313
Zn32  Zn    Zn3+2 0.706220 0.282480 0.532500 0.979717
O1    O     O_3   0.250000 0.250000 0.000020 -0.501688
O2    O     O_3   0.250000 0.750000 0.000020 -0.501611
O3    O     O_3   0.750000 0.250000 0.000020 -0.501706
O4    O     O_3   0.750000 0.750000 0.000020 -0.501632
O5    O     O_3   0.750000 0.250000 0.500020 -0.501687
O6    O     O_3   0.750000 0.750000 0.500020 -0.501708
O7    O     O_3   0.250000 0.250000 0.500020 -0.501703
O8    O     O_3   0.250000 0.750000 0.500020 -0.501687
O9    O     O_R   0.366860 0.272740 0.977280 -0.626761
O10   O     O_R   0.366860 0.727260 0.977280 -0.640604
O11   O     O_R   0.633140 0.272740 0.977280 -0.640027
O12   O     O_R   0.633140 0.727260 0.977280 -0.627411
O13   O     O_R   0.866860 0.272740 0.477280 -0.626755
O14   O     O_R   0.866860 0.727260 0.477280 -0.636863
O15   O     O_R   0.133140 0.272740 0.477280 -0.640021
O16   O     O_R   0.133140 0.727260 0.477280 -0.623671
O17   O     O_R   0.866860 0.772740 0.977280 -0.630436
O18   O     O_R   0.866860 0.227260 0.977280 -0.636869
O19   O     O_R   0.133140 0.772740 0.977280 -0.643729
O20   O     O_R   0.133140 0.227260 0.977280 -0.623672
O21   O     O_R   0.366860 0.772740 0.477280 -0.626753
O22   O     O_R   0.366860 0.227260 0.477280 -0.636862
O23   O     O_R   0.633140 0.772740 0.477280 -0.640018
O24   O     O_R   0.633140 0.227260 0.477280 -0.623666
O25   O     O_R   0.280650 0.163280 0.022750 -0.641846
O26   O     O_R   0.280650 0.836720 0.022750 -0.646268
O27   O     O_R   0.719350 0.163280 0.022750 -0.644293
O28   O     O_R   0.719350 0.836720 0.022750 -0.641935
O29   O     O_R   0.780650 0.163280 0.522750 -0.641863
O30   O     O_R   0.780650 0.836720 0.522750 -0.646456
O31   O     O_R   0.219350 0.163280 0.522750 -0.644312
O32   O     O_R   0.219350 0.836720 0.522750 -0.642142
O33   O     O_R   0.780650 0.663280 0.022750 -0.641611
O34   O     O_R   0.780650 0.336720 0.022750 -0.646439
O35   O     O_R   0.219350 0.663280 0.022750 -0.644086
O36   O     O_R   0.219350 0.336720 0.022750 -0.642127
O37   O     O_R   0.280650 0.663280 0.522750 -0.641864
O38   O     O_R   0.280650 0.336720 0.522750 -0.646449
O39   O     O_R   0.719350 0.663280 0.522750 -0.644316
O40   O     O_R   0.719350 0.336720 0.522750 -0.642136
O41   O     O_R   0.280650 0.227270 0.086750 -0.644209
O42   O     O_R   0.280650 0.772730 0.086750 -0.641714
O43   O     O_R   0.719350 0.227270 0.086750 -0.644110
O44   O     O_R   0.719350 0.772730 0.086750 -0.641463
O45   O     O_R   0.780650 0.227270 0.586750 -0.644213
O46   O     O_R   0.780650 0.772730 0.586750 -0.641790
O47   O     O_R   0.219350 0.227270 0.586750 -0.644114
O48   O     O_R   0.219350 0.772730 0.586750 -0.641526
O49   O     O_R   0.780650 0.727270 0.086750 -0.644156
O50   O     O_R   0.780650 0.272730 0.086750 -0.641800
O51   O     O_R   0.219350 0.727270 0.086750 -0.644033
O52   O     O_R   0.219350 0.272730 0.086750 -0.641524
O53   O     O_R   0.280650 0.727270 0.586750 -0.644215
O54   O     O_R   0.280650 0.272730 0.586750 -0.641803
O55   O     O_R   0.719350 0.727270 0.586750 -0.644103
O56   O     O_R   0.719350 0.272730 0.586750 -0.641528
O57   O     O_R   0.280640 0.272750 0.913290 -0.595899
O58   O     O_R   0.280640 0.727250 0.913290 -0.600412
O59   O     O_R   0.719360 0.272750 0.913290 -0.597377
O60   O     O_R   0.719360 0.727250 0.913290 -0.600171
O61   O     O_R   0.780640 0.272750 0.413290 -0.595894
O62   O     O_R   0.780640 0.727250 0.413290 -0.600323
O63   O     O_R   0.219360 0.272750 0.413290 -0.597373
O64   O     O_R   0.219360 0.727250 0.413290 -0.600201
O65   O     O_R   0.780640 0.772750 0.913290 -0.595858
O66   O     O_R   0.780640 0.227250 0.913290 -0.600322
O67   O     O_R   0.219360 0.772750 0.913290 -0.597446
O68   O     O_R   0.219360 0.227250 0.913290 -0.600202
O69   O     O_R   0.280640 0.772750 0.413290 -0.595893
O70   O     O_R   0.280640 0.227250 0.413290 -0.600317
O71   O     O_R   0.719360 0.772750 0.413290 -0.597373
O72   O     O_R   0.719360 0.227250 0.413290 -0.600199
O73   O     O_R   0.219380 0.163280 0.977280 -0.631368
O74   O     O_R   0.219380 0.836720 0.977280 -0.615364
O75   O     O_R   0.780620 0.163280 0.977280 -0.618930
O76   O     O_R   0.780620 0.836720 0.977280 -0.630240
O77   O     O_R   0.719380 0.163280 0.477280 -0.631361
O78   O     O_R   0.719380 0.836720 0.477280 -0.615116
O79   O     O_R   0.280620 0.163280 0.477280 -0.618923
O80   O     O_R   0.280620 0.836720 0.477280 -0.629892
O81   O     O_R   0.719380 0.663280 0.977280 -0.631715
O82   O     O_R   0.719380 0.336720 0.977280 -0.615128
O83   O     O_R   0.280620 0.663280 0.977280 -0.619175
O84   O     O_R   0.280620 0.336720 0.977280 -0.629908
O85   O     O_R   0.219380 0.663280 0.477280 -0.631355
O86   O     O_R   0.219380 0.336720 0.477280 -0.615115
O87   O     O_R   0.780620 0.663280 0.477280 -0.618918
O88   O     O_R   0.780620 0.336720 0.477280 -0.629895
O89   O     O_R   0.366860 0.227260 0.022750 -0.648890
O90   O     O_R   0.366860 0.772740 0.022750 -0.645070
O91   O     O_R   0.633140 0.227260 0.022750 -0.646045
O92   O     O_R   0.633140 0.772740 0.022750 -0.648454
O93   O     O_R   0.866860 0.227260 0.522750 -0.648897
O94   O     O_R   0.866860 0.772740 0.522750 -0.648253
O95   O     O_R   0.133140 0.227260 0.522750 -0.646053
O96   O     O_R   0.133140 0.772740 0.522750 -0.651190
O97   O     O_R   0.866860 0.727260 0.022750 -0.646091
O98   O     O_R   0.866860 0.272740 0.022750 -0.648250
O99   O     O_R   0.133140 0.727260 0.022750 -0.642783
O100  O     O_R   0.133140 0.272740 0.022750 -0.651183
O101  O     O_R   0.366860 0.727260 0.522750 -0.648901
O102  O     O_R   0.366860 0.272740 0.522750 -0.648257
O103  O     O_R   0.633140 0.727260 0.522750 -0.646051
O104  O     O_R   0.633140 0.272740 0.522750 -0.651188
C1    C     C_R   0.391382 0.249954 0.000040 0.762072
C2    C     C_R   0.391384 0.749993 0.999946 0.754741
C3    C     C_R   0.608614 0.249955 0.000041 0.754026
C4    C     C_R   0.608619 0.749997 0.999941 0.763579
C5    C     C_R   0.891382 0.249954 0.500039 0.762069
C6    C     C_R   0.891385 0.750059 0.500029 0.754981
C7    C     C_R   0.108614 0.249954 0.500040 0.754022
C8    C     C_R   0.108620 0.750059 0.500028 0.762857
C9    C     C_R   0.891382 0.750027 0.999963 0.762804
C10   C     C_R   0.891385 0.250055 0.000033 0.754979
C11   C     C_R   0.108614 0.750031 0.999967 0.753812
C12   C     C_R   0.108620 0.250056 0.000032 0.762854
C13   C     C_R   0.391382 0.749954 0.500040 0.762067
C14   C     C_R   0.391385 0.250055 0.500033 0.754977
C15   C     C_R   0.608614 0.749955 0.500041 0.754024
C16   C     C_R   0.608620 0.250056 0.500032 0.762853
C17   C     C_R   0.250078 0.144879 0.999955 0.816500
C18   C     C_R   0.249954 0.855119 0.000042 0.825418
C19   C     C_R   0.749905 0.144883 0.999941 0.826102
C20   C     C_R   0.750051 0.855123 0.000045 0.816345
C21   C     C_R   0.750077 0.144879 0.499956 0.816503
C22   C     C_R   0.749951 0.855119 0.500044 0.825350
C23   C     C_R   0.249906 0.144883 0.499941 0.826107
C24   C     C_R   0.250054 0.855123 0.500048 0.816297
C25   C     C_R   0.750079 0.644879 0.999955 0.816552
C26   C     C_R   0.749951 0.355119 0.000044 0.825365
C27   C     C_R   0.249904 0.644883 0.999940 0.826181
C28   C     C_R   0.250053 0.355123 0.000047 0.816312
C29   C     C_R   0.250077 0.644879 0.499956 0.816506
C30   C     C_R   0.249951 0.355119 0.500044 0.825353
C31   C     C_R   0.749906 0.644883 0.499941 0.826112
C32   C     C_R   0.750054 0.355123 0.500048 0.816301
C33   C     C_R   0.249994 0.249991 0.105223 0.842427
C34   C     C_R   0.250002 0.749996 0.105226 0.842242
C35   C     C_R   0.750002 0.249996 0.105226 0.842519
C36   C     C_R   0.749994 0.749991 0.105223 0.842124
C37   C     C_R   0.749994 0.249991 0.605223 0.842434
C38   C     C_R   0.750002 0.749996 0.605224 0.842515
C39   C     C_R   0.250002 0.249996 0.605226 0.842525
C40   C     C_R   0.249994 0.749991 0.605223 0.842437
C41   C     C_R   0.250003 0.249999 0.894977 0.923145
C42   C     C_R   0.249989 0.749991 0.894971 0.919242
C43   C     C_R   0.749989 0.249991 0.894972 0.918738
C44   C     C_R   0.750003 0.749999 0.894975 0.923485
C45   C     C_R   0.750003 0.249999 0.394977 0.923137
C46   C     C_R   0.749989 0.749991 0.394972 0.918737
C47   C     C_R   0.249989 0.249991 0.394972 0.918727
C48   C     C_R   0.250003 0.749999 0.394977 0.923134
C49   C     C_R   0.296766 0.245987 0.791813 -0.087660
C50   C     C_R   0.245201 0.714898 0.791819 -0.088599
C51   C     C_R   0.754641 0.284887 0.791746 -0.090151
C52   C     C_R   0.703270 0.753815 0.791790 -0.087759
C53   C     C_R   0.796766 0.245987 0.291813 -0.087657
C54   C     C_R   0.745157 0.714901 0.291820 -0.088563
C55   C     C_R   0.254638 0.284888 0.291746 -0.090146
C56   C     C_R   0.203287 0.753934 0.291798 -0.087559
C57   C     C_R   0.796782 0.746106 0.791805 -0.087831
C58   C     C_R   0.745163 0.214901 0.791820 -0.088573
C59   C     C_R   0.254604 0.784890 0.791745 -0.090176
C60   C     C_R   0.203287 0.253933 0.791798 -0.087599
C61   C     C_R   0.296766 0.745987 0.291813 -0.087620
C62   C     C_R   0.245166 0.214901 0.291820 -0.088571
C63   C     C_R   0.754647 0.784887 0.291746 -0.090140
C64   C     C_R   0.703287 0.253933 0.291798 -0.087595
H1    H     H_    0.332894 0.242629 0.776101 0.187792
H2    H     H_    0.241185 0.687833 0.776126 0.188205
H3    H     H_    0.758676 0.311923 0.775997 0.188277
H4    H     H_    0.667134 0.757071 0.776065 0.187814
H5    H     H_    0.832894 0.242629 0.276101 0.187794
H6    H     H_    0.741108 0.687838 0.276128 0.188231
H7    H     H_    0.258672 0.311924 0.275997 0.188280
H8    H     H_    0.167166 0.757281 0.276074 0.187908
H9    H     H_    0.832925 0.742840 0.776092 0.187753
H10   H     H_    0.741119 0.187838 0.776128 0.188206
H11   H     H_    0.258610 0.811929 0.775996 0.188276
H12   H     H_    0.167166 0.257281 0.776074 0.187854
H13   H     H_    0.332894 0.742629 0.276101 0.187847
H14   H     H_    0.241123 0.187838 0.276127 0.188209
H15   H     H_    0.758687 0.811923 0.275998 0.188298
H16   H     H_    0.667166 0.257281 0.276074 0.187856
C65   C     C_R   0.297104 0.246162 0.832164 0.348154
C66   C     C_R   0.245437 0.714677 0.832171 0.345593
C67   C     C_R   0.754473 0.285179 0.832095 0.343753
C68   C     C_R   0.702915 0.753671 0.832140 0.348572
C69   C     C_R   0.797104 0.246162 0.332164 0.348160
C70   C     C_R   0.745393 0.714680 0.332173 0.345679
C71   C     C_R   0.254470 0.285179 0.332095 0.343759
C72   C     C_R   0.202932 0.753792 0.332149 0.348871
C73   C     C_R   0.797121 0.746283 0.832155 0.347850
C74   C     C_R   0.745398 0.214680 0.832173 0.345668
C75   C     C_R   0.254434 0.785182 0.832093 0.343672
C76   C     C_R   0.202932 0.253792 0.832149 0.348866
C77   C     C_R   0.297104 0.746162 0.332164 0.348160
C78   C     C_R   0.245401 0.214680 0.332172 0.345674
C79   C     C_R   0.754479 0.785179 0.332095 0.343765
C80   C     C_R   0.702932 0.253792 0.332149 0.348871
C81   C     C_R   0.250015 0.249989 0.852639 -0.200257
C82   C     C_R   0.249948 0.749951 0.852624 -0.207735
C83   C     C_R   0.749948 0.249951 0.852625 -0.207546
C84   C     C_R   0.750014 0.749989 0.852634 -0.200665
C85   C     C_R   0.750015 0.249989 0.352639 -0.200256
C86   C     C_R   0.749948 0.749951 0.352625 -0.207550
C87   C     C_R   0.249948 0.249951 0.352624 -0.207549
C88   C     C_R   0.250014 0.749989 0.352639 -0.200273
C89   C     C_R   0.250031 0.249954 0.771607 0.049018
C90   C     C_R   0.249885 0.749878 0.771587 0.050434
C91   C     C_R   0.749885 0.249878 0.771588 0.050383
C92   C     C_R   0.750030 0.749954 0.771600 0.049199
C93   C     C_R   0.750031 0.249954 0.271607 0.049010
C94   C     C_R   0.749885 0.749878 0.271588 0.050336
C95   C     C_R   0.249885 0.249878 0.271588 0.050377
C96   C     C_R   0.250031 0.749954 0.271607 0.048977
C97   C     C_R   0.224222 0.220018 0.708592 0.291687
C98   C     C_R   0.209433 0.768690 0.708576 0.291851
C99   C     C_R   0.790329 0.231037 0.708586 0.292219
C100  C     C_R   0.775740 0.779954 0.708588 0.290981
C101  C     C_R   0.724222 0.220018 0.208592 0.291674
C102  C     C_R   0.709450 0.768711 0.208577 0.291718
C103  C     C_R   0.290331 0.231039 0.208586 0.292210
C104  C     C_R   0.275851 0.779900 0.208594 0.290896
C105  C     C_R   0.724331 0.719966 0.708586 0.291722
C106  C     C_R   0.709446 0.268705 0.708577 0.291801
C107  C     C_R   0.290342 0.731052 0.708585 0.292272
C108  C     C_R   0.275851 0.279900 0.708594 0.290950
C109  C     C_R   0.224221 0.720019 0.208592 0.291634
C110  C     C_R   0.209444 0.268702 0.208577 0.291791
C111  C     C_R   0.790323 0.731029 0.208586 0.292138
C112  C     C_R   0.775850 0.279900 0.208594 0.290936
C113  C     C_R   0.223759 0.220868 0.668113 -0.238210
C114  C     C_R   0.210587 0.769086 0.668099 -0.236904
C115  C     C_R   0.789255 0.230732 0.668107 -0.239126
C116  C     C_R   0.776186 0.779128 0.668110 -0.236030
C117  C     C_R   0.723759 0.220868 0.168113 -0.238202
C118  C     C_R   0.710603 0.769106 0.168100 -0.236688
C119  C     C_R   0.289257 0.230735 0.168107 -0.239119
C120  C     C_R   0.276290 0.779075 0.168115 -0.235789
C121  C     C_R   0.723862 0.720816 0.668108 -0.238201
C122  C     C_R   0.710599 0.269100 0.668100 -0.236896
C123  C     C_R   0.289268 0.730746 0.668106 -0.239140
C124  C     C_R   0.276290 0.279076 0.668115 -0.236037
C125  C     C_R   0.223758 0.720869 0.168113 -0.237962
C126  C     C_R   0.210597 0.269097 0.168100 -0.236889
C127  C     C_R   0.789250 0.730726 0.168107 -0.238919
C128  C     C_R   0.776290 0.279076 0.168115 -0.236027
H17   H     H_    0.204086 0.197947 0.652451 0.207888
H18   H     H_    0.179625 0.783432 0.652430 0.207537
H19   H     H_    0.820234 0.216404 0.652446 0.207236
H20   H     H_    0.795769 0.802098 0.652449 0.209325
H21   H     H_    0.704086 0.197947 0.152451 0.207896
H22   H     H_    0.679654 0.783468 0.152431 0.207774
H23   H     H_    0.320238 0.216408 0.152446 0.207240
H24   H     H_    0.295959 0.802005 0.152455 0.209498
H25   H     H_    0.704274 0.697855 0.652444 0.207851
H26   H     H_    0.679647 0.283457 0.652431 0.207548
H27   H     H_    0.320256 0.716430 0.652444 0.207225
H28   H     H_    0.295958 0.302006 0.652455 0.209353
H29   H     H_    0.204084 0.697947 0.152451 0.208036
H30   H     H_    0.179643 0.283453 0.152431 0.207552
H31   H     H_    0.820226 0.716392 0.152447 0.207460
H32   H     H_    0.795958 0.302006 0.152455 0.209361
C129  C     C_R   0.250015 0.249981 0.647759 -0.125050
C130  C     C_R   0.249954 0.749947 0.647751 -0.123637
C131  C     C_R   0.749954 0.249947 0.647752 -0.123633
C132  C     C_R   0.750015 0.749981 0.647756 -0.125029
C133  C     C_R   0.750015 0.249981 0.147759 -0.125053
C134  C     C_R   0.749953 0.749947 0.147752 -0.123694
C135  C     C_R   0.249954 0.249947 0.147752 -0.123634
C136  C     C_R   0.250015 0.749981 0.147759 -0.125093
C137  C     C_R   0.250039 0.249955 0.729081 -0.125476
C138  C     C_R   0.249874 0.749856 0.729065 -0.125222
C139  C     C_R   0.749874 0.249856 0.729066 -0.125222
C140  C     C_R   0.750039 0.749955 0.729074 -0.125483
C141  C     C_R   0.750039 0.249955 0.229081 -0.125474
C142  C     C_R   0.749873 0.749856 0.229067 -0.125219
C143  C     C_R   0.249874 0.249856 0.229066 -0.125221
C144  C     C_R   0.250039 0.749955 0.229081 -0.125461
C145  C     C_3   0.030001 0.261157 0.959449 -0.353425
C146  C     C_3   0.029763 0.779981 0.969942 -0.361964
C147  C     C_3   0.970026 0.261157 0.959453 -0.381384
C148  C     C_3   0.970220 0.779974 0.969932 -0.353078
C149  C     C_3   0.530001 0.261157 0.459450 -0.353426
C150  C     C_3   0.529973 0.738797 0.459487 -0.380862
C151  C     C_3   0.470026 0.261157 0.459453 -0.381386
C152  C     C_3   0.470000 0.738796 0.459484 -0.353047
C153  C     C_3   0.529779 0.720455 0.969522 -0.352714
C154  C     C_3   0.529972 0.238799 0.959486 -0.380871
C155  C     C_3   0.470237 0.720448 0.969531 -0.361900
C156  C     C_3   0.470000 0.238799 0.959483 -0.353050
C157  C     C_3   0.030001 0.761062 0.459415 -0.353333
C158  C     C_3   0.029972 0.238806 0.459484 -0.380870
C159  C     C_3   0.970026 0.761062 0.459418 -0.381337
C160  C     C_3   0.970000 0.238805 0.459481 -0.353046
H33   H     H_    0.044298 0.240133 0.937424 0.220623
H34   H     H_    0.043973 0.809637 0.977104 0.193873
H35   H     H_    0.955739 0.240126 0.937432 0.207276
H36   H     H_    0.955995 0.809628 0.977082 0.191899
H37   H     H_    0.544298 0.240133 0.437424 0.220631
H38   H     H_    0.544260 0.759791 0.437426 0.207151
H39   H     H_    0.455739 0.240127 0.437433 0.207284
H40   H     H_    0.455701 0.759784 0.437418 0.220537
H41   H     H_    0.543993 0.690705 0.976301 0.194572
H42   H     H_    0.544260 0.259794 0.937427 0.207137
H43   H     H_    0.456039 0.690697 0.976323 0.196491
H44   H     H_    0.455702 0.259788 0.937419 0.220524
H45   H     H_    0.044296 0.739982 0.437442 0.220638
H46   H     H_    0.044260 0.259805 0.437428 0.207148
H47   H     H_    0.955741 0.739975 0.437450 0.207342
H48   H     H_    0.955702 0.259798 0.437420 0.220532
H49   H     H_    0.044482 0.290378 0.950984 0.178535
H50   H     H_    0.043990 0.772716 0.940358 0.203381
H51   H     H_    0.955549 0.290379 0.950989 0.173216
H52   H     H_    0.956002 0.772694 0.940346 0.217616
H53   H     H_    0.544482 0.290378 0.450984 0.178521
H54   H     H_    0.544449 0.709560 0.451079 0.174127
H55   H     H_    0.455549 0.290379 0.450989 0.173202
H56   H     H_    0.455518 0.709561 0.451075 0.179356
H57   H     H_    0.544006 0.728115 0.940028 0.217191
H58   H     H_    0.544449 0.209564 0.951077 0.174137
H59   H     H_    0.456000 0.728094 0.940040 0.202687
H60   H     H_    0.455518 0.209564 0.951073 0.179369
H61   H     H_    0.044483 0.790262 0.450875 0.178603
H62   H     H_    0.044449 0.209572 0.451070 0.174123
H63   H     H_    0.955548 0.790263 0.450879 0.173228
H64   H     H_    0.955518 0.209573 0.451065 0.179360
H65   H     H_    0.044275 0.187368 0.990296 0.202781
H66   H     H_    0.044450 0.790498 0.048826 0.167562
H67   H     H_    0.955734 0.187366 0.990304 0.202160
H68   H     H_    0.955535 0.790500 0.048818 0.167712
H69   H     H_    0.544275 0.187368 0.490296 0.202795
H70   H     H_    0.544268 0.812642 0.490191 0.200294
H71   H     H_    0.455734 0.187366 0.490304 0.202174
H72   H     H_    0.455723 0.812640 0.490182 0.200883
H73   H     H_    0.544461 0.708940 0.048288 0.168882
H74   H     H_    0.544268 0.312642 0.990194 0.200276
H75   H     H_    0.455554 0.708943 0.048296 0.168794
H76   H     H_    0.455723 0.312640 0.990186 0.200866
H77   H     H_    0.044276 0.687349 0.490447 0.202708
H78   H     H_    0.044268 0.312643 0.490205 0.200283
H79   H     H_    0.955733 0.687347 0.490455 0.202094
H80   H     H_    0.955722 0.312641 0.490197 0.200872
C161  C     C_3   0.029989 0.209492 0.011221 -0.382230
C162  C     C_3   0.029975 0.761248 0.040466 -0.382032
C163  C     C_3   0.970025 0.209493 0.011225 -0.378729
C164  C     C_3   0.970011 0.761249 0.040462 -0.387366
C165  C     C_3   0.529989 0.209492 0.511221 -0.382215
C166  C     C_3   0.529976 0.790551 0.511155 -0.380173
C167  C     C_3   0.470025 0.209493 0.511225 -0.378713
C168  C     C_3   0.470010 0.790551 0.511152 -0.383552
C169  C     C_3   0.529989 0.738299 0.040288 -0.387307
C170  C     C_3   0.529976 0.290550 0.011158 -0.380191
C171  C     C_3   0.470026 0.738300 0.040291 -0.381879
C172  C     C_3   0.470010 0.290550 0.011154 -0.383570
C173  C     C_3   0.029989 0.709526 0.511316 -0.382274
C174  C     C_3   0.029976 0.290547 0.511164 -0.380178
C175  C     C_3   0.970025 0.709527 0.511320 -0.378762
C176  C     C_3   0.970010 0.290548 0.511161 -0.383558
C177  C     C_3   0.029775 0.280122 0.029907 -0.372314
C178  C     C_3   0.029979 0.709416 0.988875 -0.384130
C179  C     C_3   0.970236 0.280121 0.029909 -0.369780
C180  C     C_3   0.970010 0.709415 0.988869 -0.379739
C181  C     C_3   0.529775 0.280122 0.529907 -0.372332
C182  C     C_3   0.529763 0.719955 0.529983 -0.368906
C183  C     C_3   0.470236 0.280121 0.529909 -0.369797
C184  C     C_3   0.470227 0.719954 0.529982 -0.371508
C185  C     C_3   0.529991 0.790774 0.989321 -0.381783
C186  C     C_3   0.529763 0.219953 0.029981 -0.368882
C187  C     C_3   0.470019 0.790774 0.989327 -0.386156
C188  C     C_3   0.470227 0.219952 0.029980 -0.371482
C189  C     C_3   0.029775 0.780205 0.529825 -0.372350
C190  C     C_3   0.029763 0.219947 0.529975 -0.368901
C191  C     C_3   0.970236 0.780204 0.529826 -0.369820
C192  C     C_3   0.970227 0.219947 0.529974 -0.371500
C193  C     C_3   0.050898 0.250202 0.000144 0.145456
C194  C     C_3   0.050887 0.750161 0.999819 0.157576
C195  C     C_3   0.949114 0.250201 0.000146 0.156118
C196  C     C_3   0.949104 0.750159 0.999814 0.152683
C197  C     C_3   0.550898 0.250202 0.500144 0.145458
C198  C     C_3   0.550885 0.749820 0.500158 0.156595
C199  C     C_3   0.449114 0.250201 0.500146 0.156120
C200  C     C_3   0.449102 0.749820 0.500156 0.145893
C201  C     C_3   0.550897 0.749890 0.999774 0.153693
C202  C     C_3   0.550885 0.249820 0.000158 0.156586
C203  C     C_3   0.449113 0.749887 0.999779 0.158614
C204  C     C_3   0.449102 0.249820 0.000156 0.145880
C205  C     C_3   0.050898 0.750208 0.500137 0.145464
C206  C     C_3   0.050885 0.249820 0.500157 0.156593
C207  C     C_3   0.949114 0.750208 0.500139 0.156140
C208  C     C_3   0.949102 0.249819 0.500156 0.145885
H81   H     H_    0.043990 0.272955 0.059521 0.192609
H82   H     H_    0.044264 0.687356 0.009874 0.192805
H83   H     H_    0.956024 0.272953 0.059522 0.192632
H84   H     H_    0.955719 0.687352 0.009862 0.191452
H85   H     H_    0.543990 0.272955 0.559521 0.192606
H86   H     H_    0.543978 0.727177 0.559582 0.192412
H87   H     H_    0.456024 0.272953 0.559522 0.192628
H88   H     H_    0.456009 0.727175 0.559581 0.192395
H89   H     H_    0.544276 0.812576 0.010585 0.188908
H90   H     H_    0.543978 0.227173 0.059580 0.192429
H91   H     H_    0.455741 0.812573 0.010597 0.190209
H92   H     H_    0.456009 0.227171 0.059578 0.192411
H93   H     H_    0.043988 0.773114 0.559458 0.192679
H94   H     H_    0.043978 0.227162 0.559575 0.192431
H95   H     H_    0.956025 0.773112 0.559459 0.192699
H96   H     H_    0.956010 0.227160 0.559574 0.192414
H97   H     H_    0.043995 0.309751 0.022639 0.185951
H98   H     H_    0.044461 0.700951 0.959696 0.177438
H99   H     H_    0.956013 0.309750 0.022641 0.185786
H100  H     H_    0.955536 0.700957 0.959685 0.185043
H101  H     H_    0.543995 0.309751 0.522639 0.185932
H102  H     H_    0.543983 0.690312 0.522777 0.188920
H103  H     H_    0.456013 0.309750 0.522641 0.185767
H104  H     H_    0.456009 0.690311 0.522775 0.189043
H105  H     H_    0.544469 0.799601 0.960241 0.184146
H106  H     H_    0.543983 0.190312 0.022773 0.188941
H107  H     H_    0.455533 0.799607 0.960252 0.176713
H108  H     H_    0.456009 0.190310 0.022771 0.189065
H109  H     H_    0.043997 0.809815 0.522480 0.185842
H110  H     H_    0.043983 0.190307 0.522762 0.188913
H111  H     H_    0.956011 0.809814 0.522482 0.185677
H112  H     H_    0.956009 0.190306 0.522760 0.189037
H113  H     H_    0.044467 0.201115 0.040428 0.168278
H114  H     H_    0.044261 0.740289 0.062561 0.196212
H115  H     H_    0.955553 0.201119 0.040435 0.167926
H116  H     H_    0.955721 0.740293 0.062559 0.196099
H117  H     H_    0.544467 0.201115 0.540428 0.168283
H118  H     H_    0.544450 0.798975 0.540348 0.167084
H119  H     H_    0.455553 0.201119 0.540435 0.167930
H120  H     H_    0.455531 0.798979 0.540342 0.167501
H121  H     H_    0.544287 0.758978 0.062639 0.195350
H122  H     H_    0.544450 0.298972 0.040350 0.167087
H123  H     H_    0.455733 0.758982 0.062641 0.195446
H124  H     H_    0.455531 0.298976 0.040344 0.167504
H125  H     H_    0.044467 0.701224 0.540545 0.168297
H126  H     H_    0.044449 0.298965 0.540359 0.167090
H127  H     H_    0.955554 0.701228 0.540552 0.167943
H128  H     H_    0.955531 0.298969 0.540352 0.167507
C209  C     C_R   0.297410 0.457989 0.991894 0.461486
C210  C     C_R   0.260281 0.542103 0.964300 0.458694
C211  C     C_R   0.702448 0.457957 0.992166 0.462180
C212  C     C_R   0.739337 0.542061 0.964459 0.461596
C213  C     C_R   0.797421 0.457988 0.491908 0.461491
C214  C     C_R   0.760301 0.542101 0.464309 0.458635
C215  C     C_R   0.202436 0.457955 0.492182 0.462183
C216  C     C_R   0.239316 0.542059 0.464469 0.461535
C217  C     C_R   0.797393 0.957992 0.991877 0.461507
C218  C     C_R   0.760259 0.042105 0.964291 0.458703
C219  C     C_R   0.202463 0.957959 0.992152 0.462189
C220  C     C_R   0.239354 0.042063 0.964451 0.461601
C221  C     C_R   0.297421 0.957988 0.491909 0.461489
C222  C     C_R   0.260302 0.042101 0.464309 0.458634
C223  C     C_R   0.702436 0.957955 0.492182 0.462187
C224  C     C_R   0.739316 0.042059 0.464469 0.461534
C225  C     C_R   0.296482 0.417546 0.991656 -0.211289
C226  C     C_R   0.260750 0.582545 0.965087 -0.194545
C227  C     C_R   0.703420 0.417516 0.991858 -0.203055
C228  C     C_R   0.738895 0.582501 0.965217 -0.209619
C229  C     C_R   0.796490 0.417544 0.491666 -0.211310
C230  C     C_R   0.760766 0.582543 0.465094 -0.194261
C231  C     C_R   0.203412 0.417514 0.491870 -0.203087
C232  C     C_R   0.238877 0.582500 0.465224 -0.209328
C233  C     C_R   0.796469 0.917549 0.991641 -0.211590
C234  C     C_R   0.760736 0.082547 0.965082 -0.194269
C235  C     C_R   0.203432 0.917519 0.991846 -0.203316
C236  C     C_R   0.238905 0.082503 0.965213 -0.209334
C237  C     C_R   0.296490 0.917544 0.491667 -0.211308
C238  C     C_R   0.260767 0.082543 0.465094 -0.194271
C239  C     C_R   0.703412 0.917514 0.491870 -0.203083
C240  C     C_R   0.738877 0.082500 0.465224 -0.209335
H129  H     H_    0.331933 0.401731 0.985683 0.188877
H130  H     H_    0.268693 0.598420 0.938639 0.215659
H131  H     H_    0.667953 0.401687 0.985978 0.188039
H132  H     H_    0.730756 0.598350 0.938790 0.198141
H133  H     H_    0.831941 0.401728 0.485697 0.188876
H134  H     H_    0.768713 0.598417 0.438646 0.215731
H135  H     H_    0.167945 0.401683 0.485994 0.188036
H136  H     H_    0.230733 0.598347 0.438797 0.198247
H137  H     H_    0.831920 0.901736 0.985664 0.188567
H138  H     H_    0.768675 0.098423 0.938635 0.215726
H139  H     H_    0.167965 0.901691 0.985964 0.187760
H140  H     H_    0.230766 0.098353 0.938786 0.198229
H141  H     H_    0.331941 0.901728 0.485699 0.188876
H142  H     H_    0.268715 0.098417 0.438647 0.215731
H143  H     H_    0.667945 0.901683 0.485994 0.188037
H144  H     H_    0.730733 0.098347 0.438797 0.198244
C241  C     C_R   0.250535 0.397535 0.000205 -0.065540
C242  C     C_R   0.249530 0.602482 0.999473 -0.081093
C243  C     C_R   0.749437 0.397524 0.000232 -0.062842
C244  C     C_R   0.750398 0.602470 0.999533 -0.073802
C245  C     C_R   0.750539 0.397535 0.500208 -0.065509
C246  C     C_R   0.749536 0.602482 0.499477 -0.081093
C247  C     C_R   0.249433 0.397524 0.500235 -0.062807
C248  C     C_R   0.250391 0.602470 0.499537 -0.073808
C249  C     C_R   0.750527 0.897535 0.000198 -0.065515
C250  C     C_R   0.749527 0.102483 0.999471 -0.081088
C251  C     C_R   0.249445 0.897524 0.000225 -0.062828
C252  C     C_R   0.250401 0.102470 0.999531 -0.073807
C253  C     C_R   0.250539 0.897535 0.500208 -0.065505
C254  C     C_R   0.249536 0.102482 0.499477 -0.081088
C255  C     C_R   0.749433 0.897524 0.500235 -0.062806
C256  C     C_R   0.750392 0.102470 0.499537 -0.073809
C257  C     C_R   0.205304 0.418243 0.009081 -0.162745
C258  C     C_R   0.237659 0.581717 0.033212 -0.169145
C259  C     C_R   0.794696 0.418243 0.008997 -0.158906
C260  C     C_R   0.762491 0.581725 0.033243 -0.167564
C261  C     C_R   0.705308 0.418244 0.509081 -0.162755
C262  C     C_R   0.737661 0.581718 0.533216 -0.169406
C263  C     C_R   0.294693 0.418244 0.508996 -0.158916
C264  C     C_R   0.262491 0.581726 0.533247 -0.167824
C265  C     C_R   0.705294 0.918241 0.009076 -0.162504
C266  C     C_R   0.737659 0.081715 0.033210 -0.169376
C267  C     C_R   0.294707 0.918241 0.008989 -0.158684
C268  C     C_R   0.262495 0.081723 0.033240 -0.167786
C269  C     C_R   0.205307 0.918244 0.509080 -0.162763
C270  C     C_R   0.237659 0.081718 0.533216 -0.169410
C271  C     C_R   0.794693 0.918244 0.508996 -0.158910
C272  C     C_R   0.762491 0.081726 0.533247 -0.167818
H145  H     H_    0.169526 0.403197 0.015844 0.168550
H146  H     H_    0.228753 0.596717 0.059977 0.175741
H147  H     H_    0.830525 0.403205 0.015626 0.168196
H148  H     H_    0.771609 0.596741 0.059958 0.175750
H149  H     H_    0.669528 0.403199 0.515838 0.168513
H150  H     H_    0.728748 0.596719 0.559979 0.175666
H151  H     H_    0.330525 0.403207 0.515618 0.168157
H152  H     H_    0.271617 0.596744 0.559959 0.175665
H153  H     H_    0.669519 0.903193 0.015841 0.168804
H154  H     H_    0.728761 0.096714 0.059976 0.175665
H155  H     H_    0.330535 0.903201 0.015618 0.168446
H156  H     H_    0.271608 0.096739 0.059956 0.175674
H157  H     H_    0.169527 0.903199 0.515836 0.168508
H158  H     H_    0.228745 0.096719 0.559978 0.175662
H159  H     H_    0.830525 0.903207 0.515618 0.168155
H160  H     H_    0.771617 0.096743 0.559959 0.175671
C273  C     C_R   0.205642 0.458620 0.008339 -0.203115
C274  C     C_R   0.238511 0.541341 0.032863 -0.201719
C275  C     C_R   0.794313 0.458619 0.008311 -0.201923
C276  C     C_R   0.761604 0.541348 0.032932 -0.204377
C277  C     C_R   0.705650 0.458621 0.508342 -0.203219
C278  C     C_R   0.738516 0.541342 0.532869 -0.201769
C279  C     C_R   0.294306 0.458620 0.508312 -0.202035
C280  C     C_R   0.261601 0.541349 0.532938 -0.204441
C281  C     C_R   0.705629 0.958618 0.008331 -0.203118
C282  C     C_R   0.738504 0.041340 0.032857 -0.201731
C283  C     C_R   0.294327 0.958618 0.008301 -0.201924
C284  C     C_R   0.261615 0.041346 0.032925 -0.204392
C285  C     C_R   0.205649 0.958621 0.508341 -0.203224
C286  C     C_R   0.238514 0.041342 0.532869 -0.201782
C287  C     C_R   0.794306 0.958620 0.508312 -0.202031
C288  C     C_R   0.761601 0.041349 0.532938 -0.204434
H161  H     H_    0.170143 0.474270 0.014555 0.168022
H162  H     H_    0.230255 0.525642 0.059354 0.173653
H163  H     H_    0.829836 0.474281 0.014423 0.167720
H164  H     H_    0.770049 0.525666 0.059400 0.173331
H165  H     H_    0.670150 0.474272 0.514554 0.167919
H166  H     H_    0.730254 0.525644 0.559360 0.173622
H167  H     H_    0.329829 0.474283 0.514420 0.167615
H168  H     H_    0.270052 0.525668 0.559406 0.173289
H169  H     H_    0.670129 0.974267 0.014550 0.168044
H170  H     H_    0.730251 0.025639 0.059347 0.173650
H171  H     H_    0.329851 0.974278 0.014413 0.167741
H172  H     H_    0.270059 0.025663 0.059393 0.173326
H173  H     H_    0.170149 0.974272 0.514552 0.167917
H174  H     H_    0.230251 0.025644 0.559359 0.173614
H175  H     H_    0.829829 0.974283 0.514420 0.167616
H176  H     H_    0.770052 0.025668 0.559405 0.173297
C289  C     C_R   0.251367 0.478727 0.999346 0.037265
C290  C     C_R   0.250378 0.521299 0.998655 0.029554
C291  C     C_R   0.748514 0.478711 0.999494 0.036381
C292  C     C_R   0.749479 0.521281 0.998788 0.031817
C293  C     C_R   0.751378 0.478727 0.499356 0.037257
C294  C     C_R   0.750391 0.521298 0.498664 0.029537
C295  C     C_R   0.248504 0.478711 0.499504 0.036374
C296  C     C_R   0.249466 0.521281 0.498797 0.031808
C297  C     C_R   0.751350 0.978727 0.999334 0.037285
C298  C     C_R   0.750360 0.021299 0.998646 0.029546
C299  C     C_R   0.248531 0.978711 0.999483 0.036399
C300  C     C_R   0.249496 0.021282 0.998779 0.031814
C301  C     C_R   0.251378 0.978727 0.499356 0.037259
C302  C     C_R   0.250391 0.021298 0.498664 0.029545
C303  C     C_R   0.748503 0.978711 0.499504 0.036373
C304  C     C_R   0.749466 0.021281 0.498797 0.031804
Cl1   Cl    Cl    0.357282 0.481577 0.984577 -0.507761
Cl2   Cl    Cl    0.269845 0.518605 0.919528 -0.479251
Cl3   Cl    Cl    0.642505 0.481518 0.985089 -0.506601
Cl4   Cl    Cl    0.729458 0.518530 0.919741 -0.482544
Cl5   Cl    Cl    0.857297 0.481573 0.484601 -0.507304
Cl6   Cl    Cl    0.769876 0.518602 0.419540 -0.479051
Cl7   Cl    Cl    0.142490 0.481514 0.485116 -0.506138
Cl8   Cl    Cl    0.229423 0.518526 0.419753 -0.482348
Cl9   Cl    Cl    0.857262 0.981582 0.984553 -0.507933
Cl10  Cl    Cl    0.769811 0.018610 0.919517 -0.479177
Cl11  Cl    Cl    0.142523 0.981522 0.985072 -0.506750
Cl12  Cl    Cl    0.229482 0.018535 0.919730 -0.482489
Cl13  Cl    Cl    0.357297 0.981573 0.484603 -0.507309
Cl14  Cl    Cl    0.269879 0.018601 0.419540 -0.479058
Cl15  Cl    Cl    0.642490 0.981514 0.485116 -0.506136
Cl16  Cl    Cl    0.729423 0.018526 0.419753 -0.482353
Cl17  Cl    Cl    0.357070 0.239885 0.855948 -0.561366
Cl18  Cl    Cl    0.237821 0.669770 0.855971 -0.539939
Cl19  Cl    Cl    0.762232 0.330114 0.855788 -0.521594
Cl20  Cl    Cl    0.642903 0.759801 0.855890 -0.558983
Cl21  Cl    Cl    0.857070 0.239886 0.355948 -0.561361
Cl22  Cl    Cl    0.737721 0.669780 0.355975 -0.539839
Cl23  Cl    Cl    0.262227 0.330115 0.355788 -0.521582
Cl24  Cl    Cl    0.142954 0.760078 0.355910 -0.560369
Cl25  Cl    Cl    0.857120 0.740162 0.855927 -0.559754
Cl26  Cl    Cl    0.737733 0.169779 0.855975 -0.539878
Cl27  Cl    Cl    0.262143 0.830123 0.855785 -0.521673
Cl28  Cl    Cl    0.142954 0.260079 0.855909 -0.560430
Cl29  Cl    Cl    0.357070 0.739885 0.355947 -0.561289
Cl30  Cl    Cl    0.237738 0.169779 0.355974 -0.539867
Cl31  Cl    Cl    0.762245 0.830113 0.355789 -0.521564
Cl32  Cl    Cl    0.642954 0.260078 0.355909 -0.560423
N1    N     N_R   0.199398 0.188175 0.728265 0.218049
O105  O     O_R   0.220903 0.172307 0.758478 -0.342213
O106  O     O_R   0.158715 0.171709 0.713145 -0.342496
N2    N     N_R   0.166445 0.786723 0.728246 0.217911
O107  O     O_R   0.145610 0.770399 0.758478 -0.346681
O108  O     O_R   0.143733 0.816855 0.713112 -0.342633
N3    N     N_R   0.833267 0.212942 0.728266 0.217933
O109  O     O_R   0.854120 0.229226 0.758508 -0.346424
O110  O     O_R   0.855935 0.182801 0.713123 -0.343864
N4    N     N_R   0.800454 0.811839 0.728261 0.218415
O111  O     O_R   0.778878 0.827671 0.758460 -0.340729
O112  O     O_R   0.841094 0.828376 0.713150 -0.341413
N5    N     N_R   0.699398 0.188175 0.228265 0.218057
O113  O     O_R   0.720903 0.172307 0.258478 -0.342191
O114  O     O_R   0.658715 0.171708 0.213145 -0.342436
N6    N     N_R   0.666480 0.786771 0.228248 0.218009
O115  O     O_R   0.645628 0.770458 0.258480 -0.346369
O116  O     O_R   0.643803 0.816919 0.213116 -0.342054
N7    N     N_R   0.333272 0.212948 0.228266 0.217938
O117  O     O_R   0.354122 0.229233 0.258508 -0.346414
O118  O     O_R   0.355943 0.182808 0.213122 -0.343810
N8    N     N_R   0.300688 0.811731 0.228268 0.218484
O119  O     O_R   0.279179 0.827604 0.258472 -0.340565
O120  O     O_R   0.341387 0.828185 0.213154 -0.340882
N9    N     N_R   0.699630 0.688069 0.728258 0.217997
O121  O     O_R   0.721203 0.672241 0.758465 -0.342342
O122  O     O_R   0.659004 0.671520 0.713142 -0.342619
N10   N     N_R   0.666470 0.286755 0.728248 0.217955
O123  O     O_R   0.645627 0.270441 0.758482 -0.346500
O124  O     O_R   0.643776 0.316894 0.713112 -0.342491
N11   N     N_R   0.333293 0.712974 0.728264 0.217887
O125  O     O_R   0.354138 0.729269 0.758504 -0.346623
O126  O     O_R   0.355979 0.682840 0.713123 -0.344008
N12   N     N_R   0.300688 0.311732 0.728268 0.218467
O127  O     O_R   0.279179 0.327604 0.758472 -0.340600
O128  O     O_R   0.341385 0.328186 0.713153 -0.341304
N13   N     N_R   0.199397 0.688175 0.228265 0.218066
O129  O     O_R   0.220903 0.672307 0.258478 -0.342180
O130  O     O_R   0.158713 0.671710 0.213146 -0.342068
N14   N     N_R   0.166466 0.286750 0.228248 0.217961
O131  O     O_R   0.145625 0.270435 0.258483 -0.346491
O132  O     O_R   0.143768 0.316887 0.213112 -0.342436
N15   N     N_R   0.833254 0.712925 0.228266 0.217980
O133  O     O_R   0.854121 0.729211 0.258503 -0.346297
O134  O     O_R   0.855898 0.682768 0.213131 -0.343415
N16   N     N_R   0.800687 0.311732 0.228268 0.218475
O135  O     O_R   0.779179 0.327604 0.258472 -0.340574
O136  O     O_R   0.841385 0.328186 0.213153 -0.341242

loop_
_geom_bond_atom_site_label_1
_geom_bond_atom_site_label_2
_geom_bond_distance
_ccdc_geom_bond_type
C216  Cl8   1.762218 S    
Zn29  O101  1.942422 S    
Zn4   O4    1.944805 S    
Zn5   O5    1.944987 S    
O98   C10   1.275055 A    
C55   C95   1.398309 A    
C89   C137  1.467888 S    
C119  C135  1.399246 A    
C60   C76   1.392821 A    
N9    O121  1.301386 A    
C22   C255  1.461581 S    
C111  N15   1.440403 S    
C182  H86   1.113548 S    
C151  H39   1.112999 S    
C17   C252  1.461721 S    
C66   Cl18  1.763107 S    
O88   C32   1.280832 A    
C20   C249  1.461822 S    
H73   C169  1.113148 S    
C244  C260  1.400713 A    
C178  H98   1.113029 S    
C246  C262  1.400643 A    
C269  C285  1.391860 A    
C70   Cl22  1.763106 S    
C219  C235  1.394070 A    
C165  C197  1.550809 S    
C114  C130  1.399215 A    
C217  C233  1.394119 A    
C254  C270  1.400644 A    
O15   C7    1.277992 A    
C50   H2    1.083704 S    
C225  H129  1.083660 S    
C11   C194  1.487722 S    
C63   C79   1.392741 A    
N16   O135  1.301385 A    
O60   C44   1.279802 A    
C192  C208  1.554157 S    
C222  C302  1.408969 A    
O61   C45   1.279822 A    
Zn18  O26   1.929306 S    
C175  H127  1.113045 S    
Zn24  O96   1.942436 S    
O62   C46   1.279810 A    
C216  C296  1.408889 A    
Zn7   O70   1.931757 S    
C64   H16   1.083705 S    
C227  H131  1.083663 S    
C192  H96   1.113542 S    
Zn11  O83   1.929354 S    
O97   C9    1.278109 A    
Zn26  O98   1.942436 S    
C155  H59   1.113646 S    
Zn2   O2    1.944795 S    
C276  C292  1.401829 A    
O72   C45   1.279766 A    
C66   C82   1.410702 A    
C188  H92   1.113541 S    
C189  H93   1.113557 S    
C280  H168  1.083509 S    
C166  C198  1.550880 S    
C121  H25   1.083308 S    
C118  H22   1.083325 S    
C160  H48   1.113077 S    
C214  Cl6   1.762149 S    
C124  C129  1.399261 A    
C55   C71   1.392738 A    
Zn29  O37   1.929402 S    
O36   C28   1.281525 A    
C219  Cl11  1.762221 S    
C18   C251  1.461588 S    
C218  Cl10  1.762148 S    
C266  H154  1.083293 S    
C241  C257  1.400750 A    
C284  H172  1.083507 S    
C191  H111  1.113554 S    
C181  H101  1.113539 S    
C210  C226  1.394160 A    
O14   C6    1.278143 A    
C237  H141  1.083659 S    
C65   C81   1.410539 A    
C50   C90   1.398373 A    
C23   C254  1.461474 S    
C95   C143  1.467719 S    
C176  C208  1.550866 S    
C53   C93   1.398476 A    
C276  H164  1.083507 S    
H79   C175  1.113030 S    
C69   C85   1.410541 A    
H80   C176  1.113029 S    
O100  C12   1.275006 A    
C170  C172  1.545424 S    
C148  C196  1.554219 S    
C67   C83   1.410562 A    
Zn4   O76   1.929444 S    
C30   C247  1.461581 S    
Zn13  O85   1.929351 S    
C31   C246  1.461471 S    
C171  C203  1.550871 S    
C62   C95   1.398373 A    
C286  C302  1.401820 A    
H65   C161  1.113021 S    
C235  H139  1.083658 S    
C162  C164  1.545349 S    
C119  H23   1.083318 S    
C113  C129  1.399276 A    
C146  H50   1.113523 S    
C280  C296  1.401828 A    
C179  C195  1.554157 S    
O69   C48   1.279822 A    
C273  C289  1.401837 A    
Zn18  O90   1.942436 S    
C287  H175  1.083505 S    
C59   C90   1.398308 A    
C164  H116  1.113021 S    
Zn10  O59   1.931851 S    
C164  C196  1.550832 S    
C274  H162  1.083509 S    
C267  H155  1.083303 S    
C57   C92   1.398435 A    
C190  C192  1.534332 S    
C102  C142  1.416896 A    
C25   C244  1.461723 S    
C62   H14   1.083702 S    
C211  Cl3   1.762219 S    
Zn14  O63   1.931851 S    
C210  Cl2   1.762150 S    
C42   C82   1.461711 S    
N4    O111  1.301386 A    
H74   C170  1.113023 S    
O55   C38   1.282289 A    
O50   C35   1.282316 A    
C278  H166  1.083510 S    
O80   C24   1.280832 A    
C9    C196  1.487565 S    
C100  N4    1.440359 S    
C212  C228  1.394100 A    
C10   C195  1.487777 S    
N2    O108  1.301449 A    
C104  C120  1.397527 A    
Zn16  O13   1.942919 S    
C41   C81   1.461365 S    
C158  H62   1.113018 S    
O23   C15   1.277992 A    
C285  C301  1.401837 A    
C184  H104  1.113540 S    
C60   C89   1.398466 A    
C98   C114  1.397520 A    
C59   C75   1.392738 A    
Zn4   O17   1.942919 S    
C232  C248  1.401692 A    
C181  C183  1.534378 S    
C121  C132  1.399254 A    
C57   C73   1.392814 A    
C71   C87   1.410560 A    
C122  C131  1.399220 A    
Zn3   O66   1.931757 S    
O63   C47   1.279948 A    
Zn22  O46   1.932262 S    
N12   O128  1.301447 A    
C166  H118  1.113038 S    
C19   C250  1.461467 S    
C127  H31   1.083331 S    
C37   C131  1.467968 S    
Zn27  O51   1.932352 S    
C39   C129  1.468130 S    
C38   C132  1.468044 S    
C93   C141  1.467888 S    
C223  C303  1.408935 A    
C163  C195  1.550806 S    
C105  C140  1.416882 A    
C219  C299  1.408933 A    
C240  C256  1.401692 A    
C224  C304  1.408889 A    
C106  C139  1.416883 A    
C74   C83   1.410691 A    
Zn25  O4    1.944899 S    
C209  C289  1.408917 A    
N15   O133  1.301400 A    
C60   H12   1.083703 S    
C259  H147  1.083299 S    
Zn26  O3    1.945087 S    
C253  C269  1.400749 A    
C44   C84   1.461489 S    
C99   C139  1.416861 A    
O33   C25   1.281466 A    
N7    O117  1.301387 A    
C228  C244  1.401695 A    
Zn7   O7    1.944985 S    
C213  C293  1.408914 A    
N7    O118  1.301452 A    
C64   C80   1.392821 A    
C218  C298  1.408965 A    
C4    C201  1.487591 S    
N5    O113  1.301385 A    
C265  H153  1.083297 S    
C48   C88   1.461365 S    
O75   C19   1.280734 A    
Zn1   O73   1.929351 S    
C270  C286  1.391778 A    
C169  C171  1.545334 S    
Zn22  O6    1.945087 S    
O73   C17   1.280834 A    
C76   Cl28  1.763212 S    
C283  H171  1.083507 S    
C293  C294  1.467654 S    
C51   H3    1.083713 S    
C106  C122  1.397527 A    
C295  C296  1.467614 S    
C236  H140  1.083639 S    
O31   C23   1.281436 A    
O77   C21   1.280832 A    
C120  C136  1.399261 A    
Zn15  O62   1.931757 S    
C284  C300  1.401830 A    
C297  C298  1.467657 S    
C148  H36   1.113537 S    
Zn19  O43   1.932352 S    
N11   O126  1.301448 A    
C256  C272  1.400714 A    
Zn28  O52   1.932259 S    
C50   C66   1.392875 A    
O16   C8    1.278080 A    
C101  N5    1.440377 S    
C230  H134  1.083739 S    
C63   H15   1.083714 S    
C128  C133  1.399261 A    
Zn28  O36   1.929310 S    
C158  C206  1.551030 S    
Zn12  O1    1.944805 S    
C111  C127  1.397519 A    
C145  C147  1.545615 S    
C154  H42   1.113003 S    
C209  Cl1   1.762218 S    
C126  H30   1.083312 S    
O91   C3    1.274978 A    
C192  H112  1.113527 S    
C212  C292  1.408890 A    
C99   N3    1.440394 S    
O44   C36   1.282294 A    
O92   C4    1.278187 A    
C150  C152  1.545581 S    
C149  H37   1.113070 S    
C188  H108  1.113525 S    
C24   C253  1.461811 S    
O93   C5    1.274933 A    
C90   C138  1.467719 S    
C104  C144  1.416872 A    
Zn9   O4    1.944987 S    
Zn6   O6    1.944795 S    
C115  C131  1.399249 A    
Zn10  O3    1.944795 S    
C267  C283  1.391829 A    
C186  H106  1.113523 S    
C146  C194  1.554279 S    
Zn29  O53   1.932354 S    
C177  H97   1.113542 S    
C125  C136  1.399277 A    
C114  H18   1.083313 S    
N14   O132  1.301454 A    
C126  C135  1.399222 A    
C180  H84   1.113002 S    
C127  C134  1.399268 A    
O39   C31   1.281436 A    
Zn4   O65   1.931849 S    
Zn17  O41   1.932354 S    
C234  H138  1.083738 S    
C78   C87   1.410688 A    
C182  C198  1.554139 S    
C179  H99   1.113538 S    
Zn9   O60   1.931760 S    
Zn3   O18   1.942939 S    
C54   H6    1.083707 S    
O21   C13   1.277925 A    
C94   C142  1.467719 S    
C227  C243  1.401655 A    
C261  C277  1.391864 A    
C54   C94   1.398387 A    
C58   C91   1.398377 A    
Zn13  O64   1.931760 S    
C107  N11   1.440393 S    
Zn26  O34   1.929306 S    
C263  C279  1.391824 A    
O67   C42   1.279953 A    
C14   C199  1.487777 S    
O85   C29   1.280832 A    
C214  C294  1.408969 A    
C46   C86   1.461690 S    
C147  C195  1.551055 S    
O65   C44   1.279857 A    
C97   C137  1.416887 A    
Zn19  O27   1.929400 S    
O81   C25   1.280831 A    
Zn2   O74   1.929446 S    
O78   C22   1.280767 A    
C213  C229  1.394127 A    
Zn28  O100  1.942436 S    
Zn20  O4    1.945088 S    
C33   C135  1.467968 S    
C58   H10   1.083704 S    
C103  C143  1.416861 A    
C222  Cl14  1.762149 S    
Zn3   O3    1.944985 S    
C165  H117  1.113030 S    
C177  C193  1.554191 S    
C250  C266  1.400640 A    
C55   H7    1.083711 S    
Zn32  O5    1.945088 S    
C107  C123  1.397516 A    
C72   C88   1.410543 A    
C76   C81   1.410546 A    
Zn26  O50   1.932262 S    
C108  N12   1.440363 S    
C258  C274  1.391777 A    
C214  C230  1.394155 A    
H69   C165  1.113018 S    
N6    O116  1.301476 A    
Zn2   O67   1.931851 S    
C260  H148  1.083282 S    
H71   C167  1.113012 S    
C80   C85   1.410543 A    
C182  C184  1.534329 S    
C170  H122  1.113022 S    
Zn20  O28   1.929310 S    
C169  H121  1.113140 S    
C220  C236  1.394097 A    
C158  H46   1.113005 S    
C167  C199  1.550805 S    
C285  H173  1.083507 S    
C258  H146  1.083295 S    
C173  C175  1.545357 S    
C45   C85   1.461365 S    
N3    O110  1.301451 A    
C278  C294  1.401820 A    
C75   Cl27  1.762864 S    
C271  C287  1.391824 A    
C272  C288  1.391844 A    
C6    C207  1.487777 S    
C73   C84   1.410584 A    
C177  H81   1.113542 S    
Zn10  O82   1.929446 S    
Zn8   O21   1.942919 S    
C102  N6    1.440428 S    
C247  C263  1.400698 A    
C61   C77   1.392838 A    
Zn8   O8    1.944805 S    
C149  H53   1.113037 S    
O32   C24   1.281522 A    
C56   C96   1.398466 A    
C163  H115  1.113030 S    
C108  C137  1.416873 A    
Zn9   O81   1.929351 S    
C289  C290  1.467658 S    
C161  H113  1.113033 S    
C116  C132  1.399243 A    
C34   C136  1.468130 S    
C117  C133  1.399275 A    
C35   C133  1.468130 S    
C178  C194  1.550881 S    
C185  C201  1.551089 S    
Zn18  O2    1.945087 S    
C191  C207  1.554175 S    
Zn29  O8    1.944899 S    
C128  H32   1.083299 S    
Zn15  O87   1.929354 S    
Zn30  O7    1.945087 S    
C69   Cl21  1.763211 S    
C123  H27   1.083314 S    
O37   C29   1.281469 A    
C161  C163  1.545357 S    
O38   C30   1.281456 A    
Zn27  O35   1.929400 S    
C217  Cl9   1.762218 S    
C108  C124  1.397530 A    
O35   C27   1.281433 A    
C67   Cl19  1.762859 S    
C109  C125  1.397559 A    
O12   C4    1.274914 A    
C153  C201  1.554353 S    
C236  C252  1.401693 A    
C183  H103  1.113537 S    
C159  C207  1.551089 S    
C80   Cl32  1.763212 S    
Zn15  O14   1.942939 S    
C176  H128  1.113028 S    
C260  C276  1.391840 A    
C239  H143  1.083663 S    
C189  H109  1.113555 S    
N15   O134  1.301494 A    
C286  H174  1.083508 S    
C158  C160  1.545578 S    
N8    O120  1.301449 A    
O58   C42   1.279817 A    
C301  C302  1.467658 S    
C147  H35   1.113003 S    
O10   C2    1.274977 A    
C162  C194  1.550798 S    
Zn5   O24   1.942938 S    
C217  C297  1.408909 A    
C151  C199  1.551052 S    
Zn6   O23   1.942925 S    
H77   C173  1.113033 S    
C226  H130  1.083742 S    
C154  C156  1.545578 S    
C98   N2    1.440416 S    
Zn32  O40   1.929310 S    
C215  Cl7   1.762217 S    
Zn17  O1    1.944899 S    
N1    O106  1.301451 A    
C168  C200  1.550884 S    
C233  H137  1.083653 S    
C79   C86   1.410565 A    
C40   C130  1.467951 S    
O70   C47   1.279812 A    
C245  C261  1.400745 A    
N10   O123  1.301388 A    
C152  H40   1.113087 S    
Zn8   O80   1.929444 S    
O82   C26   1.280769 A    
C51   C91   1.398312 A    
C178  H82   1.113004 S    
C12   C193  1.487565 S    
C146  C148  1.534505 S    
N3    O109  1.301385 A    
C190  C206  1.554122 S    
C279  C295  1.401829 A    
O53   C40   1.282234 A    
C186  H90   1.113532 S    
Zn11  O10   1.942939 S    
O54   C39   1.282316 A    
C49   H1    1.083703 S    
C230  C246  1.401691 A    
O79   C23   1.280736 A    
Zn13  O8    1.944987 S    
O26   C18   1.281458 A    
C63   C94   1.398321 A    
O104  C16   1.275008 A    
Zn14  O7    1.944795 S    
C109  N13   1.440374 S    
C100  C116  1.397504 A    
C3    C202  1.487747 S    
C53   H5    1.083703 S    
O74   C18   1.280768 A    
C172  H124  1.113024 S    
C1    C204  1.487536 S    
O30   C22   1.281456 A    
C179  H83   1.113535 S    
C183  H87   1.113532 S    
O24   C16   1.278078 A    
Zn8   O69   1.931849 S    
O90   C2    1.278210 A    
Zn21  O29   1.929402 S    
C222  C238  1.394155 A    
C283  C299  1.401831 A    
Zn16  O5    1.944805 S    
C221  C237  1.394124 A    
O18   C10   1.278143 A    
Zn23  O31   1.929400 S    
C104  N8    1.440362 S    
Zn24  O32   1.929310 S    
C263  H151  1.083297 S    
O13   C5    1.277925 A    
C160  C208  1.550935 S    
C249  C265  1.400752 A    
C228  H132  1.083637 S    
Zn1   O68   1.931760 S    
N9    O122  1.301450 A    
C149  C151  1.545615 S    
C122  H26   1.083312 S    
N4    O112  1.301450 A    
C52   C68   1.392801 A    
Zn1   O1    1.944987 S    
C211  C227  1.394075 A    
Zn31  O55   1.932352 S    
N2    O107  1.301390 A    
C152  H56   1.113042 S    
O22   C14   1.278145 A    
C238  H142  1.083740 S    
C73   Cl25  1.763137 S    
C257  H145  1.083296 S    
N11   O125  1.301385 A    
Zn32  O104  1.942436 S    
O101  C13   1.274933 A    
C79   Cl31  1.762864 S    
C49   C89   1.398476 A    
C288  C304  1.401829 A    
O25   C17   1.281464 A    
O94   C6    1.275056 A    
C271  H159  1.083297 S    
C180  H100  1.113069 S    
C64   C93   1.398466 A    
O28   C20   1.281527 A    
Zn12  O9    1.942919 S    
C29   C248  1.461725 S    
O29   C21   1.281469 A    
C282  H170  1.083506 S    
C177  C179  1.534378 S    
C102  C118  1.397526 A    
C281  H169  1.083506 S    
C270  H158  1.083296 S    
C243  C259  1.400700 A    
Zn19  O91   1.942417 S    
H66   C162  1.113030 S    
C92   C140  1.467854 S    
O17   C9    1.274762 A    
C147  H51   1.113022 S    
Zn6   O71   1.931851 S    
C274  C290  1.401817 A    
C234  C250  1.401687 A    
Zn14  O15   1.942925 S    
C178  C180  1.545478 S    
C180  C196  1.550820 S    
C185  H89   1.113125 S    
C181  C197  1.554191 S    
O57   C41   1.279822 A    
C231  H135  1.083662 S    
N8    O119  1.301387 A    
C52   C92   1.398426 A    
O34   C26   1.281458 A    
C248  C264  1.400716 A    
C71   Cl23  1.762857 S    
O41   C33   1.282239 A    
C103  N7    1.440395 S    
C26   C243  1.461587 S    
C61   H13   1.083699 S    
Zn23  O95   1.942417 S    
C288  H176  1.083507 S    
C264  C280  1.391844 A    
C117  H21   1.083308 S    
C98   C138  1.416883 A    
C75   C82   1.410576 A    
C159  H63   1.113039 S    
Zn24  O8    1.945088 S    
O45   C37   1.282239 A    
C161  C193  1.550810 S    
C150  H38   1.113013 S    
C223  C239  1.394078 A    
C212  Cl4   1.762217 S    
C174  C176  1.545424 S    
C268  C284  1.391845 A    
C191  H95   1.113549 S    
C169  C201  1.550908 S    
C157  H61   1.113051 S    
H68   C164  1.113031 S    
O43   C35   1.282311 A    
C101  C117  1.397555 A    
Zn31  O6    1.944912 S    
C231  C247  1.401652 A    
C52   H4    1.083706 S    
Zn30  O102  1.942436 S    
C58   C74   1.392878 A    
C54   C70   1.392878 A    
C105  N9    1.440371 S    
C215  C231  1.394078 A    
C153  H57   1.113746 S    
C162  H114  1.113012 S    
Zn5   O77   1.929351 S    
O103  C15   1.274978 A    
N10   O124  1.301449 A    
Zn7   O79   1.929354 S    
C210  C290  1.408969 A    
C53   C69   1.392838 A    
C68   Cl20  1.763139 S    
C239  C255  1.401654 A    
Zn1   O20   1.942938 S    
C96   C144  1.467888 S    
Zn22  O94   1.942436 S    
Zn2   O19   1.942925 S    
C225  C241  1.401721 A    
C252  C268  1.400714 A    
C15   C198  1.487747 S    
C187  H91   1.113127 S    
Zn21  O5    1.944899 S    
C72   Cl24  1.763215 S    
C220  Cl12  1.762218 S    
C221  Cl13  1.762219 S    
C261  H149  1.083293 S    
C303  C304  1.467614 S    
C165  C167  1.545357 S    
Zn25  O33   1.929402 S    
C175  C207  1.550814 S    
C78   Cl30  1.763098 S    
C229  C245  1.401723 A    
C168  H120  1.113038 S    
Zn7   O22   1.942939 S    
O66   C43   1.279812 A    
N13   O130  1.301450 A    
C215  C295  1.408937 A    
Zn17  O25   1.929402 S    
C182  H102  1.113536 S    
C7    C206  1.487747 S    
C155  H43   1.113646 S    
C77   Cl29  1.763210 S    
O71   C46   1.279946 A    
Zn27  O99   1.942417 S    
C264  H152  1.083281 S    
C109  C144  1.416882 A    
Zn11  O58   1.931757 S    
C186  C188  1.534332 S    
H67   C163  1.113013 S    
C110  C143  1.416882 A    
H75   C171  1.113148 S    
Zn25  O97   1.942422 S    
C266  C282  1.391779 A    
O40   C32   1.281522 A    
C172  C204  1.550864 S    
C265  C281  1.391869 A    
C118  C134  1.399241 A    
C103  C119  1.397523 A    
N13   O129  1.301386 A    
C186  C202  1.554122 S    
C218  C234  1.394158 A    
C154  C202  1.551031 S    
Zn16  O61   1.931849 S    
C49   C65   1.392838 A    
C116  H20   1.083301 S    
C229  H133  1.083658 S    
C149  C197  1.550956 S    
N5    O114  1.301450 A    
C27   C242  1.461469 S    
C209  C225  1.394125 A    
C279  H167  1.083506 S    
H72   C168  1.113040 S    
C255  C271  1.400699 A    
C173  C205  1.550814 S    
C189  C191  1.534378 S    
N12   O127  1.301387 A    
C277  C293  1.401837 A    
O89   C1    1.274933 A    
O102  C14   1.275053 A    
O51   C34   1.282311 A    
C151  H55   1.113021 S    
Zn20  O44   1.932259 S    
C157  C159  1.545612 S    
O49   C36   1.282239 A    
C273  H161  1.083506 S    
C238  C254  1.401687 A    
C16   C197  1.487565 S    
C47   C87   1.461694 S    
C110  N14   1.440418 S    
C259  C275  1.391825 A    
C68   C84   1.410586 A    
C277  H165  1.083506 S    
C153  C155  1.534466 S    
O76   C20   1.280831 A    
C100  C140  1.416871 A    
C174  C206  1.550863 S    
O11   C3    1.277992 A    
C115  H19   1.083318 S    
Zn30  O54   1.932262 S    
C220  C300  1.408890 A    
C233  C249  1.401720 A    
Zn30  O38   1.929306 S    
C56   C72   1.392821 A    
C185  H105  1.113176 S    
H78   C174  1.113025 S    
C123  C130  1.399244 A    
C8    C205  1.487565 S    
C269  H157  1.083294 S    
C170  C202  1.550862 S    
Zn5   O72   1.931760 S    
Zn18  O42   1.932262 S    
C21   C256  1.461725 S    
Zn6   O78   1.929446 S    
C184  H88   1.113552 S    
C257  C273  1.391862 A    
O64   C48   1.279766 A    
O84   C28   1.280830 A    
O68   C41   1.279766 A    
C185  C187  1.545545 S    
C107  C138  1.416862 A    
Zn24  O48   1.932259 S    
N16   O136  1.301448 A    
C148  H52   1.113621 S    
Zn27  O2    1.944912 S    
C211  C291  1.408937 A    
C13   C200  1.487536 S    
C232  H136  1.083639 S    
Zn20  O92   1.942436 S    
C101  C141  1.416885 A    
C188  C204  1.554157 S    
O47   C39   1.282311 A    
Zn12  O57   1.931849 S    
C189  C205  1.554213 S    
O48   C40   1.282289 A    
C43   C83   1.461690 S    
O52   C33   1.282294 A    
C97   N1    1.440376 S    
C291  C292  1.467618 S    
C181  H85   1.113540 S    
O27   C19   1.281431 A    
C32   C245  1.461814 S    
O95   C7    1.274978 A    
C187  H107  1.113136 S    
C160  H64   1.113030 S    
Zn3   O75   1.929354 S    
C145  C193  1.550959 S    
O86   C30   1.280767 A    
C91   C139  1.467719 S    
O56   C37   1.282294 A    
C5    C208  1.487536 S    
O59   C43   1.279948 A    
C224  C240  1.394101 A    
C99   C115  1.397523 A    
C156  H60   1.113032 S    
Zn15  O6    1.944985 S    
C59   H11   1.083713 S    
Zn22  O30   1.929306 S    
O96   C8    1.275006 A    
C167  H119  1.113028 S    
C275  H163  1.083506 S    
C57   H9    1.083704 S    
C299  C300  1.467617 S    
O19   C11   1.274825 A    
C110  C126  1.397527 A    
C152  C200  1.550951 S    
C150  C198  1.551047 S    
C113  H17   1.083306 S    
C251  C267  1.400704 A    
C77   C88   1.410541 A    
O99   C11   1.278133 A    
C216  C232  1.394101 A    
C65   Cl17  1.763211 S    
H70   C166  1.113036 S    
C159  H47   1.113016 S    
N14   O131  1.301388 A    
C36   C134  1.467969 S    
C56   H8    1.083702 S    
C156  C204  1.550936 S    
C145  H33   1.113074 S    
C150  H54   1.113026 S    
C171  H123  1.113132 S    
C51   C67   1.392738 A    
C190  H94   1.113533 S    
Zn32  O56   1.932259 S    
C184  C200  1.554173 S    
C97   C113  1.397555 A    
C235  C251  1.401649 A    
C157  H45   1.113087 S    
C146  H34   1.113541 S    
Zn14  O86   1.929446 S    
C28   C241  1.461820 S    
Zn17  O89   1.942422 S    
O9    C1    1.277925 A    
C287  C303  1.401831 A    
C74   Cl26  1.763100 S    
Zn9   O12   1.942938 S    
C166  C168  1.545424 S    
Zn16  O88   1.929444 S    
Zn10  O11   1.942925 S    
C262  H150  1.083293 S    
Zn11  O2    1.944985 S    
Zn25  O49   1.932354 S    
C268  H156  1.083282 S    
C112  C141  1.416873 A    
Zn28  O1    1.945088 S    
Zn13  O16   1.942938 S    
C221  C301  1.408915 A    
C62   C78   1.392878 A    
C213  Cl5   1.762217 S    
C183  C199  1.554155 S    
C2    C203  1.487753 S    
Zn12  O84   1.929444 S    
C120  H24   1.083300 S    
N1    O105  1.301388 A    
C61   C96   1.398477 A    
C105  C121  1.397533 A    
C174  H126  1.113024 S    
C282  C298  1.401816 A    
C262  C278  1.391778 A    
C281  C297  1.401838 A    
O83   C27   1.280735 A    
C187  C203  1.551147 S    
C226  C242  1.401689 A    
C242  C258  1.400639 A    
C70   C86   1.410693 A    
Zn23  O7    1.944912 S    
C153  H41   1.113640 S    
Zn19  O3    1.944912 S    
C112  C128  1.397530 A    
C275  C291  1.401825 A    
C156  H44   1.113073 S    
O87   C31   1.280736 A    
C157  C205  1.550993 S    
C173  H125  1.113050 S    
O42   C34   1.282316 A    
Zn31  O103  1.942417 S    
C112  N16   1.440363 S    
C106  N10   1.440416 S    
C124  H28   1.083299 S    
C272  H160  1.083282 S    
C155  C203  1.554412 S    
C154  H58   1.113017 S    
C125  H29   1.083303 S    
N6    O115  1.301396 A    
O20   C12   1.278080 A    
Zn21  O45   1.932354 S    
H76   C172  1.113025 S    
O46   C38   1.282294 A    
C237  C253  1.401723 A    
C111  C142  1.416872 A    
Zn23  O47   1.932352 S    
C145  H49   1.113035 S    
Zn21  O93   1.942422 S    
C190  H110  1.113524 S    
C223  Cl15  1.762219 S    
Zn31  O39   1.929400 S    
C240  H144  1.083639 S    
C224  Cl16  1.762220 S    
