data_mof_unit_11223.cif
_audit_creation_date              2012-12-11T14:30:16-0500
_audit_creation_method            fapswitch 2.2
_symmetry_space_group_name_H-M    P1
_symmetry_Int_Tables_number       1
_space_group_crystal_system       triclinic
_cell_length_a                    12.771636
_cell_length_b                    12.771633
_cell_length_c                    27.057428
_cell_angle_alpha                 90.000014
_cell_angle_beta                  90.0
_cell_angle_gamma                 120.000197
_cell_volume                      3822.16334949

loop_
_atom_site_label
_atom_site_type_symbol
_atom_type_description
_atom_site_fract_x
_atom_site_fract_y
_atom_site_fract_z
_atom_type_partial_charge
C1    C     C_R   0.556335 0.456285 0.821299 0.565635
C2    C     C_R   0.455310 0.562724 0.176362 0.564459
C3    C     C_R   0.868663 0.281820 0.459268 -0.086804
C4    C     C_R   0.269416 0.861262 0.009997 -0.088433
C5    C     C_R   0.718179 0.586843 0.459268 -0.086805
C6    C     C_R   0.408155 0.138738 0.509997 -0.088433
C7    C     C_R   0.131335 0.413156 0.959268 -0.086804
C8    C     C_R   0.730583 0.591844 0.509997 -0.088433
C9    C     C_R   0.281820 0.868665 0.959268 -0.086804
C10   C     C_R   0.861259 0.269417 0.509997 -0.088433
C11   C     C_R   0.586844 0.718180 0.959268 -0.086804
C12   C     C_R   0.443664 0.899949 0.321299 0.565635
C13   C     C_R   0.107414 0.544690 0.176362 0.564459
C14   C     C_R   0.025691 0.525995 0.968710 -0.007062
C15   C     C_R   0.526976 0.039706 0.520449 -0.008282
C16   C     C_R   0.474004 0.499696 0.968710 -0.007062
C17   C     C_R   0.960294 0.487271 0.520449 -0.008281
C18   C     C_R   0.500304 0.974309 0.968710 -0.007062
C19   C     C_R   0.512729 0.473022 0.520449 -0.008281
C20   C     C_R   0.525995 0.025691 0.468710 -0.007062
C21   C     C_R   0.892586 0.437276 0.676362 0.564458
C22   C     C_R   0.039706 0.526977 0.020449 -0.008281
C23   C     C_R   0.499696 0.474004 0.468710 -0.007062
C24   C     C_R   0.487271 0.960294 0.020449 -0.008281
C25   C     C_R   0.974308 0.500304 0.468710 -0.007062
C26   C     C_R   0.473022 0.512729 0.020449 -0.008281
C27   C     C_R   0.935522 0.654263 0.977554 0.081755
C28   C     C_R   0.654598 0.948447 0.529454 0.105410
C29   C     C_R   0.345735 0.281258 0.977554 0.081756
C30   C     C_R   0.051552 0.706151 0.529454 0.105410
C31   C     C_R   0.718742 0.064477 0.977554 0.081755
C32   C     C_R   0.543715 0.100051 0.821299 0.565635
C33   C     C_R   0.293849 0.345400 0.529454 0.105410
C34   C     C_R   0.654263 0.935521 0.477554 0.081756
C35   C     C_R   0.948448 0.654599 0.029454 0.105410
C36   C     C_R   0.281258 0.345736 0.477554 0.081756
C37   C     C_R   0.706151 0.051551 0.029454 0.105409
C38   C     C_R   0.064479 0.718742 0.477554 0.081756
C39   C     C_R   0.345400 0.293849 0.029454 0.105410
C40   C     C_R   0.935282 0.563063 0.897616 -0.134468
C41   C     C_R   0.588573 0.015491 0.602890 -0.110928
C42   C     C_R   0.436937 0.372219 0.897616 -0.134468
C43   C     C_R   0.562724 0.455310 0.676362 0.564459
C44   C     C_R   0.984509 0.573083 0.602890 -0.110928
C45   C     C_R   0.627780 0.064718 0.897616 -0.134468
C46   C     C_R   0.426917 0.411425 0.602890 -0.110928
C47   C     C_R   0.563062 0.935282 0.397616 -0.134468
C48   C     C_R   0.015491 0.588574 0.102890 -0.110928
C49   C     C_R   0.372219 0.436937 0.397616 -0.134468
C50   C     C_R   0.573083 0.984509 0.102890 -0.110928
C51   C     C_R   0.064718 0.627780 0.397616 -0.134468
C52   C     C_R   0.411425 0.426917 0.102890 -0.110928
C53   C     C_R   0.068331 0.525858 0.123771 0.006715
C54   C     C_R   0.899949 0.443664 0.821299 0.565635
C55   C     C_R   0.490564 0.964861 0.368337 0.017984
C56   C     C_R   0.474141 0.542472 0.123771 0.006715
C57   C     C_R   0.035139 0.525703 0.368337 0.017984
C58   C     C_R   0.457528 0.931669 0.123771 0.006714
C59   C     C_R   0.474297 0.509436 0.368337 0.017983
C60   C     C_R   0.525858 0.068330 0.623771 0.006715
C61   C     C_R   0.964861 0.490564 0.868337 0.017983
C62   C     C_R   0.542472 0.474141 0.623771 0.006715
C63   C     C_R   0.525702 0.035139 0.868337 0.017983
C64   C     C_R   0.931669 0.457528 0.623771 0.006715
C65   C     C_R   0.544690 0.107414 0.676362 0.564459
C66   C     C_R   0.509436 0.474297 0.868337 0.017983
C67   C     C_R   0.966866 0.583356 0.947703 -0.031928
C68   C     C_R   0.588727 0.998641 0.551270 -0.021848
C69   C     C_R   0.416643 0.383510 0.947703 -0.031927
C70   C     C_R   0.001358 0.590087 0.551270 -0.021847
C71   C     C_R   0.616490 0.033134 0.947703 -0.031928
C72   C     C_R   0.409913 0.411271 0.551270 -0.021847
C73   C     C_R   0.583355 0.966866 0.447703 -0.031928
C74   C     C_R   0.998642 0.588728 0.051270 -0.021847
C75   C     C_R   0.383510 0.416644 0.447703 -0.031927
C76   C     C_R   0.456285 0.556335 0.321299 0.565636
C77   C     C_R   0.590087 0.001358 0.051270 -0.021847
C78   C     C_R   0.033134 0.616490 0.447703 -0.031928
C79   C     C_R   0.411271 0.409913 0.051270 -0.021847
C80   C     C_R   0.042550 0.452319 0.887148 0.239970
C81   C     C_R   0.454040 0.097218 0.592642 0.221908
C82   C     C_R   0.547681 0.590231 0.887148 0.239970
C83   C     C_R   0.902781 0.356822 0.592642 0.221907
C84   C     C_R   0.409768 0.957450 0.887148 0.239970
C85   C     C_R   0.643178 0.545960 0.592642 0.221908
C86   C     C_R   0.452319 0.042550 0.387148 0.239969
C87   C     C_R   0.437276 0.892586 0.176362 0.564458
C88   C     C_R   0.097218 0.454040 0.092642 0.221907
C89   C     C_R   0.590231 0.547681 0.387148 0.239969
C90   C     C_R   0.356822 0.902782 0.092642 0.221907
C91   C     C_R   0.957450 0.409768 0.387148 0.239970
C92   C     C_R   0.545960 0.643179 0.092642 0.221907
C93   C     C_R   0.068991 0.465591 0.937954 0.038930
C94   C     C_R   0.462414 0.091655 0.541232 0.038408
C95   C     C_R   0.534408 0.603400 0.937953 0.038930
C96   C     C_R   0.908343 0.370759 0.541232 0.038408
C97   C     C_R   0.396599 0.931009 0.937954 0.038930
C98   C     C_R   0.100051 0.543715 0.321299 0.565635
C99   C     C_R   0.629241 0.537585 0.541231 0.038408
C100  C     C_R   0.465591 0.068991 0.437954 0.038929
C101  C     C_R   0.091656 0.462414 0.041232 0.038408
C102  C     C_R   0.603400 0.534408 0.437953 0.038930
C103  C     C_R   0.370758 0.908344 0.041232 0.038408
C104  C     C_R   0.931008 0.396600 0.437954 0.038930
C105  C     C_R   0.537585 0.629242 0.041232 0.038408
C106  C     C_R   0.138738 0.408155 0.009997 -0.088433
C107  C     C_R   0.413156 0.131335 0.459268 -0.086805
C108  C     C_R   0.591844 0.730583 0.009997 -0.088433
Cl1   Cl    Cl    0.136427 0.348477 0.116467 -0.543443
Cl2   Cl    Cl    0.282165 0.896420 0.847370 -0.511683
Cl3   Cl    Cl    0.863573 0.212050 0.616467 -0.543441
Cl4   Cl    Cl    0.614255 0.717835 0.847370 -0.511680
Cl5   Cl    Cl    0.385746 0.103580 0.347370 -0.511681
Cl6   Cl    Cl    0.651523 0.787951 0.116467 -0.543442
Cl7   Cl    Cl    0.896419 0.282165 0.347370 -0.511682
Cl8   Cl    Cl    0.212050 0.863573 0.116467 -0.543442
Cl9   Cl    Cl    0.717835 0.614255 0.347370 -0.511680
Cl10  Cl    Cl    0.348477 0.136426 0.616467 -0.543443
Cl11  Cl    Cl    0.103580 0.385747 0.847369 -0.511680
Cl12  Cl    Cl    0.787951 0.651523 0.616467 -0.543442
Cr1   Cr    Cr6+3 0.487630 0.241180 0.750000 1.153090
Cr2   Cr    Cr6+3 0.753550 0.512370 0.750000 1.153090
Cr3   Cr    Cr6+3 0.758820 0.246450 0.750000 1.153090
Cr4   Cr    Cr6+3 0.241180 0.487630 0.250000 1.153090
Cr5   Cr    Cr6+3 0.512370 0.753550 0.250000 1.153090
Cr6   Cr    Cr6+3 0.246450 0.758820 0.250000 1.153090
H1    H     H_    0.989812 0.638218 0.127608 0.201417
H2    H     H_    0.716497 0.121901 0.882087 0.184789
H3    H     H_    0.010189 0.648407 0.627608 0.201417
H4    H     H_    0.405405 0.283503 0.882087 0.184788
H5    H     H_    0.181191 0.360055 0.024168 0.189888
H6    H     H_    0.368319 0.168175 0.437378 0.199946
H7    H     H_    0.639944 0.821137 0.024168 0.189888
H8    H     H_    0.831823 0.200143 0.437378 0.199946
H9    H     H_    0.178863 0.818809 0.024168 0.189889
H10   H     H_    0.799856 0.631681 0.437378 0.199946
H11   H     H_    0.360055 0.181191 0.524168 0.189888
H12   H     H_    0.594595 0.878099 0.382087 0.184789
H13   H     H_    0.168174 0.368318 0.937378 0.199946
H14   H     H_    0.821136 0.639944 0.524168 0.189888
H15   H     H_    0.200143 0.831826 0.937378 0.199947
H16   H     H_    0.818805 0.178863 0.524168 0.189887
H17   H     H_    0.631682 0.799857 0.937378 0.199946
H18   H     H_    0.361780 0.351593 0.127608 0.201417
H19   H     H_    0.121902 0.716497 0.382087 0.184789
H20   H     H_    0.648407 0.010188 0.127608 0.201417
H21   H     H_    0.283503 0.405404 0.382087 0.184789
H22   H     H_    0.638218 0.989812 0.627608 0.201417
H23   H     H_    0.878099 0.594595 0.882087 0.184788
H24   H     H_    0.351593 0.361781 0.627608 0.201417
I1    I     I_    0.898795 0.761226 0.073980 -0.104317
I2    I     I_    0.889245 0.116227 0.943452 -0.202693
I3    I     I_    0.101207 0.862433 0.573980 -0.104318
I4    I     I_    0.226981 0.110754 0.943453 -0.202692
I5    I     I_    0.773016 0.883771 0.443453 -0.202692
I6    I     I_    0.238771 0.137567 0.073980 -0.104315
I7    I     I_    0.116228 0.889246 0.443452 -0.202693
I8    I     I_    0.862433 0.101204 0.073980 -0.104316
I9    I     I_    0.110753 0.226983 0.443453 -0.202691
I10   I     I_    0.761224 0.898793 0.573981 -0.104317
I11   I     I_    0.883772 0.773017 0.943453 -0.202693
I12   I     I_    0.137567 0.238773 0.573980 -0.104316
O1    O     O_R   0.460870 0.120930 0.805240 -0.444613
O2    O     O_R   0.120930 0.460870 0.194760 -0.423063
O3    O     O_R   0.539130 0.660060 0.305240 -0.444613
O4    O     O_R   0.339940 0.879070 0.194760 -0.423063
O5    O     O_R   0.498910 0.350470 0.801870 -0.510775
O6    O     O_R   0.851560 0.501090 0.698130 -0.474509
O7    O     O_R   0.649530 0.148440 0.801870 -0.510776
O8    O     O_R   0.498910 0.350470 0.698130 -0.474509
O9    O     O_R   0.851560 0.501090 0.801870 -0.510776
O10   O     O_R   0.649530 0.148440 0.698130 -0.474509
O11   O     O_R   0.350470 0.498910 0.301870 -0.510776
O12   O     O_R   0.660060 0.539130 0.694760 -0.423063
O13   O     O_R   0.501090 0.851560 0.198130 -0.474509
O14   O     O_R   0.148440 0.649530 0.301870 -0.510776
O15   O     O_R   0.350470 0.498910 0.198130 -0.474509
O16   O     O_R   0.501090 0.851560 0.301870 -0.510776
O17   O     O_R   0.148440 0.649530 0.198130 -0.474509
O18   O     O_3   0.666667 0.333333 0.750000 -0.316374
O19   O     O_3   0.333333 0.666667 0.250000 -0.316374
O20   O     O_R   0.879070 0.339940 0.805240 -0.444613
O21   O     O_R   0.460870 0.120930 0.694760 -0.423063
O22   O     O_R   0.660060 0.539130 0.805240 -0.444612
O23   O     O_R   0.879070 0.339940 0.694760 -0.423063
O24   O     O_R   0.120930 0.460870 0.305240 -0.444613
O25   O     O_R   0.539130 0.660060 0.194760 -0.423063
O26   O     O_R   0.339940 0.879070 0.305240 -0.444612

loop_
_geom_bond_atom_site_label_1
_geom_bond_atom_site_label_2
_ccdc_geom_bond_type
C3    C104  A    
C5    H10   S    
C12   O16   A    
C32   O7    A    
C4    C103  A    
C35   C74   A    
C81   C94   A    
C89   C102  A    
C45   C71   A    
Cr5   O3    S    
C91   C104  A    
C58   C87   S    
C15   C94   A    
C88   C101  A    
C64   C83   A    
C34   I5    S    
C44   C64   A    
Cr2   O18   S    
C49   H21   S    
C52   H18   S    
C21   O6    A    
C46   C62   A    
C86   Cl5   S    
C18   C24   A    
C84   C97   A    
C76   O11   A    
C28   C68   A    
C8    C99   A    
Cr3   O20   S    
C59   C89   A    
C43   O12   A    
C87   O4    A    
C51   H19   S    
C45   H2    S    
Cr1   O1    S    
C32   O1    A    
C28   I10   S    
C33   C36   A    
C30   C38   A    
C10   H16   S    
C2    O25   A    
C21   C64   S    
C36   I9    S    
C30   C70   A    
C1    O22   A    
C30   I3    S    
C6    C94   A    
C40   C67   A    
C20   C73   A    
C9    C97   A    
C6    C107  A    
C49   C75   A    
C44   C70   A    
C51   C57   A    
C2    O15   A    
C90   Cl8   S    
C41   C68   A    
C52   C79   A    
C86   C100  A    
C14   C93   A    
C46   C72   A    
Cr3   O10   S    
C33   C72   A    
Cr1   O21   S    
C50   H20   S    
C31   C71   A    
Cr1   O8    S    
C80   Cl11  S    
C28   C34   A    
C17   C70   A    
C19   C72   A    
C15   C20   A    
C35   I1    S    
Cr1   O5    S    
C26   C105  A    
C105  C108  A    
C43   O8    A    
Cr1   O18   S    
C29   C69   A    
C16   C26   A    
C106  H5    S    
C7    C93   A    
C62   C85   A    
Cr2   O6    S    
C65   O10   A    
Cr5   O19   S    
C25   C78   A    
C50   C58   A    
C48   C74   A    
C76   O3    A    
C47   C73   A    
C9    H15   S    
C107  H6    S    
Cr4   O11   S    
C38   C78   A    
C27   C35   A    
C44   H3    S    
Cr2   O12   S    
C37   C77   A    
C81   Cl10  S    
C45   C63   A    
C42   C69   A    
C84   Cl2   S    
C40   C61   A    
C31   C37   A    
C82   Cl4   S    
C37   I8    S    
Cr3   O23   S    
C85   Cl12  S    
C19   C23   A    
C13   C53   S    
C85   C99   A    
C36   C75   A    
C66   C82   A    
C98   O14   A    
C60   C81   A    
C24   C77   A    
C20   C100  A    
C10   C96   A    
C14   C67   A    
C29   C39   A    
C54   O20   A    
C1    C66   S    
C7    C106  A    
Cr6   O17   S    
C42   H4    S    
C17   C96   A    
C58   C90   A    
Cr4   O15   S    
Cr3   O7    S    
C4    H9    S    
C88   Cl1   S    
C18   C97   A    
C89   Cl9   S    
C60   C65   S    
C22   C101  A    
C83   Cl3   S    
C22   C74   A    
Cr5   O13   S    
C50   C77   A    
C101  C106  A    
Cr6   O14   S    
Cr4   O24   S    
C13   O2    A    
C47   C55   A    
C65   O21   A    
C11   C95   A    
C18   C71   A    
C5    C102  A    
C100  C107  A    
C19   C99   A    
C82   C95   A    
C57   C91   A    
C46   H24   S    
C54   O9    A    
C16   C69   A    
C41   C60   A    
C23   C75   A    
Cr3   O18   S    
Cr6   O4    S    
C5    C8    A    
C25   C104  A    
C21   O23   A    
C54   C61   S    
C48   C53   A    
C32   C63   S    
C87   O13   A    
C63   C84   A    
C15   C68   A    
C26   C79   A    
C49   C59   A    
Cr5   O25   S    
C39   I6    S    
C8    H14   S    
C24   C103  A    
C17   C25   A    
C38   I7    S    
C6    H11   S    
Cr6   O26   S    
C33   I12   S    
C80   C93   A    
C51   C78   A    
C108  H7    S    
C98   O24   A    
C3    C10   A    
C13   O17   A    
C27   I11   S    
C48   H1    S    
C7    H13   S    
C31   I2    S    
C16   C95   A    
C14   C22   A    
C41   H22   S    
C92   Cl6   S    
C55   C86   A    
C83   C96   A    
C3    H8    S    
C47   H12   S    
Cr2   O22   S    
C91   Cl7   S    
C40   H23   S    
C53   C88   A    
C57   C98   S    
C90   C103  A    
C12   C55   S    
C27   C67   A    
C34   C73   A    
C23   C102  A    
C92   C105  A    
Cr4   O19   S    
Cr5   O16   S    
Cr2   O9    S    
C11   C108  A    
C42   C66   A    
C1    O5    A    
Cr6   O19   S    
C2    C56   S    
C61   C80   A    
C4    C9    A    
C56   C92   A    
C11   H17   S    
C59   C76   S    
C52   C56   A    
C43   C62   S    
C39   C79   A    
C29   I4    S    
Cr4   O2    S    
C12   O26   A    
