data_mof_unit_21346.cif
_audit_creation_date              2013-03-05T16:31:37-0500
_audit_creation_method            fapswitch 2.2
_symmetry_space_group_name_H-M    P1
_symmetry_Int_Tables_number       1
_space_group_crystal_system       triclinic
_cell_length_a                    9.625789
_cell_length_b                    10.852362
_cell_length_c                    15.549775
_cell_angle_alpha                 88.140138
_cell_angle_beta                  73.797613
_cell_angle_gamma                 89.286343
_cell_volume                      1559.0209932

loop_
_atom_site_label
_atom_site_type_symbol
_atom_site_description
_atom_site_fract_x
_atom_site_fract_y
_atom_site_fract_z
_atom_type_partial_charge
O1    O     O_R   0.118810 0.319640 0.500000 -0.574823
O2    O     O_R   0.881230 0.319680 0.499990 -0.604797
C1    C     C_R   0.001418 0.263161 0.498780 0.835626
O3    O     O_R   0.055580 0.499970 0.629840 -0.577379
O4    O     O_R   0.818000 0.500010 0.629830 -0.597951
C2    C     C_R   0.918160 0.499134 0.671753 0.830631
Cu1   Cu    Cu3+1 0.140670 0.499980 0.500000 0.955768
Cu2   Cu    Cu3+1 0.859330 0.500020 0.500000 0.989800
O5    O     O_R   0.118770 0.680320 0.500010 -0.587476
O6    O     O_R   0.881190 0.680360 0.500000 -0.538524
O7    O     O_R   0.182000 0.499990 0.370170 -0.599107
O8    O     O_R   0.944420 0.500030 0.370160 -0.519248
C3    C     C_R   0.999822 0.737177 0.498821 0.852903
C4    C     C_R   0.081983 0.501021 0.328043 0.833618
C5    C     C_R   0.873296 0.486841 0.769634 -0.176826
C6    C     C_R   0.127135 0.504455 0.229535 -0.169279
C7    C     C_R   0.911183 0.403887 0.907300 0.571869
C8    C     C_R   0.963374 0.429971 0.815806 -0.217810
C9    C     C_R   0.732946 0.521070 0.815936 -0.222546
C10   C     C_R   0.671904 0.483626 0.905776 0.047901
C11   C     C_R   0.766017 0.429701 0.952635 0.010537
C12   C     C_R   0.521213 0.497431 0.950252 -0.032300
C13   C     C_R   0.472390 0.473338 0.044632 0.024355
C14   C     C_R   0.571050 0.423623 0.089192 -0.179285
C15   C     C_R   0.714026 0.400720 0.043706 -0.140527
C16   C     C_R   0.415727 0.527361 0.904107 0.547683
C17   C     C_R   0.270568 0.538689 0.949896 -0.167232
C18   C     C_R   0.223945 0.523727 0.042373 -0.016817
C19   C     C_R   0.324587 0.494455 0.091120 0.077460
C20   C     C_R   0.076627 0.537212 0.086572 -0.162657
C21   C     C_R   0.027727 0.525388 0.179394 0.596572
C22   C     C_R   0.274012 0.489669 0.185113 -0.310762
H1    H     H_    0.784210 0.359722 0.080577 0.210781
H2    H     H_    0.347958 0.478433 0.225489 0.175669
H3    H     H_    0.193525 0.559500 0.912106 0.182705
H4    H     H_    0.072857 0.403141 0.780837 0.196427
H5    H     H_    0.675195 0.578580 0.779930 0.231650
H6    H     H_    0.539527 0.394857 0.158880 0.148144
H7    H     H_    0.999018 0.557550 0.049172 0.170039
C23   C     C_R   0.101349 0.059486 0.525780 0.082982
C24   C     C_R   0.003849 0.130904 0.494958 -0.203978
C25   C     C_R   0.905282 0.069166 0.459656 -0.289853
H8    H     H_    0.830843 0.120676 0.431335 0.175871
C26   C     C_R   0.904707 0.939907 0.458752 0.591316
C27   C     C_R   0.999809 0.870263 0.496153 -0.180429
C28   C     C_R   0.097017 0.935092 0.528362 -0.094966
C29   C     C_3   0.214399 0.920368 0.573402 -0.439806
C30   C     C_3   0.222823 0.062402 0.568102 0.642189
H9    H     H_    0.173119 0.881602 0.642832 0.222434
H10   H     H_    0.311604 0.873219 0.531899 0.161569
C31   C     C_R   0.605377 0.544673 0.427528 0.246464
N1    N     N_R   0.648210 0.500930 0.499430 -0.203702
C32   C     C_R   0.539707 0.440373 0.567891 0.171032
C33   C     C_R   0.392442 0.444793 0.566965 -0.093117
H11   H     H_    0.308056 0.401883 0.620206 0.171034
N2    N     N_R   0.352300 0.500890 0.499430 -0.203851
C34   C     C_R   0.459248 0.541813 0.426602 0.230873
C35   C     C_3   0.467659 0.666390 0.382985 -0.527350
C36   C     C_3   0.621769 0.673056 0.389216 -0.372347
H12   H     H_    0.460710 0.662304 0.312956 0.209282
H13   H     H_    0.393943 0.734129 0.424581 0.216091
H14   H     H_    0.703464 0.681224 0.322959 0.269796
H15   H     H_    0.631947 0.739479 0.439681 0.259987
F1    F     F_    0.816133 0.884753 0.418025 -0.698935
F2    F     F_    0.180493 0.113753 0.651868 -0.673412
C37   C     C_3   0.367627 0.114743 0.508287 -0.426042
C38   C     C_3   0.395646 0.094590 0.407264 -0.407388
C39   C     C_3   0.543263 0.144643 0.354500 -0.773734
H16   H     H_    0.552066 0.243941 0.367597 0.243402
H17   H     H_    0.630254 0.092036 0.373574 0.275452
H18   H     H_    0.557722 0.134472 0.281693 0.249070
H19   H     H_    0.391575 0.994748 0.394474 0.229165
H20   H     H_    0.311686 0.143282 0.382255 0.231914
H21   H     H_    0.369162 0.214963 0.518743 0.225251
H22   H     H_    0.457105 0.072063 0.531205 0.204015
C40   C     C_3   0.559422 0.367514 0.649995 -0.300986
C41   C     C_3   0.629730 0.239593 0.630509 -0.360247
C42   C     C_3   0.546791 0.138483 0.694444 -0.822965
H23   H     H_    0.543125 0.158749 0.764634 0.272005
H24   H     H_    0.434648 0.131654 0.689022 0.296406
H25   H     H_    0.601991 0.048436 0.677168 0.252495
H26   H     H_    0.637243 0.213843 0.560804 0.230880
H27   H     H_    0.739191 0.241747 0.640616 0.248019
H28   H     H_    0.606881 0.420460 0.692806 0.251649
H29   H     H_    0.451699 0.352555 0.699028 0.210297
F3    F     F_    0.884057 0.537789 0.219524 -0.689633
F4    F     F_    0.000591 0.347875 0.950514 -0.676572
F5    F     F_    0.445796 0.536821 0.813931 -0.726425

loop_
_geom_bond_atom_site_label_1
_geom_bond_atom_site_label_2
_geom_bond_distance
_ccdc_geom_bond_type
C5    C8    1.397668 A    
C24   C25   1.407411 A    
C9    C10   1.404624 A    
C40   H28   1.087699 S    
Cu1   Cu2   2.708113 S    
C29   H9    1.111641 S    
C41   C42   1.529007 S    
C26   F1    1.350884 S    
C6    C21   1.405192 A    
C5    C9    1.394115 A    
C16   C17   1.385871 A    
C13   C19   1.424039 A    
C18   C19   1.414379 A    
C19   C22   1.405163 A    
O4    C2    1.305645 A    
O7    C4    1.306640 A    
C42   H24   1.109519 S    
C41   H27   1.108456 S    
C35   H12   1.111794 S    
C37   H21   1.105808 S    
N2    C34   1.366613 A    
C23   C30   1.494326 S    
C38   H19   1.111088 S    
O5    C3    1.298269 A    
C9    H5    1.074420 S    
C2    C5    1.463661 S    
C28   C29   1.490818 S    
C39   H16   1.111787 S    
C14   H6    1.077363 S    
C13   C14   1.415367 A    
C38   H20   1.111319 S    
C30   F2    1.385090 S    
Cu2   N1    2.034589 S    
C35   H13   1.106355 S    
C37   C38   1.540345 S    
C21   F3    1.356186 S    
O1    Cu1   1.970998 S    
C25   C26   1.403378 A    
Cu1   N2    2.034797 S    
O3    Cu1   1.955579 S    
Cu1   O7    1.945692 S    
C29   H10   1.107396 S    
C33   N2    1.342323 A    
C38   C39   1.525435 S    
C14   C15   1.384121 A    
O3    C2    1.301304 A    
C42   H23   1.111187 S    
C17   H3    1.084752 S    
C35   C36   1.516087 S    
C32   C33   1.421824 A    
C7    C11   1.407603 A    
C31   N1    1.365042 A    
O1    C1    1.297267 A    
C22   H2    1.076086 S    
C23   C28   1.350081 A    
C29   C30   1.542862 S    
Cu2   O8    1.955579 S    
C7    C8    1.391102 A    
N1    C32   1.416757 A    
C40   C41   1.538348 S    
C31   C34   1.411426 A    
C16   F5    1.351071 S    
C23   C24   1.385645 A    
O8    C4    1.303204 A    
C4    C6    1.470308 S    
C32   C40   1.535286 S    
C31   C36   1.490004 S    
C25   H8    1.081656 S    
C26   C27   1.413802 A    
Cu1   O5    1.965823 S    
C11   C15   1.390794 A    
C33   H11   1.082210 S    
C1    C24   1.438087 S    
C36   H14   1.109688 S    
C7    F4    1.358266 S    
Cu2   O6    1.970998 S    
O2    Cu2   1.965822 S    
C10   C12   1.430470 A    
O6    C3    1.299865 A    
O4    Cu2   1.945689 S    
C6    C22   1.399383 A    
C36   H15   1.107420 S    
C18   C20   1.400754 A    
O2    C1    1.298428 A    
C3    C27   1.443544 S    
C42   H25   1.110809 S    
C34   C35   1.485554 S    
C20   C21   1.389852 A    
C41   H26   1.110663 S    
C39   H18   1.110441 S    
C37   H22   1.110858 S    
C20   H7    1.083986 S    
C27   C28   1.386417 A    
C10   C11   1.421818 A    
C39   H17   1.109396 S    
C12   C16   1.426407 A    
C17   C18   1.386414 A    
C12   C13   1.426994 A    
C30   C37   1.546771 S    
C8    H4    1.083475 S    
C40   H29   1.112575 S    
C15   H1    1.084051 S    
