data_mof_unit_11121.cif
_audit_creation_date              2013-03-05T16:12:14-0500
_audit_creation_method            fapswitch 2.2
_symmetry_space_group_name_H-M    P1
_symmetry_Int_Tables_number       1
_space_group_crystal_system       triclinic
_cell_length_a                    10.715508
_cell_length_b                    9.455618
_cell_length_c                    27.790751
_cell_angle_alpha                 89.960387
_cell_angle_beta                  91.295772
_cell_angle_gamma                 89.996135
_cell_volume                      2815.08679543

loop_
_atom_site_label
_atom_site_type_symbol
_atom_site_description
_atom_site_fract_x
_atom_site_fract_y
_atom_site_fract_z
_atom_type_partial_charge
O1    O     O_R   0.317570 0.620260 0.500030 -0.550343
O2    O     O_R   0.317570 0.379740 0.500030 -0.550600
C1    C     C_R   0.260058 0.500005 0.502568 0.787696
O3    O     O_R   0.499900 0.620250 0.430280 -0.567065
O4    O     O_R   0.499900 0.379750 0.430280 -0.568343
C2    C     C_R   0.503898 0.500091 0.407531 0.849309
Cu1   Cu    Cu3+1 0.499860 0.642410 0.500020 0.950737
Cu2   Cu    Cu3+1 0.499860 0.357590 0.500020 0.950182
O5    O     O_R   0.682190 0.620260 0.500010 -0.603969
O6    O     O_R   0.682190 0.379740 0.500010 -0.603544
O7    O     O_R   0.499860 0.620280 0.569750 -0.598260
O8    O     O_R   0.499860 0.379720 0.569750 -0.598410
C3    C     C_R   0.739864 0.499995 0.502046 0.750853
C4    C     C_R   0.500164 0.499961 0.592533 0.778076
C5    C     C_R   0.422807 0.561092 0.177862 0.551655
O9    O     O_2   0.325465 0.611624 0.202606 -0.510790
N1    N     N_R   0.524074 0.505264 0.202066 -0.468727
C6    C     C_R   0.623100 0.450725 0.177938 0.547307
C7    C     C_R   0.520992 0.374580 0.278566 -0.090020
C8    C     C_R   0.516311 0.373194 0.328687 -0.173363
C9    C     C_R   0.523892 0.629299 0.329544 -0.165545
C10   C     C_R   0.528824 0.630526 0.279477 -0.089322
C11   C     C_R   0.525550 0.503329 0.253728 0.334411
C12   C     C_R   0.520615 0.510986 0.101869 -0.051194
C13   C     C_R   0.419001 0.564621 0.127373 -0.029600
C14   C     C_R   0.316057 0.620390 0.102012 -0.123877
C15   C     C_R   0.623146 0.452345 0.127406 -0.025583
C16   C     C_R   0.514034 0.500743 0.354638 -0.057992
H1    H     H_    0.528096 0.729122 0.348457 0.181261
H2    H     H_    0.534475 0.730458 0.260593 0.151817
C17   C     C_R   0.501053 0.499973 0.645552 -0.037471
C18   C     C_R   0.404705 0.548218 0.974591 -0.002707
C19   C     C_R   0.628329 0.486818 0.974820 -0.062366
C20   C     C_R   0.514151 0.514076 0.949335 0.042168
C21   C     C_R   0.291328 0.563160 0.948389 -0.228326
C22   C     C_R   0.284915 0.550683 0.898392 0.359426
C23   C     C_R   0.395388 0.528303 0.872481 -0.132477
C24   C     C_R   0.509601 0.508139 0.898284 -0.081573
C25   C     C_R   0.619765 0.482447 0.872983 -0.076732
C26   C     C_R   0.614991 0.477392 0.822573 0.576306
N2    N     N_R   0.505065 0.500846 0.798125 -0.476797
C27   C     C_R   0.396979 0.528335 0.821596 0.575161
C28   C     C_R   0.509528 0.372311 0.721462 -0.092133
C29   C     C_R   0.508001 0.371907 0.671260 -0.219482
C30   C     C_R   0.495495 0.628218 0.671018 -0.218252
C31   C     C_R   0.496690 0.628248 0.721189 -0.093252
C32   C     C_R   0.503747 0.500407 0.746530 0.344804
O10   O     O_2   0.292650 0.558074 0.795498 -0.466679
C33   C     C_R   0.410844 0.561638 0.025434 0.064629
C34   C     C_R   0.519178 0.514704 0.050825 0.079117
C35   C     C_R   0.625332 0.469112 0.025624 0.057634
C36   C     C_R   0.311592 0.618475 0.051966 -0.179982
H3    H     H_    0.512610 0.271494 0.652667 0.145940
H4    H     H_    0.514904 0.273171 0.740938 0.143481
H5    H     H_    0.203774 0.576125 0.966287 0.207588
O11   O     O_2   0.721635 0.396408 0.202764 -0.525530
C37   C     C_R   0.721781 0.393970 0.101958 -0.135012
H6    H     H_    0.514435 0.272283 0.346938 0.186398
H7    H     H_    0.519702 0.275635 0.258965 0.154945
H8    H     H_    0.799147 0.342333 0.120574 0.196724
C38   C     C_R   0.740309 0.477835 0.948255 0.302426
C39   C     C_R   0.733650 0.469421 0.898122 -0.150658
O12   O     O_2   0.719863 0.451570 0.798026 -0.503773
C40   C     C_R   0.721853 0.400112 0.051937 -0.118515
H9    H     H_    0.490161 0.728523 0.652263 0.145282
H10   H     H_    0.819713 0.460444 0.878607 0.248403
H11   H     H_    0.492445 0.727595 0.740455 0.143102
C41   C     C_3   0.072724 0.632970 0.530403 -0.375154
C42   C     C_3   0.072835 0.368503 0.531277 -0.375851
H12   H     H_    0.108772 0.634319 0.568282 0.156421
H13   H     H_    0.109004 0.369080 0.569142 0.156298
C43   C     C_3   0.929095 0.633711 0.529663 -0.372248
C44   C     C_3   0.929153 0.367821 0.530612 -0.372255
H14   H     H_    0.895438 0.731258 0.511047 0.177691
H15   H     H_    0.895406 0.269219 0.512737 0.177719
H16   H     H_    0.102750 0.593007 0.431795 0.211407
H17   H     H_    0.102887 0.403203 0.432420 0.212722
H18   H     H_    0.889724 0.592804 0.431335 0.172483
H19   H     H_    0.889877 0.402983 0.432028 0.173921
C45   C     C_3   0.069089 0.498600 0.451640 -0.318856
C46   C     C_3   0.121872 0.500027 0.503969 0.120602
C47   C     C_3   0.877840 0.500002 0.503471 0.150600
C48   C     C_3   0.925378 0.498496 0.451333 -0.392248
C49   C     C_3   0.627617 0.083759 0.510282 -0.306076
C50   C     C_3   0.627420 0.916225 0.510746 -0.303885
C51   C     C_3   0.422020 0.083304 0.539793 -0.198367
C52   C     C_3   0.420754 0.916699 0.539400 -0.200602
C53   C     C_3   0.457073 0.083964 0.453438 0.295223
C54   C     C_3   0.458503 0.916491 0.453249 0.294497
N3    N     N_3   0.500250 0.143650 0.501060 -0.183037
N4    N     N_3   0.500250 0.856350 0.501060 -0.182264
H20   H     H_    0.325838 0.125429 0.538107 0.190956
H21   H     H_    0.323900 0.876971 0.536588 0.191852
N5    N     N_R   0.861551 0.496909 0.970495 0.114914
O13   O     O_R   0.880332 0.599358 0.001067 -0.338857
O14   O     O_R   0.956980 0.426397 0.955082 -0.328693
H22   H     H_    0.796665 0.345771 0.034303 0.184904
H23   H     H_    0.105345 0.731250 0.513080 0.228905
H24   H     H_    0.105485 0.269370 0.514554 0.228440
H25   H     H_    0.895000 0.637204 0.567184 0.162981
H26   H     H_    0.895171 0.366601 0.568166 0.162918
H27   H     H_    0.666351 0.123876 0.545175 0.176019
H28   H     H_    0.664645 0.877396 0.546060 0.175668
H29   H     H_    0.692425 0.120629 0.482196 0.157762
H30   H     H_    0.693321 0.878161 0.483254 0.158382
H31   H     H_    0.458998 0.118593 0.575512 0.139342
H32   H     H_    0.455093 0.879198 0.575222 0.139737
N6    N     N_R   0.336897 0.143336 0.436118 0.177477
O15   O     O_R   0.236071 0.132421 0.460882 -0.367380
O16   O     O_R   0.325846 0.186998 0.391841 -0.361478
N7    N     N_R   0.340432 0.855196 0.434607 0.177119
O17   O     O_R   0.238198 0.861602 0.458676 -0.363668
O18   O     O_R   0.332121 0.816483 0.389748 -0.356560
H33   H     H_    0.526933 0.116285 0.426369 0.039435
H34   H     H_    0.530417 0.886302 0.426700 0.035706
H35   H     H_    0.237645 0.664787 0.120759 0.199674
N8    N     N_R   0.163901 0.554345 0.875245 0.178806
O19   O     O_R   0.086414 0.655549 0.885250 -0.300348
O20   O     O_R   0.121948 0.442379 0.852999 -0.273487
H36   H     H_    0.230357 0.665718 0.034877 0.172154

loop_
_geom_bond_atom_site_label_1
_geom_bond_atom_site_label_2
_geom_bond_distance
_ccdc_geom_bond_type
C54   H34   1.116100 S    
C52   N4    1.492767 S    
C49   H27   1.113003 S    
N2    C27   1.367047 A    
C21   C22   1.394691 A    
C12   C15   1.407951 A    
C4    C17   1.473264 S    
C50   N4    1.494536 S    
Cu1   Cu2   2.693148 S    
C30   C31   1.394059 A    
Cu1   O7    1.948970 S    
N1    C11   1.435562 S    
C26   O12   1.350064 S    
C41   C46   1.554310 S    
C22   C23   1.415401 A    
N8    O20   1.301371 A    
O4    C2    1.302523 A    
C53   N6    1.475346 S    
O7    C4    1.301591 A    
C5    C13   1.403191 A    
C5    O9    1.349799 S    
N6    O15   1.298124 A    
C5    N1    1.369319 A    
C23   C27   1.414615 A    
C42   H13   1.113153 S    
O5    C3    1.294813 A    
O1    Cu1   1.964548 S    
C30   H9    1.082799 S    
C29   H3    1.082937 S    
C2    C16   1.476410 S    
C7    C8    1.395003 A    
C1    C46   1.482131 S    
C42   C44   1.539332 S    
C54   N4    1.503657 S    
C6    C15   1.404401 A    
C38   C39   1.395800 A    
C50   H28   1.113036 S    
C6    O11   1.349496 S    
C44   H26   1.113141 S    
C20   C24   1.419625 A    
C9    C10   1.393634 A    
C44   H15   1.113278 S    
C51   H31   1.111931 S    
C49   N3    1.494306 S    
O3    Cu1   1.949574 S    
C50   H30   1.112051 S    
H18   C48   1.113416 S    
C19   C20   1.423185 A    
C41   H23   1.106606 S    
C12   C34   1.418684 A    
C17   C29   1.406682 A    
C39   H10   1.083730 S    
C21   H5    1.078787 S    
C18   C21   1.409237 A    
C12   C13   1.407298 A    
C43   H14   1.113262 S    
C15   C37   1.398625 A    
C25   C26   1.401571 A    
C51   C52   1.575458 S    
C37   H8    1.083286 S    
C8    C16   1.406154 A    
C34   C35   1.416551 A    
C13   C14   1.398521 A    
C9    H1    1.081122 S    
C3    C47   1.478120 S    
C41   C43   1.538751 S    
O1    C1    1.296021 A    
C18   C20   1.417653 A    
C7    C11   1.400456 A    
C28   C29   1.394891 A    
C23   C24   1.417188 A    
C14   C36   1.390690 A    
C28   H4    1.083011 S    
Cu2   O8    1.949258 S    
C33   C36   1.414047 A    
Cu1   N4    2.023165 S    
N1    C6    1.368984 A    
N2    C32   1.433634 S    
N7    O18   1.300662 A    
C27   O10   1.348310 S    
C49   C50   1.584181 S    
N5    O14   1.301447 A    
C22   N8    1.434829 S    
C42   H24   1.106772 S    
O3    C2    1.301779 A    
C26   N2    1.364491 A    
C9    C16   1.406160 A    
C53   N3    1.502490 S    
C47   C48   1.546805 S    
C51   N3    1.492319 S    
C49   H29   1.112314 S    
Cu2   N3    2.023124 S    
C8    H6    1.080693 S    
C36   H36   1.078789 S    
C44   C47   1.553449 S    
C37   C40   1.391319 A    
C45   C48   1.539759 S    
C43   H25   1.113158 S    
H17   C45   1.113332 S    
Cu1   O5    1.964945 S    
C25   C39   1.397761 A    
C31   C32   1.399759 A    
C40   H22   1.079308 S    
C10   H2    1.082922 S    
N7    O17   1.297826 A    
C38   N5    1.437434 S    
O2    Cu2   1.964520 S    
C35   C40   1.412506 A    
H16   C45   1.113322 S    
O8    C4    1.301709 A    
C45   C46   1.548469 S    
O6    C3    1.294876 A    
O4    Cu2   1.949287 S    
C19   C35   1.422753 A    
C54   N7    1.475087 S    
C7    H7    1.082867 S    
O2    C1    1.296119 A    
C31   H11   1.083055 S    
C51   H20   1.104902 S    
N8    O19   1.301213 A    
H19   C48   1.113414 S    
C24   C25   1.408765 A    
C19   C38   1.425548 A    
C52   H21   1.104878 S    
N6    O16   1.300481 A    
C53   H33   1.115730 S    
N5    O13   1.301613 A    
C14   H35   1.083371 S    
C18   C33   1.418797 A    
C42   C46   1.554195 S    
C52   H32   1.111377 S    
C53   C54   1.583642 S    
Cu2   O6    1.964973 S    
C33   C34   1.415948 A    
C17   C30   1.406402 A    
C41   H12   1.113170 S    
C10   C11   1.399967 A    
C28   C32   1.399763 A    
C43   C47   1.553456 S    
