data_mof_unit_49588.cif
_audit_creation_date              2012-10-26T21:14:59-0400
_audit_creation_method            fapswitch 2.2
_symmetry_space_group_name_H-M    P1
_symmetry_Int_Tables_number       1
_space_group_crystal_system       triclinic
_cell_length_a                    15.132015
_cell_length_b                    10.855445
_cell_length_c                    13.832787
_cell_angle_alpha                 88.886881
_cell_angle_beta                  90.280724
_cell_angle_gamma                 87.893247
_cell_volume                      2270.2391717

loop_
_atom_site_label
_atom_site_type_symbol
_atom_type_description
_atom_site_fract_x
_atom_site_fract_y
_atom_site_fract_z
_atom_type_partial_charge
C1    C     C_R   0.497833 0.262627 0.500506 0.582295
C2    C     C_R   0.634731 0.861984 0.612126 -0.037256
C3    C     C_R   0.370202 0.187044 0.299958 0.193880
C4    C     C_R   0.619197 0.814750 0.706638 0.234454
C5    C     C_R   0.298728 0.254594 0.256253 0.189278
C6    C     C_R   0.687268 0.750097 0.757002 0.181037
C7    C     C_R   0.217091 0.266031 0.303625 0.224946
C8    C     C_R   0.772590 0.738619 0.717837 0.184751
C9    C     C_R   0.438435 0.937635 0.443390 0.237407
C10   C     C_R   0.561712 0.062236 0.556241 0.235470
C11   C     C_R   0.502418 0.871448 0.499233 0.022271
C12   C     C_R   0.502007 0.737342 0.499519 0.598494
C13   C     C_R   0.497376 0.128426 0.500924 0.019570
C14   C     C_R   0.564157 0.932533 0.556411 -0.033617
C15   C     C_R   0.434794 0.067278 0.445016 -0.034383
C16   C     C_R   0.328936 0.499782 0.500427 0.517186
C17   C     C_R   0.671048 0.499295 0.499725 0.559928
C18   C     C_R   0.557984 0.423734 0.794258 0.208651
C19   C     C_R   0.442223 0.576700 0.206042 0.198009
C20   C     C_R   0.439124 0.572542 0.790585 0.272551
C21   C     C_R   0.557552 0.422626 0.209392 0.269009
C22   C     C_R   0.436263 0.573482 0.894397 0.037848
C23   C     C_R   0.050363 0.359204 0.639298 -0.011946
C24   C     C_R   0.557149 0.417163 0.105731 0.016260
C25   C     C_R   0.495953 0.494199 0.948171 -0.053370
C26   C     C_R   0.496141 0.494708 0.052093 -0.067422
C27   C     C_R   0.554862 0.413548 0.897890 -0.042461
C28   C     C_R   0.435215 0.572413 0.102491 -0.048457
C29   C     C_R   0.374251 0.648319 0.945457 0.300313
C30   C     C_R   0.613838 0.334504 0.054788 0.293331
C31   C     C_R   0.369715 0.641304 0.047248 0.092005
C32   C     C_R   0.607921 0.326373 0.953342 0.094121
C33   C     C_R   0.811510 0.568047 0.428872 0.077401
C34   C     C_R   0.949586 0.638665 0.360054 -0.105361
C35   C     C_R   0.187801 0.427182 0.569724 0.066660
C36   C     C_R   0.767922 0.495535 0.497744 0.022422
C37   C     C_R   0.232011 0.502998 0.502954 -0.025206
C38   C     C_R   0.816630 0.417115 0.562531 0.202589
C39   C     C_R   0.183253 0.584270 0.440229 0.242769
C40   C     C_R   0.908814 0.426614 0.569677 0.054182
C41   C     C_R   0.090874 0.576291 0.433225 0.091574
C42   C     C_R   0.953205 0.498442 0.499593 -0.062270
C43   C     C_R   0.046487 0.500614 0.500480 -0.074904
C44   C     C_R   0.904557 0.568083 0.428630 0.001812
C45   C     C_R   0.204670 0.204076 0.393561 0.204590
C46   C     C_R   0.095142 0.428335 0.569744 0.028999
C47   C     C_R   0.958734 0.361691 0.642643 0.279243
C48   C     C_R   0.041764 0.644206 0.361677 0.298496
C49   C     C_R   0.789360 0.788795 0.624327 0.221690
C50   C     C_R   0.277650 0.143260 0.440383 0.239709
C51   C     C_R   0.720205 0.852304 0.572539 0.253751
C52   C     C_R   0.360669 0.137320 0.394869 -0.031078
Cu1   Cu    Cu3+1 0.500010 0.499980 0.597420 1.033011
Cu2   Cu    Cu3+1 0.499990 0.500020 0.402580 1.053894
H1    H     H_    0.086209 0.306132 0.694901 0.190087
H2    H     H_    0.687787 0.387227 0.767696 0.240431
H3    H     H_    0.329217 0.650750 0.261831 0.274061
H4    H     H_    0.409284 0.755297 0.231853 0.241902
H5    H     H_    0.314005 0.619732 0.744812 0.254932
H6    H     H_    0.385959 0.739458 0.744249 0.290140
H7    H     H_    0.608512 0.256592 0.260255 0.291321
H8    H     H_    0.683530 0.372486 0.250474 0.252138
H9    H     H_    0.293838 0.793737 0.936233 0.370104
H10   H     H_    0.721771 0.229401 0.062839 0.364743
H11   H     H_    0.257776 0.625393 0.129235 0.268552
H12   H     H_    0.913643 0.691080 0.304398 0.101590
H13   H     H_    0.301934 0.772378 0.127232 0.244480
H14   H     H_    0.600104 0.169711 0.873607 0.254411
H15   H     H_    0.703903 0.235971 0.873049 0.240124
H16   H     H_    0.723947 0.299314 0.576163 0.376642
H17   H     H_    0.276131 0.701615 0.427559 0.366764
H18   H     H_    0.872242 0.358447 0.744005 0.364112
H19   H     H_    0.040671 0.753820 0.247650 0.324733
H20   H     H_    0.109603 0.369249 0.308945 0.327955
H21   H     H_    0.894433 0.722563 0.761667 0.346781
H22   H     H_    0.076325 0.204536 0.384696 0.347061
H23   H     H_    0.775789 0.732946 0.364369 0.264033
H24   H     H_    0.904564 0.705131 0.610265 0.335320
H25   H     H_    0.208820 0.095919 0.553989 0.391980
H26   H     H_    0.797779 0.906288 0.468402 0.377614
H27   H     H_    0.488580 0.111855 0.281587 0.337170
H28   H     H_    0.499831 0.889407 0.715744 0.325346
H29   H     H_    0.299929 0.407029 0.170785 0.240346
H30   H     H_    0.369235 0.294996 0.132434 0.271559
H31   H     H_    0.686316 0.606872 0.852533 0.243891
H32   H     H_    0.711290 0.743172 0.900988 0.260664
H33   H     H_    0.775027 0.609625 0.290061 0.229794
H34   H     H_    0.285631 0.298605 0.603746 0.271320
H35   H     H_    0.264280 0.404705 0.690549 0.255056
H36   H     H_    0.346128 0.925786 0.343906 0.342041
H37   H     H_    0.656322 0.074672 0.653254 0.338232
H38   H     H_    0.617516 0.270090 0.739160 0.265381
N1    N     N_R   0.499960 0.499900 0.743810 -0.184663
N2    N     N_3   0.647188 0.217029 0.912311 -0.628252
N3    N     N_3   0.306757 0.311799 0.162101 -0.526506
N4    N     N_3   0.669850 0.701244 0.851753 -0.534059
N5    N     N_R   0.500040 0.500100 0.256190 -0.186546
N6    N     N_3   0.759992 0.640531 0.359390 -0.586932
N7    N     N_3   0.235848 0.349391 0.638778 -0.619734
N8    N     N_3   0.626269 0.364389 0.740055 -0.524083
N9    N     N_3   0.396151 0.668167 0.260458 -0.515447
N10   N     N_3   0.378691 0.645933 0.731625 -0.513045
N11   N     N_3   0.618838 0.350399 0.268146 -0.511269
N12   N     N_3   0.290284 0.692484 0.089299 -0.620977
O1    O     O_R   0.500000 0.319630 0.582270 -0.463553
O2    O     O_3   0.622956 0.128112 0.606185 -0.700003
O3    O     O_3   0.314488 0.724938 0.895046 -0.711460
O4    O     O_3   0.672314 0.255932 0.105185 -0.712226
O5    O     O_3   0.776912 0.322953 0.612482 -0.666041
O6    O     O_3   0.223619 0.677817 0.390454 -0.620417
O7    O     O_3   0.920896 0.303286 0.720595 -0.636786
O8    O     O_3   0.084656 0.712744 0.292090 -0.610050
O9    O     O_3   0.150790 0.337654 0.259112 -0.661965
O10   O     O_3   0.838127 0.681655 0.774375 -0.717388
O11   O     O_3   0.122358 0.198365 0.435837 -0.703967
O12   O     O_R   0.500000 0.680370 0.417730 -0.431957
O13   O     O_3   0.871473 0.777148 0.581527 -0.705599
O14   O     O_3   0.269556 0.083225 0.528973 -0.670331
O15   O     O_3   0.733857 0.908052 0.483312 -0.672897
O16   O     O_3   0.447360 0.171011 0.247733 -0.701346
O17   O     O_3   0.539621 0.832713 0.753918 -0.662185
O18   O     O_R   0.499990 0.319660 0.417730 -0.489906
O19   O     O_R   0.500010 0.680340 0.582270 -0.488701
O20   O     O_R   0.370260 0.499960 0.582280 -0.505716
O21   O     O_R   0.629740 0.500040 0.417720 -0.459736
O22   O     O_R   0.370250 0.499990 0.417740 -0.487579
O23   O     O_R   0.629750 0.500010 0.582260 -0.477428
O24   O     O_3   0.378090 0.871933 0.391856 -0.682187

loop_
_geom_bond_atom_site_label_1
_geom_bond_atom_site_label_2
_ccdc_geom_bond_type
C40   C47   A    
C32   N2    S    
C20   N1    A    
H25   O14   S    
C22   C29   A    
C34   H12   S    
C19   N5    A    
C39   C41   A    
Cu1   Cu2   S    
Cu2   O22   S    
H27   O16   S    
C43   C46   A    
C18   N8    S    
H35   N7    S    
C7    C45   A    
H7    N11   S    
C24   C26   A    
H31   N4    S    
C35   N7    S    
C20   N10   S    
H17   O6    S    
C33   C36   A    
C33   N6    S    
C1    O18   A    
Cu1   O23   S    
C39   O6    S    
C49   O13   S    
C49   C51   A    
C22   C25   A    
Cu2   O12   S    
C51   O15   S    
Cu2   N5    S    
C17   C36   S    
H28   O17   S    
C8    O10   S    
C16   C37   S    
H33   N6    S    
C40   C42   A    
Cu2   O18   S    
H18   O7    S    
C23   C46   A    
C41   C43   A    
H37   O2    S    
C42   C44   A    
H22   O11   S    
H6    N10   S    
C5    N3    S    
H13   N12   S    
H10   O4    S    
Cu2   O21   S    
C9    O24   S    
C23   C47   A    
Cu1   N1    S    
H24   O13   S    
C34   C44   A    
C4    C6    A    
H15   N2    S    
Cu1   O19   S    
C5    C7    A    
C17   O23   A    
C6    C8    A    
C25   C26   A    
H20   O9    S    
C10   C13   A    
H14   N2    S    
H30   N3    S    
C2    C4    A    
H16   O5    S    
C21   N5    A    
C45   O11   S    
C50   C52   A    
C11   C12   S    
H29   N3    S    
H23   N6    S    
H4    N9    S    
C15   C52   S    
C38   O5    S    
C19   C28   A    
C9    C11   A    
H32   N4    S    
C48   O8    S    
C20   C22   A    
C6    N4    S    
C13   C15   A    
C10   C14   A    
C10   O2    S    
C1    C13   S    
C42   C43   A    
H2    N8    S    
H9    O3    S    
H38   N8    S    
H19   O8    S    
H8    N11   S    
C35   C37   A    
C30   O4    S    
C27   C32   A    
C50   O14   S    
H5    N10   S    
H21   O10   S    
C28   C31   A    
C18   C27   A    
C3    C5    A    
Cu1   O20   S    
C3    C52   A    
C23   H1    S    
C25   C27   A    
H3    N9    S    
C26   C28   A    
C2    C51   A    
C31   N12   S    
C7    O9    S    
C36   C38   A    
C9    C15   A    
C37   C39   A    
C30   C32   A    
C19   N9    S    
C17   O21   A    
C12   O19   A    
C38   C40   A    
C45   C50   A    
C47   O7    S    
C11   C14   A    
C41   C48   A    
C4    O17   S    
C16   O20   A    
C2    C14   S    
C33   C44   A    
C24   C30   A    
H26   O15   S    
H34   N7    S    
C3    O16   S    
C21   N11   S    
Cu1   O1    S    
C34   C48   A    
C29   C31   A    
C21   C24   A    
C18   N1    A    
H36   O24   S    
C29   O3    S    
H11   N12   S    
C35   C46   A    
C16   O22   A    
C8    C49   A    
C1    O1    A    
C12   O12   A    
