data_mof_unit_33665.cif
_audit_creation_date              2012-12-10T17:43:17-0500
_audit_creation_method            fapswitch 2.2
_symmetry_space_group_name_H-M    P1
_symmetry_Int_Tables_number       1
_space_group_crystal_system       triclinic
_cell_length_a                    14.990278
_cell_length_b                    13.838844
_cell_length_c                    10.683893
_cell_angle_alpha                 89.10898
_cell_angle_beta                  89.950457
_cell_angle_gamma                 89.127845
_cell_volume                      2215.82833171

loop_
_atom_site_label
_atom_site_type_symbol
_atom_type_description
_atom_site_fract_x
_atom_site_fract_y
_atom_site_fract_z
_atom_type_partial_charge
C1    C     C_R   0.328921 0.500500 0.499776 0.842056
C2    C     C_R   0.670956 0.499551 0.500803 0.843282
C3    C     C_R   0.952878 0.507878 0.499826 0.026368
C4    C     C_R   0.046371 0.507811 0.498701 0.026086
C5    C     C_R   0.905851 0.500298 0.386239 0.146633
C6    C     C_R   0.093399 0.524194 0.610386 0.136804
C7    C     C_R   0.954371 0.528859 0.725698 -0.207966
C8    C     C_R   0.045158 0.478181 0.274668 -0.207761
C9    C     C_R   0.046959 0.536537 0.722912 -0.218137
C10   C     C_R   0.952453 0.488626 0.273632 -0.225378
C11   C     C_R   0.465918 0.794563 0.600656 0.485248
C12   C     C_R   0.540368 0.206375 0.403726 0.490564
C13   C     C_R   0.534921 0.795537 0.400073 0.502130
C14   C     C_R   0.458748 0.205864 0.595701 0.522952
C15   C     C_R   0.527318 0.898157 0.393782 -0.082055
C16   C     C_R   0.469303 0.102892 0.604787 -0.109870
C17   C     C_R   0.472320 0.896785 0.606032 -0.069544
C18   C     C_R   0.528207 0.104220 0.394006 -0.109030
C19   C     C_R   0.499300 0.948950 0.499648 0.012067
C20   C     C_R   0.498776 0.052109 0.499410 0.038677
C21   C     C_R   0.547202 0.951312 0.284289 -0.165012
C22   C     C_R   0.450561 0.049417 0.714785 -0.205232
C23   C     C_R   0.451698 0.948168 0.715240 -0.185902
C24   C     C_R   0.546554 0.052604 0.283936 -0.226783
C25   C     C_R   0.499726 0.500847 0.259499 0.894421
C26   C     C_R   0.500480 0.499354 0.740348 0.878764
C27   C     C_3   0.509569 0.591556 0.035591 0.470640
C28   C     C_3   0.491263 0.409753 0.963951 0.454975
C29   C     C_3   0.577490 0.534568 0.957914 0.427441
C30   C     C_3   0.423357 0.467166 0.041321 0.443355
C31   C     C_3   0.431419 0.556970 0.954647 -0.436230
C32   C     C_3   0.569729 0.444629 0.044776 -0.475138
C33   C     C_3   0.500402 0.498626 0.876723 -0.239268
C34   C     C_3   0.500414 0.502612 0.122825 -0.221916
C35   C     C_R   0.813009 0.503000 0.387817 -0.375810
C36   C     C_R   0.186188 0.526379 0.607696 -0.362088
C37   C     C_R   0.767479 0.499674 0.501881 -0.150426
C38   C     C_R   0.232170 0.501802 0.498607 -0.148804
C39   C     C_R   0.813786 0.498971 0.616027 0.398027
C40   C     C_R   0.185709 0.472350 0.392033 0.384294
C41   C     C_R   0.906667 0.512670 0.614884 -0.005136
C42   C     C_R   0.092707 0.486652 0.387131 -0.003851
Cu1   Cu    Cu3+1 0.500000 0.597420 0.500000 1.010121
Cu2   Cu    Cu3+1 0.500000 0.402580 0.500000 1.010382
H1    H     H_    0.375673 0.602039 0.916418 0.172504
H2    H     H_    0.625403 0.399611 0.083136 0.176520
H3    H     H_    0.775984 0.503525 0.300687 0.130316
H4    H     H_    0.222682 0.540100 0.692746 0.127460
H5    H     H_    0.920323 0.536129 0.814554 0.163302
H6    H     H_    0.079634 0.465339 0.187223 0.164727
H7    H     H_    0.082434 0.548760 0.809430 0.138089
H8    H     H_    0.916951 0.483062 0.185751 0.134121
H9    H     H_    0.563370 0.914899 0.198261 0.166606
H10   H     H_    0.435530 0.085259 0.801451 0.150195
H11   H     H_    0.436132 0.910412 0.801746 0.154563
H12   H     H_    0.559852 0.089984 0.196616 0.138309
N1    N     N_R   0.500000 0.743810 0.500000 -0.273563
N2    N     N_R   0.500000 0.256190 0.500000 -0.262058
O1    O     O_R   0.370260 0.582280 0.500030 -0.607288
O2    O     O_R   0.629740 0.417720 0.499970 -0.588710
O3    O     O_R   0.629740 0.582280 0.499970 -0.594425
O4    O     O_R   0.370260 0.417720 0.500030 -0.575191
O5    O     O_R   0.499980 0.582260 0.316850 -0.522357
O6    O     O_R   0.500020 0.417740 0.683150 -0.528876
O7    O     O_R   0.500020 0.582260 0.683150 -0.534754
O8    O     O_R   0.499980 0.417740 0.316850 -0.545395
O9    O     O_3   0.521834 0.685595 0.080451 -0.535725
C43   C     C_3   0.513317 0.752958 0.980953 -0.232512
H13   H     H_    0.442408 0.761065 0.952707 0.171663
H14   H     H_    0.555625 0.733456 0.899265 0.206511
H15   H     H_    0.535574 0.824285 0.013383 0.149141
O10   O     O_3   0.478789 0.315569 0.919309 -0.542386
C44   C     C_3   0.494354 0.247976 0.017107 -0.289977
H16   H     H_    0.459504 0.268085 0.105114 0.187813
H17   H     H_    0.567022 0.239167 0.034601 0.173726
H18   H     H_    0.468698 0.176953 0.988605 0.156748
O11   O     O_3   0.656075 0.572248 0.905064 -0.531949
C45   C     C_3   0.718629 0.587933 0.000660 -0.277209
H19   H     H_    0.740682 0.518771 0.045852 0.125523
H20   H     H_    0.691776 0.637967 0.072003 0.183402
H21   H     H_    0.778364 0.621828 0.958521 0.188762
O12   O     O_3   0.343065 0.433858 0.093584 -0.543186
C46   C     C_3   0.284449 0.408381 0.996930 -0.283662
H22   H     H_    0.308683 0.341902 0.950368 0.189723
H23   H     H_    0.273629 0.468181 0.927633 0.137429
H24   H     H_    0.218437 0.392192 0.038244 0.181640
O13   O     O_3   0.767010 0.488076 0.727145 -0.579942
C47   C     C_3   0.788019 0.397311 0.784787 0.031684
H25   H     H_    0.800612 0.409950 0.885544 0.164563
H26   H     H_    0.849252 0.360713 0.747674 0.117584
C48   C     C_3   0.709395 0.328998 0.773008 -0.273906
H27   H     H_    0.647725 0.365809 0.805489 0.263369
H28   H     H_    0.700866 0.309311 0.673466 0.216022
C49   C     C_3   0.723824 0.236810 0.850981 -0.948905
H29   H     H_    0.785078 0.197917 0.819834 0.253076
H30   H     H_    0.665881 0.188716 0.839240 0.270647
H31   H     H_    0.730129 0.254318 0.951710 0.247226
O14   O     O_3   0.230892 0.422755 0.299049 -0.572543
C50   C     C_3   0.207344 0.323437 0.304603 0.084344
H32   H     H_    0.158520 0.309099 0.229213 0.126953
H33   H     H_    0.175563 0.300981 0.394900 0.119080
C51   C     C_3   0.290226 0.259402 0.284295 -0.291824
H34   H     H_    0.311336 0.264785 0.185123 0.232443
H35   H     H_    0.345775 0.283858 0.343780 0.254620
C52   C     C_3   0.272239 0.153507 0.315564 -0.985903
H36   H     H_    0.254401 0.144730 0.415979 0.257516
H37   H     H_    0.333168 0.109356 0.296979 0.268589
H38   H     H_    0.216999 0.126795 0.256807 0.262342
O15   O     O_3   0.426705 0.746634 0.700116 -0.615884
C53   C     C_3   0.334425 0.735259 0.677263 0.105659
H39   H     H_    0.318543 0.660605 0.706826 0.165662
H40   H     H_    0.314629 0.743860 0.576827 0.145662
C54   C     C_3   0.277881 0.804402 0.756232 -0.438526
H41   H     H_    0.302145 0.803151 0.854423 0.223201
H42   H     H_    0.283093 0.879023 0.717633 0.222380
C55   C     C_3   0.179818 0.776294 0.755592 -0.882654
H43   H     H_    0.154133 0.774466 0.658154 0.263442
H44   H     H_    0.139942 0.830037 0.808804 0.255645
H45   H     H_    0.171680 0.704167 0.800737 0.250690
O16   O     O_3   0.592467 0.257432 0.318235 -0.584753
C56   C     C_3   0.677418 0.212326 0.300081 0.018964
H46   H     H_    0.679211 0.180363 0.205457 0.144312
H47   H     H_    0.694252 0.154757 0.370999 0.136923
C57   C     C_3   0.750884 0.286797 0.305005 -0.311064
H48   H     H_    0.733862 0.348418 0.241316 0.208891
H49   H     H_    0.756564 0.312526 0.402361 0.233657
C58   C     C_3   0.840638 0.243110 0.265894 -0.953443
H50   H     H_    0.858259 0.179948 0.326888 0.258613
H51   H     H_    0.893552 0.297625 0.274903 0.268444
H52   H     H_    0.838108 0.219930 0.166890 0.252583
O17   O     O_3   0.576613 0.747984 0.303150 -0.546008
C59   C     C_3   0.669216 0.736976 0.327622 0.138412
H53   H     H_    0.688088 0.661767 0.303220 0.167739
H54   H     H_    0.688197 0.747040 0.427690 0.125142
C60   C     C_3   0.723875 0.805235 0.244717 -0.436221
H55   H     H_    0.698510 0.804348 0.147047 0.237728
H56   H     H_    0.717668 0.880013 0.280132 0.216865
C61   C     C_3   0.822479 0.775771 0.245079 -0.902522
H57   H     H_    0.849367 0.776266 0.341933 0.264943
H58   H     H_    0.860696 0.827570 0.186430 0.258145
H59   H     H_    0.831583 0.702280 0.206166 0.250383
O18   O     O_3   0.410604 0.257838 0.684008 -0.533670
C62   C     C_3   0.324204 0.219822 0.705750 0.053923
H60   H     H_    0.321048 0.194002 0.804599 0.157606
H61   H     H_    0.306198 0.158797 0.644062 0.111376
C63   C     C_3   0.253423 0.298851 0.686827 -0.316292
H62   H     H_    0.274809 0.366133 0.732357 0.222282
H63   H     H_    0.245852 0.313153 0.585341 0.223472
C64   C     C_3   0.163169 0.268723 0.739491 -0.973308
H64   H     H_    0.140722 0.201559 0.694310 0.259778
H65   H     H_    0.112863 0.326778 0.720715 0.271304
H66   H     H_    0.167691 0.256386 0.842275 0.249962

loop_
_geom_bond_atom_site_label_1
_geom_bond_atom_site_label_2
_ccdc_geom_bond_type
C62   C63   S    
C38   C40   A    
O13   C47   S    
C14   O18   S    
C27   C29   S    
C44   H16   S    
Cu2   O8    S    
C19   C20   A    
C9    H7    S    
C39   O13   S    
C10   H8    S    
C1    O4    A    
C6    C9    A    
Cu1   O5    S    
C60   H55   S    
C39   C41   A    
C2    C37   S    
O11   C45   S    
Cu2   O6    S    
C15   C19   A    
C52   H37   S    
C17   C23   A    
C18   C24   A    
C35   C37   A    
C8    C42   A    
C54   H41   S    
C29   C32   S    
C64   H65   S    
C40   O14   S    
C30   C31   S    
C2    O2    A    
C11   O15   S    
C62   H60   S    
C29   C33   S    
C55   H43   S    
C51   C52   S    
C7    C9    A    
C25   O5    A    
C26   O6    A    
C53   H39   S    
C56   C57   S    
C12   O16   S    
C64   H64   S    
C62   H61   S    
C46   H22   S    
Cu2   N2    S    
C59   H53   S    
C31   C33   S    
C18   C20   A    
C2    O3    A    
Cu1   O1    S    
C25   C34   S    
C54   C55   S    
C12   N2    A    
C40   C42   A    
C35   H3    S    
C44   H17   S    
C28   O10   S    
C63   H63   S    
C27   C34   S    
C14   N2    A    
C52   H38   S    
C30   C34   S    
C27   C31   S    
O9    C43   S    
Cu1   O7    S    
C59   C60   S    
C28   C32   S    
C7    H5    S    
C4    C6    A    
C64   H66   S    
C48   H27   S    
C45   H19   S    
C43   H13   S    
C49   H31   S    
Cu2   O4    S    
C3    C4    A    
C32   C34   S    
C30   O12   S    
C49   H30   S    
Cu1   Cu2   S    
C58   H51   S    
C48   H28   S    
C63   C64   S    
C26   C33   S    
C50   H32   S    
C47   C48   S    
C16   C20   A    
C46   H24   S    
C13   O17   S    
C29   O11   S    
C49   H29   S    
C51   H35   S    
C53   C54   S    
C56   H46   S    
C60   C61   S    
C61   H58   S    
C1    C38   S    
C57   C58   S    
C59   H54   S    
C46   H23   S    
C47   H26   S    
C28   C33   S    
O14   C50   S    
C22   H10   S    
C13   C15   A    
C44   H18   S    
C14   C16   A    
O17   C59   S    
C8    H6    S    
C36   C38   A    
O16   C56   S    
Cu1   O3    S    
C57   H49   S    
C63   H62   S    
C60   H56   S    
C3    C41   A    
C16   C22   A    
C50   H33   S    
O18   C62   S    
C26   O7    A    
C32   H2    S    
C25   O8    A    
O10   C44   S    
C3    C5    A    
C61   H59   S    
C11   C17   A    
C23   H11   S    
C24   H12   S    
C52   H36   S    
C55   H45   S    
C6    C36   A    
C1    O1    A    
C58   H52   S    
C5    C10   A    
C37   C39   A    
O15   C53   S    
C48   C49   S    
C21   H9    S    
C45   H21   S    
C4    C42   A    
Cu2   O2    S    
C43   H15   S    
C5    C35   A    
C28   C30   S    
C17   C19   A    
C55   H44   S    
C36   H4    S    
C45   H20   S    
C7    C41   A    
C51   H34   S    
C53   H40   S    
C56   H47   S    
C27   O9    S    
C61   H57   S    
Cu1   N1    S    
C15   C21   A    
C50   C51   S    
C13   N1    A    
C47   H25   S    
C8    C10   A    
O12   C46   S    
C31   H1    S    
C21   C24   A    
C12   C18   A    
C43   H14   S    
C22   C23   A    
C11   N1    A    
C58   H50   S    
C57   H48   S    
C54   H42   S    
