data_mof_unit_24623.cif
_audit_creation_date              2012-12-11T14:50:52-0500
_audit_creation_method            fapswitch 2.2
_symmetry_space_group_name_H-M    P1
_symmetry_Int_Tables_number       1
_space_group_crystal_system       triclinic
_cell_length_a                    10.883154
_cell_length_b                    10.915031
_cell_length_c                    18.772177
_cell_angle_alpha                 89.939019
_cell_angle_beta                  89.204672
_cell_angle_gamma                 60.189889
_cell_volume                      1934.64451082

loop_
_atom_site_label
_atom_site_type_symbol
_atom_type_description
_atom_site_fract_x
_atom_site_fract_y
_atom_site_fract_z
_atom_type_partial_charge
C1    C     C_R   0.242690 0.643729 0.611392 0.538967
C2    C     C_R   0.556560 0.242323 0.798027 -0.151409
C3    C     C_R   0.539138 0.256435 0.725448 -0.152277
C4    C     C_R   0.654683 0.623385 0.600343 0.545395
C5    C     C_R   0.655983 0.193220 0.678596 0.026484
C6    C     C_R   0.188878 0.555536 0.723081 -0.165604
C7    C     C_R   0.178682 0.558763 0.797040 -0.154409
C8    C     C_R   0.186120 0.665120 0.835721 0.025393
C9    C     C_R   0.221322 0.756549 0.800694 -0.153058
C10   C     C_R   0.233618 0.751820 0.727499 -0.156402
C11   C     C_R   0.213369 0.654304 0.687768 0.016404
C12   C     C_3   0.656689 0.563522 0.800571 -0.250310
C13   C     C_R   0.602395 0.543630 0.257925 -0.154650
C14   C     C_R   0.617856 0.569313 0.186310 -0.141004
C15   C     C_R   0.650595 0.674535 0.168606 0.025038
C16   C     C_R   0.626478 0.230898 0.603844 0.531908
C17   C     C_R   0.668302 0.752856 0.222524 -0.145927
C18   C     C_R   0.651416 0.728506 0.293649 -0.141954
C19   C     C_R   0.622291 0.621111 0.311582 0.018840
C20   C     C_R   0.572954 0.114111 0.297759 -0.110911
C21   C     C_R   0.556289 0.117270 0.224462 -0.002323
C22   C     C_R   0.653167 0.139225 0.181303 0.022136
C23   C     C_3   0.701531 0.675354 0.811272 0.050556
C24   C     C_R   0.753324 0.166538 0.212920 -0.151748
C25   C     C_R   0.757590 0.175586 0.285807 -0.151827
C26   C     C_R   0.661946 0.156623 0.327877 0.005535
C27   C     C_R   0.235456 0.729795 0.282295 -0.142650
C28   C     C_R   0.225692 0.647236 0.399875 0.533238
C29   C     C_R   0.222490 0.730167 0.210162 -0.143070
C30   C     C_R   0.155765 0.662802 0.180418 0.010090
C31   C     C_R   0.116220 0.581099 0.221881 -0.111727
C32   C     C_R   0.131824 0.575624 0.295722 -0.001881
C33   C     C_R   0.187920 0.656484 0.325899 0.034403
C34   C     C_3   0.671890 0.648930 0.675534 0.057505
C35   C     C_R   0.702272 0.103750 0.896707 0.540498
C36   C     C_R   0.724918 0.688897 0.887540 0.543867
C37   C     C_R   0.120431 0.704996 0.906194 0.537613
C38   C     C_R   0.675385 0.101102 0.106297 0.540424
C39   C     C_R   0.692646 0.688855 0.096551 0.535392
C40   C     C_R   0.614966 0.588194 0.386093 0.558141
C41   C     C_R   0.096092 0.706946 0.111335 0.544424
C42   C     C_R   0.621658 0.223076 0.396978 0.538288
C43   C     C_3   0.585591 0.818456 0.779758 -0.226284
C44   C     C_3   0.570484 0.803447 0.699318 -0.242910
C45   C     C_3   0.825350 0.614517 0.689645 -0.246379
C46   C     C_3   0.842508 0.630047 0.769557 -0.223721
C47   C     C_3   0.923919 0.043364 0.658016 -0.262169
C48   C     C_3   0.014316 0.114226 0.661940 -0.428174
C49   C     C_3   0.434795 0.101261 0.193748 -0.257809
C50   C     C_3   0.334089 0.088827 0.247296 -0.476702
C51   C     C_3   0.088670 0.487413 0.341902 -0.265382
C52   C     C_3   0.006935 0.426033 0.304465 -0.452353
C53   C     C_3   0.639025 0.547904 0.720673 -0.212088
C54   C     C_R   0.794267 0.117210 0.705800 -0.013243
C55   C     C_R   0.810605 0.101018 0.779839 -0.128503
C56   C     C_R   0.691496 0.160176 0.825590 0.002701
Cr1   Cr    Cr6+3 0.392930 0.397900 0.502230 0.991228
Cr2   Cr    Cr6+3 0.398240 0.708600 0.501260 0.998021
Cr3   Cr    Cr6+3 0.708800 0.393470 0.496460 0.989367
Cr4   Cr    Cr6+3 0.937620 0.938540 0.007640 1.010771
Cr5   Cr    Cr6+3 0.625150 0.937450 0.994520 0.997150
Cr6   Cr    Cr6+3 0.937990 0.625080 0.001190 1.004793
H1    H     H_    0.614060 0.902168 0.788417 0.148830
H2    H     H_    0.229437 0.838477 0.829168 0.125395
H3    H     H_    0.481931 0.853001 0.807098 0.121189
H4    H     H_    0.256177 0.827306 0.701980 0.130087
H5    H     H_    0.576159 0.462973 0.271608 0.120906
H6    H     H_    0.607629 0.505606 0.145158 0.111714
H7    H     H_    0.702842 0.827717 0.209547 0.129007
H8    H     H_    0.668155 0.788208 0.334677 0.129362
H9    H     H_    0.506999 0.092249 0.332959 0.138998
H10   H     H_    0.828093 0.182304 0.181059 0.135193
H11   H     H_    0.828202 0.207724 0.308617 0.135805
H12   H     H_    0.711458 0.436073 0.704692 0.145854
H13   H     H_    0.285914 0.785786 0.303585 0.145873
H14   H     H_    0.458934 0.835093 0.688024 0.129823
H15   H     H_    0.255908 0.791398 0.178083 0.135570
H16   H     H_    0.065834 0.529356 0.196324 0.144795
H17   H     H_    0.595818 0.876320 0.669276 0.118914
H18   H     H_    0.876572 0.709742 0.777720 0.129549
H19   H     H_    0.850284 0.686842 0.658813 0.112234
H20   H     H_    0.737904 0.460074 0.822341 0.131670
H21   H     H_    0.555088 0.595426 0.829478 0.119154
H22   H     H_    0.529264 0.570279 0.710861 0.133059
H23   H     H_    0.927393 0.526872 0.789529 0.132795
H24   H     H_    0.951792 0.226416 0.645540 0.171629
H25   H     H_    0.052773 0.109276 0.716944 0.132004
H26   H     H_    0.107496 0.058985 0.625527 0.142989
H27   H     H_    0.986150 0.931973 0.674658 0.146785
H28   H     H_    0.896613 0.039510 0.601694 0.158263
H29   H     H_    0.389693 0.987797 0.276709 0.157676
H30   H     H_    0.290314 0.178094 0.285645 0.155172
H31   H     H_    0.244885 0.090354 0.218487 0.137937
H32   H     H_    0.369592 0.194727 0.160046 0.164955
H33   H     H_    0.477750 0.004995 0.160306 0.196555
H34   H     H_    0.902698 0.504656 0.672535 0.130773
H35   H     H_    0.909216 0.511394 0.281293 0.182557
H36   H     H_    0.070916 0.352060 0.261160 0.133171
H37   H     H_    0.978675 0.367076 0.343349 0.167171
H38   H     H_    0.185323 0.396863 0.363918 0.176461
H39   H     H_    0.021257 0.554019 0.386957 0.159223
H40   H     H_    0.915097 0.033393 0.801148 0.137507
H41   H     H_    0.463459 0.287804 0.832536 0.131829
H42   H     H_    0.432961 0.317797 0.705711 0.145596
H43   H     H_    0.177401 0.476529 0.693709 0.115571
H44   H     H_    0.154968 0.484543 0.823414 0.124069
O1    O     O_R   0.507430 0.255570 0.581420 -0.526956
O2    O     O_R   0.837200 0.593290 0.915250 -0.527681
O3    O     O_R   0.065330 0.635370 0.931590 -0.510126
O4    O     O_R   0.280190 0.527390 0.578910 -0.505238
O5    O     O_R   0.068300 0.828790 0.091860 -0.519665
O6    O     O_R   0.798730 0.057480 0.079370 -0.500896
O7    O     O_R   0.584680 0.080480 0.076790 -0.541376
O8    O     O_R   0.626790 0.809640 0.067050 -0.514874
O9    O     O_R   0.816010 0.596460 0.076500 -0.512688
O10   O     O_R   0.045680 0.638310 0.081070 -0.512008
O11   O     O_3   0.833590 0.833690 0.001120 -0.243131
O12   O     O_R   0.524460 0.695920 0.424060 -0.504082
O13   O     O_R   0.260310 0.739740 0.584580 -0.531417
O14   O     O_R   0.532250 0.695150 0.573830 -0.505101
O15   O     O_R   0.744930 0.503430 0.576380 -0.530261
O16   O     O_R   0.699250 0.276390 0.571950 -0.504847
O17   O     O_R   0.499020 0.256400 0.419850 -0.528563
O18   O     O_R   0.272400 0.528160 0.429140 -0.513441
O19   O     O_R   0.251910 0.740570 0.423020 -0.529794
O20   O     O_R   0.736530 0.504260 0.414810 -0.524244
O21   O     O_R   0.691460 0.277160 0.422180 -0.521342
O22   O     O_3   0.499990 0.499990 0.499980 -0.258860
O23   O     O_R   0.089490 0.825610 0.930610 -0.527183
O24   O     O_R   0.818370 0.054540 0.929880 -0.504023
O25   O     O_R   0.605870 0.077310 0.915530 -0.523001
O26   O     O_R   0.646440 0.806700 0.917570 -0.508583

loop_
_geom_bond_atom_site_label_1
_geom_bond_atom_site_label_2
_ccdc_geom_bond_type
C3    H42   S    
C18   H8    S    
C40   O12   A    
C55   C56   A    
C17   H7    S    
C36   O2    A    
C9    H2    S    
C53   H12   S    
C1    C11   S    
Cr1   O22   S    
C21   C49   S    
C43   H1    S    
C7    C8    A    
C45   C46   S    
C27   C33   A    
Cr3   O20   S    
Cr2   O22   S    
C55   H40   S    
C26   C42   S    
C53   H22   S    
C25   H11   S    
C36   O26   A    
C30   C31   A    
Cr6   O2    S    
Cr3   O21   S    
C22   C38   S    
C52   H35   S    
Cr2   O12   S    
C23   C43   S    
C27   C29   A    
C18   C19   A    
C1    O13   A    
C44   H14   S    
C16   O16   A    
Cr6   O11   S    
Cr5   O26   S    
Cr1   O4    S    
C8    C9    A    
C5    C16   S    
C48   H26   S    
C20   H9    S    
C49   H32   S    
C9    C10   A    
C37   O3    A    
C12   C53   S    
C16   O1    A    
C46   H23   S    
Cr3   O16   S    
C44   H17   S    
C23   C46   S    
C21   C22   A    
C47   H27   S    
C27   H13   S    
C42   O17   A    
C10   H4    S    
C4    C34   S    
C7    H44   S    
C13   C19   A    
Cr5   O11   S    
C51   C52   S    
C5    C54   A    
C34   C44   S    
C24   C25   A    
C10   C11   A    
Cr4   O24   S    
C6    C11   A    
C38   O7    A    
C25   C26   A    
C12   H21   S    
C43   C44   S    
C32   C51   S    
Cr6   O10   S    
C29   C30   A    
Cr4   O6    S    
C1    O4    A    
Cr1   O17   S    
C47   C48   S    
C12   C23   S    
C43   H3    S    
C39   O8    A    
C40   O20   A    
Cr2   O14   S    
C17   C18   A    
C48   H25   S    
C12   H20   S    
Cr4   O11   S    
C30   C41   S    
C34   C45   S    
C49   H33   S    
C35   O24   A    
C15   C39   S    
C42   O21   A    
C34   C53   S    
C47   C54   S    
C50   H30   S    
Cr1   O1    S    
C28   C33   S    
C23   C36   S    
C39   O9    A    
Cr5   O7    S    
C47   H28   S    
C22   C24   A    
C8    C37   S    
C41   O10   A    
C38   O6    A    
C35   O25   A    
C28   O19   A    
C24   H10   S    
C31   H16   S    
C13   H5    S    
C51   H38   S    
C15   C17   A    
C54   C55   A    
C35   C56   S    
C31   C32   A    
C45   H19   S    
C3    C5    A    
Cr4   O23   S    
C28   O18   A    
C50   H31   S    
C6    C7    A    
C51   H39   S    
C52   H37   S    
C32   C33   A    
C2    C3    A    
Cr3   O22   S    
Cr6   O9    S    
Cr4   O5    S    
C2    C56   A    
Cr1   O18   S    
C46   H18   S    
Cr6   O3    S    
C20   C26   A    
C2    H41   S    
C52   H36   S    
Cr2   O13   S    
C6    H43   S    
C37   O23   A    
C4    O15   A    
C48   H24   S    
C19   C40   S    
Cr5   O25   S    
Cr3   O15   S    
C50   H29   S    
C29   H15   S    
C20   C21   A    
Cr2   O19   S    
C49   C50   S    
C41   O5    A    
Cr5   O8    S    
C14   H6    S    
C14   C15   A    
C4    O14   A    
C13   C14   A    
C45   H34   S    
