data_mof_unit_12274.cif
_audit_creation_date              2012-12-11T14:36:07-0500
_audit_creation_method            fapswitch 2.2
_symmetry_space_group_name_H-M    P1
_symmetry_Int_Tables_number       1
_space_group_crystal_system       triclinic
_cell_length_a                    13.47705
_cell_length_b                    13.491103
_cell_length_c                    27.504073
_cell_angle_alpha                 90.782965
_cell_angle_beta                  90.103227
_cell_angle_gamma                 60.067866
_cell_volume                      4333.29946463

loop_
_atom_site_label
_atom_site_type_symbol
_atom_type_description
_atom_site_fract_x
_atom_site_fract_y
_atom_site_fract_z
_atom_type_partial_charge
C1    C     C_R   0.620142 0.101320 0.570265 0.542505
C2    C     C_1   0.630415 0.733688 0.616699 -0.007954
C3    C     C_3   0.697797 0.566931 0.768349 0.407499
C4    C     C_3   0.677639 0.659371 0.806233 0.057113
C5    C     C_3   0.588486 0.651803 0.741351 -0.075609
C6    C     C_3   0.661874 0.686854 0.711223 0.005927
C7    C     C_3   0.568263 0.745555 0.779709 -0.151819
C8    C     C_3   0.641212 0.781212 0.748783 -0.128662
C9    C     C_1   0.686956 0.637073 0.858498 -0.016544
C10   C     C_1   0.648305 0.707476 0.658839 -0.050846
C11   C     C_3   0.091304 0.133888 0.738252 -0.099474
C12   C     C_R   0.599516 0.779840 0.568859 0.544558
C13   C     C_3   0.182891 0.059913 0.776272 -0.102034
C14   C     C_1   0.097293 0.201008 0.901879 -0.009088
C15   C     C_1   0.230375 0.137902 0.617774 -0.012867
C16   C     C_3   0.056510 0.242145 0.770043 -0.101778
C17   C     C_3   0.148497 0.168018 0.807226 0.047961
C18   C     C_3   0.145909 0.262296 0.743460 -0.101284
C19   C     C_3   0.180315 0.154320 0.712424 0.052848
C20   C     C_3   0.237453 0.188421 0.781337 -0.103509
C21   C     C_3   0.272379 0.080125 0.749573 -0.103947
C22   C     C_1   0.125436 0.181551 0.859687 -0.051832
C23   C     C_R   0.277925 0.121814 0.569768 0.546926
C24   C     C_1   0.202816 0.146707 0.659979 -0.055095
C25   C     C_3   0.637594 0.272699 0.739916 -0.062992
C26   C     C_3   0.557324 0.263677 0.777729 -0.093521
C27   C     C_1   0.691100 0.207429 0.903069 -0.004704
C28   C     C_1   0.634942 0.133050 0.618551 -0.012197
C29   C     C_3   0.742612 0.194126 0.771397 -0.065010
C30   C     C_3   0.662192 0.184850 0.808401 0.053272
C31   C     C_3   0.754775 0.087358 0.744228 -0.116456
C32   C     C_3   0.649999 0.166104 0.713504 0.036474
C33   C     C_3   0.674605 0.078252 0.781949 -0.112203
C34   C     C_R   0.621900 0.098728 0.430878 0.540751
C35   C     C_3   0.569536 0.156761 0.750455 -0.112070
C36   C     C_1   0.674029 0.195978 0.860881 -0.041180
C37   C     C_1   0.643064 0.151536 0.660940 -0.055904
C38   C     C_R   0.736782 0.701118 0.359240 0.351204
C39   C     C_R   0.748249 0.685021 0.308689 0.043772
C40   C     C_R   0.763752 0.663373 0.206884 0.021782
C41   C     C_R   0.855655 0.655412 0.233921 -0.149870
C42   C     C_R   0.847750 0.666849 0.284500 -0.110435
C43   C     C_R   0.774369 0.641622 0.156887 -0.132378
C44   C     C_R   0.684280 0.641573 0.131218 -0.026952
C45   C     C_R   0.601902 0.775879 0.430240 0.570783
C46   C     C_R   0.549871 0.714750 0.355130 -0.185698
C47   C     C_R   0.557127 0.705750 0.305045 -0.072222
C48   C     C_R   0.655895 0.692091 0.281501 -0.007845
C49   C     C_R   0.464199 0.716107 0.278210 -0.059506
C50   C     C_R   0.468403 0.713480 0.227785 0.415606
C51   C     C_R   0.567887 0.695754 0.203872 0.021932
C52   C     C_R   0.662149 0.684948 0.230724 0.012222
C53   C     C_R   0.578193 0.679432 0.153884 -0.098997
C54   C     C_R   0.634752 0.721669 0.382099 0.018899
C55   C     C_R   0.212025 0.057376 0.358389 -0.134756
C56   C     C_R   0.277414 0.120851 0.431192 0.548016
C57   C     C_R   0.184278 0.071831 0.308978 0.006848
C58   C     C_R   0.144420 0.097120 0.208338 0.007729
C59   C     C_R   0.162251 0.997337 0.231305 -0.101584
C60   C     C_R   0.183078 0.984353 0.281273 -0.121270
C61   C     C_R   0.120885 0.112592 0.158591 -0.126908
C62   C     C_R   0.100618 0.214376 0.136598 -0.003623
C63   C     C_R   0.183144 0.250224 0.363162 -0.119702
C64   C     C_R   0.160520 0.263957 0.313812 0.012658
C65   C     C_R   0.162849 0.173866 0.286321 0.061792
C66   C     C_R   0.142138 0.364010 0.291153 -0.119908
C67   C     C_3   0.771557 0.600453 0.737535 -0.079705
C68   C     C_R   0.128343 0.374040 0.241072 -0.119542
C69   C     C_R   0.129836 0.285381 0.213435 0.011929
C70   C     C_R   0.145882 0.185273 0.235998 0.060657
C71   C     C_R   0.110854 0.297564 0.163796 -0.123802
C72   C     C_R   0.216697 0.144695 0.384902 -0.003471
C73   C     C_R   0.567738 0.236435 0.362717 -0.128863
C74   C     C_R   0.572227 0.254613 0.312961 -0.044954
C75   C     C_R   0.581934 0.287678 0.212645 0.017585
C76   C     C_R   0.505716 0.378927 0.242954 0.374705
C77   C     C_R   0.500331 0.362013 0.292721 -0.096918
C78   C     C_3   0.750938 0.694369 0.776027 -0.151274
C79   C     C_R   0.595373 0.304402 0.163481 -0.104289
C80   C     C_R   0.676733 0.212945 0.134789 -0.025439
C81   C     C_R   0.720515 0.039231 0.352057 -0.121754
C82   C     C_R   0.722767 0.054610 0.302485 0.020089
C83   C     C_R   0.648488 0.162577 0.282671 0.044417
C84   C     C_R   0.796242 0.962454 0.272350 -0.120890
C85   C     C_R   0.797155 0.977208 0.222521 -0.120632
C86   C     C_R   0.726573 0.085015 0.202598 0.018422
C87   C     C_R   0.651372 0.178302 0.232554 0.007948
C88   C     C_R   0.735724 0.102417 0.153664 -0.126655
C89   C     C_1   0.696437 0.609668 0.900498 0.001888
C90   C     C_R   0.640752 0.128221 0.382155 0.000510
C91   C     C_R   0.049299 0.236157 0.949762 0.548770
C92   C     C_R   0.711488 0.563159 0.948248 0.545968
C93   C     C_R   0.722133 0.225386 0.950926 0.546236
C94   C     C_R   0.047270 0.245878 0.088735 0.547501
C95   C     C_R   0.707348 0.576432 0.085870 0.543643
C96   C     C_R   0.718067 0.234143 0.089217 0.544929
Cr1   Cr    Cr6+3 0.417550 0.169090 0.500530 1.028576
Cr2   Cr    Cr6+3 0.669180 0.913420 0.499920 1.080120
Cr3   Cr    Cr6+3 0.413260 0.917540 0.499520 1.023426
Cr4   Cr    Cr6+3 0.909170 0.177380 0.020380 1.030221
Cr5   Cr    Cr6+3 0.912710 0.429210 0.018220 1.027902
Cr6   Cr    Cr6+3 0.657170 0.432570 0.019030 1.044517
H1    H     H_    0.816903 0.712719 0.790795 0.111583
H2    H     H_    0.130237 0.345669 0.729462 0.108332
H3    H     H_    0.476005 0.335907 0.792101 0.112062
H4    H     H_    0.622646 0.352317 0.722103 0.151132
H5    H     H_    0.498093 0.141300 0.741205 0.104271
H6    H     H_    0.689476 0.998537 0.799654 0.106250
H7    H     H_    0.836153 0.015102 0.729906 0.108779
H8    H     H_    0.814299 0.209264 0.780572 0.150926
H9    H     H_    0.855842 0.614564 0.139075 0.126890
H10   H     H_    0.854547 0.539661 0.719974 0.109402
H11   H     H_    0.933861 0.639447 0.215976 0.103900
H12   H     H_    0.919696 0.660957 0.304562 0.163128
H13   H     H_    0.507641 0.682836 0.133502 0.198509
H14   H     H_    0.387804 0.727400 0.296296 0.130186
H15   H     H_    0.471814 0.728113 0.372464 0.142298
H16   H     H_    0.113109 0.048195 0.137615 0.132818
H17   H     H_    0.236974 0.976068 0.375211 0.123893
H18   H     H_    0.160558 0.929288 0.210612 0.168043
H19   H     H_    0.617651 0.870416 0.740025 0.115984
H20   H     H_    0.198317 0.906027 0.298232 0.118668
H21   H     H_    0.095254 0.376503 0.147193 0.135689
H22   H     H_    0.140987 0.433345 0.312001 0.121531
H23   H     H_    0.184413 0.318849 0.383654 0.141986
H24   H     H_    0.505560 0.304892 0.385909 0.121686
H25   H     H_    0.440946 0.433233 0.315505 0.132013
H26   H     H_    0.485160 0.805615 0.797381 0.110459
H27   H     H_    0.855380 0.905215 0.199776 0.112177
H28   H     H_    0.853119 0.879149 0.287360 0.122140
H29   H     H_    0.776145 0.954816 0.366527 0.169755
H30   H     H_    0.198524 0.976624 0.790347 0.106311
H31   H     H_    0.030968 0.111970 0.720091 0.108831
H32   H     H_    0.361574 0.013223 0.740548 0.102466
O1    O     O_R   0.301710 0.195650 0.554160 -0.504797
O2    O     O_R   0.658900 0.818120 0.449760 -0.429865
O3    O     O_R   0.503220 0.801620 0.445520 -0.540492
O4    O     O_R   0.319370 0.022040 0.450020 -0.502762
O5    O     O_3   0.499990 0.000010 0.499990 -0.258999
O6    O     O_R   0.818720 0.150820 0.967160 -0.509355
O7    O     O_R   0.006410 0.181720 0.970200 -0.494226
O8    O     O_R   0.027890 0.334070 0.964920 -0.504472
O9    O     O_R   0.809600 0.521790 0.967960 -0.496816
O10   O     O_R   0.635520 0.542770 0.964420 -0.502615
O11   O     O_R   0.665950 0.325030 0.970100 -0.490308
O12   O     O_R   0.522390 0.158990 0.550460 -0.496286
O13   O     O_R   0.816620 0.158530 0.074540 -0.517610
O14   O     O_R   0.004460 0.188870 0.069750 -0.499240
O15   O     O_R   0.025800 0.341780 0.072300 -0.521109
O16   O     O_R   0.807650 0.528950 0.067500 -0.503020
O17   O     O_R   0.633420 0.550490 0.071810 -0.514521
O18   O     O_R   0.664000 0.332180 0.069640 -0.499185
O19   O     O_3   0.826350 0.346390 0.019210 -0.247323
O20   O     O_R   0.694390 0.003530 0.554040 -0.506010
O21   O     O_R   0.657700 0.819660 0.549320 -0.493578
O22   O     O_R   0.501930 0.803280 0.552920 -0.508005
O23   O     O_R   0.318170 0.023580 0.549580 -0.494474
O24   O     O_R   0.303010 0.193990 0.446760 -0.517216
O25   O     O_R   0.523600 0.157450 0.450900 -0.502263
O26   O     O_R   0.695690 0.001860 0.446640 -0.501240
H33   H     H_    0.297752 0.210431 0.799474 0.104663
H34   H     H_    0.967386 0.309153 0.779049 0.164824
F1    F     F_    0.821289 0.703246 0.385498 -0.647307
F2    F     F_    0.377054 0.723924 0.202519 -0.621169
H35   H     H_    0.115694 0.451370 0.223998 0.118216
H36   H     H_    0.549208 0.389619 0.148583 0.195948
F3    F     F_    0.437138 0.484514 0.224595 -0.609448
H37   H     H_    0.796807 0.031234 0.131236 0.132616
H38   H     H_    0.522954 0.632589 0.726770 0.111304
F4    F     F_    0.726975 0.455928 0.779233 -0.676571

loop_
_geom_bond_atom_site_label_1
_geom_bond_atom_site_label_2
_ccdc_geom_bond_type
Cr4   O19   S    
C66   C68   A    
Cr2   O20   S    
C40   C41   A    
C59   H18   S    
C11   C13   S    
C41   C42   A    
C83   C87   A    
C74   C83   A    
C43   C44   A    
C2    C12   S    
C81   C82   A    
C7    C8    S    
C47   C49   A    
C55   H17   S    
C85   C86   A    
C94   O15   A    
C33   H6    S    
C11   C19   S    
C20   C21   S    
C43   H9    S    
C76   F3    S    
Cr3   O23   S    
Cr1   O25   S    
C71   H21   S    
C19   C21   S    
Cr4   O14   S    
C73   C90   A    
Cr4   O7    S    
C11   H31   S    
Cr6   O11   S    
C5    C6    S    
C86   C88   A    
C8    H19   S    
C81   H29   S    
Cr4   O13   S    
C73   H24   S    
C96   O18   A    
Cr2   O2    S    
Cr5   O16   S    
C17   C20   S    
C25   C29   S    
C18   C19   S    
C73   C74   A    
Cr5   O15   S    
C69   C71   A    
C92   O9    A    
C56   O24   A    
Cr4   O6    S    
C85   H27   S    
Cr2   O21   S    
C44   C53   A    
C42   H12   S    
C40   C43   A    
C31   C32   S    
C16   C17   S    
C88   H37   S    
C74   C77   A    
C1    C28   S    
C31   C33   S    
Cr3   O4    S    
C93   O11   A    
C7    H26   S    
C80   C96   S    
C55   C72   A    
C77   H25   S    
Cr6   O17   S    
C91   O8    A    
C34   O25   A    
C58   C61   A    
C15   C23   S    
C78   H1    S    
C59   C60   A    
C8    C78   S    
Cr3   O5    S    
C1    O12   A    
C61   C62   A    
C67   C78   S    
Cr6   O10   S    
C12   O22   A    
C4    C7    S    
C26   H3    S    
C25   H4    S    
C39   C42   A    
C94   O14   A    
C50   F2    S    
C51   C52   A    
C32   C35   S    
C29   H8    S    
C76   C77   A    
C9    C89   T    
C5    C7    S    
C86   C87   A    
C58   C70   A    
C57   C60   A    
C6    C8    S    
C56   C72   S    
C58   C59   A    
C40   C52   A    
C79   C80   A    
C46   H15   S    
C51   C53   A    
C64   C66   A    
C75   C76   A    
C34   C90   S    
C4    C78   S    
C29   C30   S    
C56   O4    A    
Cr5   O8    S    
C67   H10   S    
C13   C17   S    
C47   C48   A    
C38   C54   A    
Cr5   O19   S    
Cr3   O22   S    
C46   C54   A    
C45   O3    A    
C50   C51   A    
C31   H7    S    
C13   C21   S    
C95   O16   A    
C18   H2    S    
C32   C37   S    
C84   C85   A    
C89   C92   S    
C60   H20   S    
Cr6   O19   S    
C63   H23   S    
C81   C90   A    
C75   C87   A    
C38   F1    S    
Cr2   O26   S    
C45   C54   S    
C26   C30   S    
C82   C84   A    
C55   C57   A    
C49   C50   A    
C66   H22   S    
C27   C93   S    
C95   O17   A    
Cr1   O1    S    
C12   O21   A    
C3    C4    S    
C2    C10   T    
C21   H32   S    
C96   O13   A    
C46   C47   A    
C15   C24   T    
C45   O2    A    
C30   C33   S    
C61   H16   S    
C68   C69   A    
C16   C18   S    
C3    C67   S    
C57   C65   A    
C3    C5    S    
C6    C10   S    
C3    F4    S    
C30   C36   S    
C27   C36   T    
C17   C22   S    
C23   O1    A    
Cr2   O5    S    
C16   H34   S    
Cr1   O24   S    
C14   C22   T    
C62   C94   S    
C19   C24   S    
C25   C26   S    
C41   H11   S    
C80   C88   A    
C93   O6    A    
C6    C67   S    
C68   H35   S    
Cr5   O9    S    
C38   C39   A    
C28   C37   T    
C25   C32   S    
C20   H33   S    
C23   O23   A    
C64   C65   A    
C84   H28   S    
C33   C35   S    
C13   H30   S    
C62   C71   A    
C18   C20   S    
C79   H36   S    
C1    O20   A    
C92   O10   A    
C69   C70   A    
C14   C91   S    
C11   C16   S    
C35   H5    S    
C63   C64   A    
Cr1   O12   S    
C53   H13   S    
C26   C35   S    
C48   C52   A    
C49   H14   S    
C63   C72   A    
C29   C31   S    
C82   C83   A    
C44   C95   S    
C5    H38   S    
Cr3   O3    S    
C4    C9    S    
C75   C79   A    
Cr1   O5    S    
C65   C70   A    
Cr6   O18   S    
C39   C48   A    
C91   O7    A    
C34   O26   A    
