data_mof_unit_43869.cif
_audit_creation_date              2012-12-10T20:24:42-0500
_audit_creation_method            fapswitch 2.2
_symmetry_space_group_name_H-M    P1
_symmetry_Int_Tables_number       1
_space_group_crystal_system       triclinic
_cell_length_a                    10.706865
_cell_length_b                    19.295543
_cell_length_c                    18.510628
_cell_angle_alpha                 88.062593
_cell_angle_beta                  87.693566
_cell_angle_gamma                 91.73331
_cell_volume                      3817.00322652

loop_
_atom_site_label
_atom_site_type_symbol
_atom_type_description
_atom_site_fract_x
_atom_site_fract_y
_atom_site_fract_z
_atom_type_partial_charge
C1    C     C_R   0.504620 0.366044 0.500863 0.849039
C2    C     C_R   0.493983 0.634298 0.499465 0.841515
C3    C     C_R   0.872431 0.496203 0.498648 -0.081164
C4    C     C_R   0.127797 0.507715 0.501707 -0.078931
C5    C     C_R   0.932972 0.464676 0.556770 0.008505
C6    C     C_R   0.067236 0.539323 0.443353 0.011392
C7    C     C_R   0.530018 0.747894 0.438077 -0.254383
C8    C     C_R   0.440147 0.252003 0.552420 -0.263644
C9    C     C_R   0.529158 0.819494 0.435777 -0.181706
C10   C     C_R   0.440871 0.180416 0.552527 -0.177113
C11   C     C_R   0.476186 0.854126 0.493769 0.092405
C12   C     C_R   0.516639 0.147762 0.501813 0.084638
C13   C     C_R   0.419057 0.816685 0.552687 -0.210231
C14   C     C_R   0.595466 0.186446 0.452749 -0.208729
C15   C     C_R   0.420697 0.744370 0.556856 0.101955
C16   C     C_R   0.597841 0.258711 0.452999 0.091774
C17   C     C_R   0.480160 0.709508 0.498640 -0.061406
C18   C     C_R   0.516081 0.291458 0.502362 -0.055545
C19   C     C_R   0.520611 0.961063 0.559096 -0.188045
C20   C     C_R   0.479195 0.041807 0.434577 -0.185678
C21   C     C_R   0.531321 0.032617 0.561073 -0.192848
C22   C     C_R   0.466794 0.970155 0.432794 -0.192077
C23   C     C_R   0.260199 0.503342 0.500764 0.854985
C24   C     C_R   0.739892 0.497686 0.499187 0.864735
C25   C     C_R   0.510465 0.072914 0.498888 0.117566
C26   C     C_R   0.487016 0.929527 0.495178 0.121747
C27   C     C_R   0.548987 0.558400 0.719312 -0.017212
C28   C     C_R   0.396418 0.470529 0.281098 0.018170
C29   C     C_R   0.546989 0.566350 0.795083 -0.300178
C30   C     C_R   0.382793 0.470039 0.205304 -0.298584
C31   C     C_R   0.495300 0.513367 0.841869 0.091043
C32   C     C_R   0.476252 0.500500 0.158155 0.091136
C33   C     C_R   0.449772 0.453617 0.811140 -0.295656
C34   C     C_R   0.580482 0.530112 0.188501 -0.289855
C35   C     C_R   0.453215 0.446358 0.735717 0.264645
C36   C     C_R   0.594180 0.528315 0.263835 0.253635
C37   C     C_R   0.562600 0.466209 0.960375 -0.227236
C38   C     C_R   0.402485 0.548894 0.039911 -0.222868
C39   C     C_R   0.554021 0.457346 0.036595 0.117284
C40   C     C_R   0.409809 0.556871 0.963113 0.114478
C41   C     C_R   0.473228 0.499873 0.077041 0.033911
C42   C     C_R   0.492978 0.515409 0.923071 0.036442
C43   C     C_R   0.270452 0.672602 0.333560 -0.119649
C44   C     C_R   0.736253 0.321146 0.654154 -0.134791
C45   C     C_R   0.209505 0.636743 0.392415 -0.097005
C46   C     C_R   0.800917 0.360568 0.599131 -0.121629
C47   C     C_R   0.132961 0.577952 0.381409 0.133625
C48   C     C_R   0.866825 0.421765 0.615285 0.135040
C49   C     C_R   0.115902 0.556787 0.310411 -0.183525
C50   C     C_R   0.868375 0.442524 0.687280 -0.135448
C51   C     C_R   0.176333 0.593078 0.251697 -0.134462
C52   C     C_R   0.802869 0.403194 0.742091 -0.123458
C53   C     C_R   0.254356 0.650606 0.263305 -0.115976
C54   C     C_R   0.736814 0.342586 0.725531 -0.138965
C55   C     C_R   0.938896 0.533761 0.443571 -0.279560
C56   C     C_R   0.060550 0.472929 0.558507 -0.270426
H1    H     H_    0.301739 0.678360 0.217832 0.118281
H2    H     H_    0.685774 0.312347 0.767971 0.117536
H3    H     H_    0.539485 0.930360 0.607279 0.129665
H4    H     H_    0.461833 0.073068 0.386502 0.131704
H5    H     H_    0.556389 0.056622 0.610779 0.131398
H6    H     H_    0.439949 0.946571 0.383226 0.128354
H7    H     H_    0.590930 0.599482 0.684505 0.137185
H8    H     H_    0.323092 0.446766 0.316259 0.142422
H9    H     H_    0.586789 0.613090 0.816798 0.140037
H10   H     H_    0.300296 0.445820 0.183873 0.139997
H11   H     H_    0.410924 0.412034 0.846908 0.140874
H12   H     H_    0.653529 0.553535 0.152470 0.139532
H13   H     H_    0.622785 0.434204 0.928262 0.137362
H14   H     H_    0.343241 0.581328 0.072123 0.135368
H15   H     H_    0.329554 0.717738 0.342338 0.133877
H16   H     H_    0.685054 0.274205 0.641387 0.136842
H17   H     H_    0.221271 0.655121 0.446224 0.087757
H18   H     H_    0.799574 0.343590 0.544051 0.096025
H19   H     H_    0.056376 0.511967 0.300629 0.124757
H20   H     H_    0.918632 0.489627 0.700659 0.119372
H21   H     H_    0.163364 0.576295 0.197219 0.123575
H22   H     H_    0.802904 0.419823 0.797359 0.123389
H23   H     H_    0.890929 0.561051 0.401900 0.163926
H24   H     H_    0.107405 0.448627 0.602427 0.154053
H25   H     H_    0.574040 0.722828 0.393172 0.152633
H26   H     H_    0.376931 0.276500 0.589752 0.160171
H27   H     H_    0.574209 0.847790 0.389844 0.134571
H28   H     H_    0.379258 0.150451 0.590445 0.138515
H29   H     H_    0.374672 0.844430 0.596207 0.124609
H30   H     H_    0.655805 0.160168 0.414762 0.133129
N1    N     N_R   0.500020 0.499980 0.689440 -0.094003
N2    N     N_R   0.499980 0.500020 0.310560 -0.095521
O1    O     O_R   0.500010 0.398180 0.560840 -0.630973
O2    O     O_R   0.499990 0.601820 0.439160 -0.623837
O3    O     O_R   0.499950 0.398180 0.439210 -0.618184
O4    O     O_R   0.500050 0.601820 0.560790 -0.627595
O5    O     O_R   0.316790 0.500010 0.560810 -0.633494
O6    O     O_R   0.683210 0.499990 0.439190 -0.646192
O7    O     O_R   0.316730 0.500000 0.439190 -0.615495
O8    O     O_R   0.683270 0.500000 0.560810 -0.598926
Zn1   Zn    Zn3+2 0.500040 0.500000 0.581210 0.936871
Zn2   Zn    Zn3+2 0.499960 0.500000 0.418790 0.934618
C57   C     C_3   0.360407 0.708348 0.624539 -0.421618
C58   C     C_3   0.240396 0.667339 0.608610 -0.306039
C59   C     C_3   0.188563 0.626020 0.675574 -0.863047
H31   H     H_    0.257361 0.587779 0.693641 0.269199
H32   H     H_    0.167064 0.661341 0.720260 0.250468
H33   H     H_    0.101258 0.597438 0.662425 0.245358
H34   H     H_    0.168830 0.703696 0.589972 0.208463
H35   H     H_    0.258905 0.630694 0.565273 0.219921
H36   H     H_    0.428247 0.675218 0.651552 0.219915
H37   H     H_    0.335052 0.747042 0.665425 0.182232
C60   C     C_3   0.691213 0.298212 0.402188 -0.425179
C61   C     C_3   0.643778 0.302868 0.325194 -0.292154
C62   C     C_3   0.735494 0.344871 0.274659 -0.909504
H38   H     H_    0.751521 0.397600 0.295179 0.262253
H39   H     H_    0.826113 0.318535 0.269827 0.258313
H40   H     H_    0.696125 0.349907 0.220398 0.254363
H41   H     H_    0.631454 0.249915 0.304154 0.204828
H42   H     H_    0.551741 0.327970 0.325271 0.240048
H43   H     H_    0.712144 0.350987 0.421455 0.205328
H44   H     H_    0.781692 0.271331 0.401740 0.188811
C63   C     C_3   0.403847 0.377225 0.711044 -0.405330
C64   C     C_3   0.273146 0.382443 0.680581 -0.310882
C65   C     C_3   0.186161 0.321114 0.705090 -0.944568
H45   H     H_    0.227636 0.271340 0.689947 0.259939
H46   H     H_    0.168853 0.320799 0.764677 0.268290
H47   H     H_    0.095142 0.325816 0.678868 0.264871
H48   H     H_    0.228691 0.430650 0.698564 0.219062
H49   H     H_    0.281568 0.383707 0.620784 0.241726
H50   H     H_    0.471851 0.353245 0.674408 0.213353
H51   H     H_    0.398430 0.339025 0.757583 0.175852
C66   C     C_3   0.718401 0.556069 0.287906 -0.420381
C67   C     C_3   0.709206 0.628717 0.318664 -0.300142
C68   C     C_3   0.821778 0.676077 0.295516 -0.942685
H52   H     H_    0.909966 0.653049 0.312664 0.276549
H53   H     H_    0.826473 0.684682 0.235816 0.266628
H54   H     H_    0.812348 0.727047 0.320979 0.253578
H55   H     H_    0.623824 0.653898 0.299673 0.218573
H56   H     H_    0.704302 0.624357 0.378464 0.243547
H57   H     H_    0.760303 0.518065 0.324198 0.197905
H58   H     H_    0.787359 0.558771 0.241157 0.180458
C69   C     C_3   0.629149 0.403132 0.076272 -0.419629
C70   C     C_3   0.700560 0.352791 0.028285 -0.365379
C71   C     C_3   0.765949 0.298544 0.073866 -0.897446
H59   H     H_    0.835203 0.324051 0.108242 0.262825
H60   H     H_    0.696568 0.267661 0.108825 0.262711
H61   H     H_    0.815935 0.262834 0.037747 0.250072
H62   H     H_    0.634387 0.325546 0.993253 0.221589
H63   H     H_    0.772946 0.381979 0.993751 0.219614
H64   H     H_    0.697758 0.430359 0.109695 0.201673
H65   H     H_    0.563239 0.371874 0.113223 0.207394
C72   C     C_3   0.329439 0.607450 0.922193 -0.408749
C73   C     C_3   0.234957 0.646879 0.968595 -0.365254
C74   C     C_3   0.156524 0.693527 0.921379 -0.890674
H66   H     H_    0.217580 0.732242 0.889954 0.259136
H67   H     H_    0.102869 0.662020 0.883387 0.259671
H68   H     H_    0.089470 0.721576 0.956170 0.248918
H69   H     H_    0.171016 0.609396 0.999848 0.220930
H70   H     H_    0.285371 0.679886 0.006744 0.218943
H71   H     H_    0.392457 0.646020 0.891868 0.199212
H72   H     H_    0.276606 0.577906 0.882135 0.210274

loop_
_geom_bond_atom_site_label_1
_geom_bond_atom_site_label_2
_ccdc_geom_bond_type
C38   C40   A    
C38   H14   S    
C7    C9    A    
C59   H31   S    
C1    O1    A    
C31   C42   S    
C37   H13   S    
C27   C29   A    
C11   C13   A    
C5    C56   A    
C35   C63   S    
C67   H55   S    
C6    C55   A    
C68   H54   S    
O7    Zn2   S    
C60   H43   S    
C39   C41   A    
C36   N2    A    
C57   H37   S    
C69   H64   S    
C1    C18   S    
C8    H26   S    
C19   C21   A    
C48   C50   A    
C61   H42   S    
C24   O6    A    
C24   O8    A    
C64   H49   S    
C72   C73   S    
C20   C25   A    
O6    Zn2   S    
C45   H17   S    
C74   H68   S    
C37   C42   A    
C2    O2    A    
C19   C26   A    
C61   C62   S    
C65   H47   S    
C35   N1    A    
C43   C53   A    
C66   H58   S    
C62   H38   S    
C44   C46   A    
C49   C51   A    
O4    Zn1   S    
C50   C52   A    
C32   C41   S    
C49   H19   S    
C20   H4    S    
C72   H72   S    
C21   H5    S    
C3    C5    A    
C63   H51   S    
C40   C42   A    
C59   H32   S    
C73   H70   S    
C4    C56   A    
C2    C17   S    
C29   C31   A    
C3    C24   S    
C71   H59   S    
C3    C55   A    
C52   H22   S    
C52   C54   A    
C16   C60   S    
C46   C48   A    
C45   C47   A    
C5    C48   S    
C39   C69   S    
C69   H65   S    
C6    C47   S    
C70   C71   S    
C14   H30   S    
C38   C41   A    
C4    C6    A    
C71   H61   S    
C34   H12   S    
C4    C23   S    
C53   H1    S    
C64   H48   S    
C11   C26   S    
C19   H3    S    
C8    C18   A    
C23   O5    A    
O1    Zn1   S    
C51   C53   A    
C32   C34   A    
C27   N1    A    
C51   H21   S    
C28   N2    A    
C50   H20   S    
C22   H6    S    
C55   H23   S    
C57   C58   S    
C74   H66   S    
O8    Zn1   S    
C31   C33   A    
C58   H34   S    
C62   H39   S    
C2    O4    A    
C43   C45   A    
C9    C11   A    
C65   H45   S    
C30   H10   S    
C10   C12   A    
C9    H27   S    
C29   H9    S    
C28   H8    S    
C16   C18   A    
C7    H25   S    
C12   C14   A    
C59   H33   S    
C73   H69   S    
C13   C15   A    
C14   C16   A    
C70   H63   S    
C68   H52   S    
O5    Zn1   S    
C46   H18   S    
C64   C65   S    
C33   H11   S    
C66   C67   S    
C54   H2    S    
C15   C17   A    
C21   C25   A    
C43   H15   S    
C67   H56   S    
C20   C22   A    
C68   H53   S    
C7    C17   A    
C70   H62   S    
C63   C64   S    
C60   H44   S    
C47   C49   A    
C57   H36   S    
C58   H35   S    
C56   H24   S    
C12   C25   S    
C71   H60   S    
C67   C68   S    
C28   C30   A    
C37   C39   A    
C36   C66   S    
C30   C32   A    
C69   C70   S    
C15   C57   S    
C1    O3    A    
C10   H28   S    
C58   C59   S    
C33   C35   A    
C23   O7    A    
C40   C72   S    
C44   H16   S    
C62   H40   S    
C34   C36   A    
C74   H67   S    
O3    Zn2   S    
C65   H46   S    
C44   C54   A    
C66   H57   S    
C8    C10   A    
C22   C26   A    
C13   H29   S    
C73   C74   S    
C27   H7    S    
C60   C61   S    
C72   H71   S    
C61   H41   S    
O2    Zn2   S    
N2    Zn2   S    
N1    Zn1   S    
C63   H50   S    
