data_mof_unit_29689.cif
_audit_creation_date              2013-03-05T15:40:02-0500
_audit_creation_method            fapswitch 2.2
_symmetry_space_group_name_H-M    P1
_symmetry_Int_Tables_number       1
_space_group_crystal_system       triclinic
_cell_length_a                    24.292865
_cell_length_b                    17.298383
_cell_length_c                    15.7652
_cell_angle_alpha                 90.150407
_cell_angle_beta                  129.065817
_cell_angle_gamma                 89.946948
_cell_volume                      5143.75380269

loop_
_atom_site_label
_atom_site_type_symbol
_atom_site_description
_atom_site_fract_x
_atom_site_fract_y
_atom_site_fract_z
_atom_type_partial_charge
C1    C     C_R   0.343990 0.367403 0.231957 0.354477
C2    C     C_R   0.647968 0.359440 0.753091 0.348808
C3    C     C_R   0.853266 0.857823 0.247287 0.325920
C4    C     C_R   0.148687 0.859972 0.754147 0.354780
N1    N     N_R   0.389060 0.424180 0.294540 -0.090374
N2    N     N_R   0.610940 0.424180 0.705460 -0.104104
N3    N     N_R   0.889060 0.924180 0.294540 -0.105336
N4    N     N_R   0.110940 0.924180 0.705460 -0.102326
C5    C     C_R   0.616420 0.399844 0.410601 0.268086
C6    C     C_R   0.384206 0.399779 0.589791 0.277270
C7    C     C_R   0.117347 0.901406 0.411338 0.263523
C8    C     C_R   0.885712 0.895540 0.590992 0.252615
N5    N     N_R   0.579670 0.423790 0.443360 -0.101000
N6    N     N_R   0.420330 0.423790 0.556640 -0.099546
N7    N     N_R   0.079670 0.923790 0.443360 -0.100268
N8    N     N_R   0.920330 0.923790 0.556640 -0.096428
C9    C     C_R   0.690367 0.406335 0.589769 -0.004391
C10   C     C_R   0.310394 0.401307 0.409383 -0.109201
C11   C     C_R   0.190205 0.905165 0.590546 -0.036026
C12   C     C_R   0.810936 0.901508 0.411429 -0.034059
H1    H     H_    0.738361 0.424239 0.667853 0.197334
H2    H     H_    0.262400 0.410864 0.327872 0.224352
H3    H     H_    0.237282 0.921490 0.669357 0.173752
H4    H     H_    0.761542 0.912700 0.331903 0.209674
N9    N     N_R   0.625470 0.423490 0.556600 -0.099976
N10   N     N_R   0.374530 0.423490 0.443400 -0.090705
N11   N     N_R   0.125470 0.923490 0.556600 -0.096861
N12   N     N_R   0.874530 0.923490 0.443400 -0.090379
C13   C     C_R   0.555622 0.356064 0.749116 -0.113559
C14   C     C_R   0.437054 0.361054 0.235927 -0.116885
C15   C     C_R   0.055399 0.855364 0.747804 -0.097974
C16   C     C_R   0.945243 0.856634 0.250463 -0.102391
H5    H     H_    0.516930 0.336580 0.756694 0.190502
H6    H     H_    0.473033 0.342800 0.221757 0.192090
H7    H     H_    0.016081 0.834993 0.753641 0.172411
H8    H     H_    0.984501 0.838340 0.243313 0.183385
N13   N     N_R   0.555250 0.423100 0.705420 -0.059147
N14   N     N_R   0.444750 0.423100 0.294580 -0.058952
N15   N     N_R   0.055250 0.923100 0.705420 -0.056668
N16   N     N_R   0.944750 0.923100 0.294580 -0.058279
C17   C     C_R   0.374247 0.324014 0.196665 -0.087153
C18   C     C_R   0.614042 0.314875 0.780550 -0.074643
C19   C     C_R   0.887814 0.814292 0.219857 -0.068033
C20   C     C_R   0.114349 0.814585 0.780172 -0.081397
C21   C     C_R   0.686860 0.389152 0.501282 0.009232
C22   C     C_R   0.314183 0.387631 0.499414 0.020563
C23   C     C_R   0.187716 0.889666 0.502664 0.030622
C24   C     C_R   0.817085 0.878758 0.500420 -0.026410
C25   C     C_R   0.336365 0.641393 0.405081 -0.218593
C26   C     C_R   0.657802 0.645946 0.590969 -0.205451
C27   C     C_R   0.835252 0.140298 0.404346 -0.225735
C28   C     C_R   0.163342 0.141454 0.594704 -0.211665
H9    H     H_    0.296054 0.654148 0.319708 0.142762
H10   H     H_    0.694512 0.664408 0.675027 0.164690
H11   H     H_    0.794073 0.151643 0.318865 0.141103
H12   H     H_    0.203995 0.154031 0.679769 0.139427
N17   N     N_R   0.375210 0.577180 0.443400 -0.077134
N18   N     N_R   0.624790 0.577180 0.556600 -0.085627
N19   N     N_R   0.875210 0.077180 0.443400 -0.080275
N20   N     N_R   0.124790 0.077180 0.556600 -0.084530
C29   C     C_R   0.422792 0.602850 0.197539 0.101831
C30   C     C_R   0.577402 0.603618 0.802565 0.098089
C31   C     C_R   0.923484 0.103993 0.198580 0.107590
C32   C     C_R   0.077413 0.106998 0.801533 0.073032
H13   H     H_    0.452516 0.598606 0.167983 0.178744
H14   H     H_    0.547820 0.599237 0.832336 0.169037
H15   H     H_    0.953297 0.099597 0.169195 0.174957
H16   H     H_    0.048540 0.103785 0.832564 0.159861
N21   N     N_R   0.445430 0.577570 0.294580 -0.066447
N22   N     N_R   0.554570 0.577570 0.705420 -0.058286
N23   N     N_R   0.945430 0.077570 0.294580 -0.059261
N24   N     N_R   0.054570 0.077570 0.705420 -0.054079
C33   C     C_R   0.668368 0.603410 0.801295 -0.146664
C34   C     C_R   0.331497 0.602598 0.197948 -0.101807
C35   C     C_R   0.168075 0.106174 0.799661 -0.118070
C36   C     C_R   0.831943 0.103839 0.198607 -0.143200
H17   H     H_    0.720983 0.601626 0.825852 0.175747
H18   H     H_    0.278306 0.600665 0.171377 0.181531
H19   H     H_    0.220657 0.104620 0.824232 0.167357
H20   H     H_    0.778693 0.102143 0.171767 0.159672
N25   N     N_R   0.611620 0.576500 0.705460 -0.055766
N26   N     N_R   0.388380 0.576500 0.294540 -0.053032
N27   N     N_R   0.111620 0.076500 0.705460 -0.054168
N28   N     N_R   0.888380 0.076500 0.294540 -0.051913
C37   C     C_R   0.407348 0.643411 0.586374 0.589980
C38   C     C_R   0.589581 0.642357 0.409770 0.567404
C39   C     C_R   0.907218 0.143800 0.585639 0.586449
C40   C     C_R   0.092239 0.143054 0.413340 0.572445
N29   N     N_R   0.421010 0.576890 0.556640 -0.113214
N30   N     N_R   0.578990 0.576890 0.443360 -0.112340
N31   N     N_R   0.921010 0.076890 0.556640 -0.109027
N32   N     N_R   0.078990 0.076890 0.443360 -0.110701
Ni1   Ni    Ni4+2 0.383200 0.500680 0.370150 0.241781
Ni2   Ni    Ni4+2 0.616800 0.500680 0.629850 0.215475
Ni3   Ni    Ni4+2 0.883200 0.000680 0.370150 0.212666
Ni4   Ni    Ni4+2 0.116800 0.000680 0.629850 0.222246
Ni5   Ni    Ni4+2 0.512440 0.500680 0.370150 0.270788
Ni6   Ni    Ni4+2 0.487560 0.500680 0.629850 0.269628
Ni7   Ni    Ni4+2 0.012440 0.000680 0.370150 0.275975
Ni8   Ni    Ni4+2 0.987560 0.000680 0.629850 0.274996
C41   C     C_R   0.357731 0.687430 0.492466 -0.084573
C42   C     C_R   0.634502 0.690137 0.500360 -0.108206
C43   C     C_R   0.856422 0.186753 0.490960 -0.082525
C44   C     C_R   0.141786 0.187225 0.507385 -0.078683
C45   C     C_R   0.351664 0.618992 0.135311 -0.046034
C46   C     C_R   0.648635 0.620354 0.864616 -0.024363
C47   C     C_R   0.852711 0.121311 0.136892 -0.023679
C48   C     C_R   0.148509 0.125887 0.862442 -0.017285
C49   C     C_2   0.639624 0.809649 0.417744 0.083775
C50   C     C_2   0.358083 0.817187 0.563244 0.128256
C51   C     C_2   0.143317 0.313844 0.434655 0.099911
C52   C     C_2   0.855047 0.317093 0.557151 0.046557
C53   C     C_2   0.657489 0.770794 0.506561 0.311315
C54   C     C_2   0.326834 0.764901 0.480251 0.353351
C55   C     C_2   0.173052 0.264280 0.520424 0.344595
C56   C     C_2   0.823876 0.263254 0.476727 0.378986
C57   C     C_2   0.187906 0.362596 0.419612 0.436271
C58   C     C_2   0.811749 0.355041 0.584105 0.464974
C59   C     C_2   0.691941 0.861727 0.426934 0.472106
C60   C     C_2   0.314144 0.857361 0.587091 0.450822
C61   C     C_2   0.255872 0.379908 0.504203 -0.329744
C62   C     C_2   0.747492 0.383967 0.501187 -0.223038
C63   C     C_2   0.761790 0.844233 0.499263 -0.232977
C64   C     C_2   0.249024 0.884810 0.503748 -0.293157
H21   H     H_    0.271581 0.385184 0.584280 0.200305
H22   H     H_    0.736262 0.398043 0.425331 0.156021
H23   H     H_    0.780142 0.797175 0.556622 0.186665
H24   H     H_    0.237809 0.898404 0.427889 0.175832
H25   H     H_    0.742844 0.277044 0.933148 0.159390
H26   H     H_    0.304371 0.205014 0.197792 0.180501
H27   H     H_    0.242631 0.776254 0.937228 0.166770
H28   H     H_    0.759632 0.774195 0.069783 0.154238
C65   C     C_2   0.637502 0.241163 0.837153 -0.150864
C66   C     C_2   0.344139 0.256603 0.124652 -0.142135
C67   C     C_2   0.137210 0.740065 0.835011 -0.140316
C68   C     C_2   0.865288 0.739424 0.165115 -0.128797
C69   C     C_2   0.706818 0.229260 0.909476 -0.115563
C70   C     C_2   0.308168 0.202896 0.132911 -0.186997
C71   C     C_2   0.206268 0.728197 0.910376 -0.100099
C72   C     C_2   0.795942 0.726741 0.093183 -0.064112
C73   C     C_2   0.308001 0.648795 0.024259 0.117843
C74   C     C_2   0.693581 0.648477 0.977415 0.093262
C75   C     C_2   0.809571 0.151961 0.026500 0.132838
C76   C     C_2   0.194113 0.154640 0.975930 0.196226
C77   C     C_2   0.237142 0.654419 0.964059 0.400063
C78   C     C_2   0.764653 0.653927 0.036460 0.397671
C79   C     C_2   0.738753 0.156410 0.965377 0.403284
C80   C     C_2   0.265645 0.146200 0.044234 0.360957
H29   H     H_    0.599037 0.198250 0.819898 0.158796
H30   H     H_    0.349988 0.252015 0.061896 0.166784
H31   H     H_    0.098453 0.696188 0.813520 0.157676
H32   H     H_    0.903868 0.696398 0.182861 0.160716
N33   N     N_R   0.270017 0.373086 0.178308 0.217597
O1    O     O_R   0.240769 0.441096 0.151158 -0.479548
O2    O     O_R   0.236122 0.315261 0.178518 -0.372796
N34   N     N_R   0.711581 0.340228 0.771239 0.216250
O3    O     O_R   0.768176 0.381517 0.838923 -0.483146
O4    O     O_R   0.715928 0.275588 0.733456 -0.376323
N35   N     N_R   0.796657 0.829645 0.243431 0.216808
O5    O     O_R   0.733274 0.857425 0.171912 -0.435065
O6    O     O_R   0.804726 0.765039 0.292231 -0.387354
N36   N     N_R   0.215169 0.844114 0.779659 0.214256
O7    O     O_R   0.269113 0.888777 0.847757 -0.472971
O8    O     O_R   0.224268 0.780122 0.746424 -0.367836
O9    O     O_3   0.707243 0.802767 0.609508 -0.657648
C81   C     C_3   0.671872 0.833166 0.647028 0.271927
H33   H     H_    0.711298 0.837518 0.737476 0.137621
H34   H     H_    0.628732 0.794609 0.628786 0.114591
C82   C     C_3   0.642658 0.914164 0.600536 -0.375179
H35   H     H_    0.686955 0.952654 0.624601 0.216021
H36   H     H_    0.603487 0.911929 0.509995 0.205591
C83   C     C_3   0.606219 0.947567 0.643120 -0.933137
H37   H     H_    0.558550 0.912866 0.613077 0.310459
H38   H     H_    0.589743 0.008074 0.614573 0.261953
H39   H     H_    0.643452 0.946894 0.733524 0.245013
O10   O     O_3   0.262150 0.782257 0.379891 -0.646880
C84   C     C_3   0.273442 0.807447 0.305908 0.237516
H40   H     H_    0.229699 0.783849 0.223855 0.145273
H41   H     H_    0.323803 0.785862 0.326010 0.095565
C85   C     C_3   0.272221 0.895846 0.298181 -0.315514
H42   H     H_    0.219573 0.917935 0.267115 0.245375
H43   H     H_    0.313649 0.920954 0.380379 0.193203
C86   C     C_3   0.285986 0.922597 0.220867 -0.989405
H44   H     H_    0.339259 0.903468 0.251061 0.276653
H45   H     H_    0.283884 0.986717 0.216322 0.263929
H46   H     H_    0.245041 0.898883 0.137535 0.274960
O11   O     O_3   0.237906 0.280158 0.621327 -0.653226
C87   C     C_3   0.227986 0.303287 0.697568 0.221651
H47   H     H_    0.263442 0.267227 0.771915 0.136133
H48   H     H_    0.172851 0.295026 0.668500 0.109994
C88   C     C_3   0.249121 0.387894 0.730713 -0.307779
H49   H     H_    0.303609 0.397499 0.759479 0.262025
H50   H     H_    0.211952 0.425662 0.659075 0.184135
C89   C     C_3   0.247852 0.410235 0.823047 -0.983340
H51   H     H_    0.193139 0.405312 0.795386 0.268336
H52   H     H_    0.266504 0.470777 0.848161 0.267308
H53   H     H_    0.283736 0.372312 0.895067 0.273990
O12   O     O_3   0.757879 0.278532 0.377172 -0.655981
C90   C     C_3   0.766090 0.301515 0.298918 0.235780
H54   H     H_    0.723352 0.273164 0.220062 0.140236
H55   H     H_    0.817353 0.283266 0.319378 0.104260
C91   C     C_3   0.758935 0.389224 0.281781 -0.298034
H56   H     H_    0.706235 0.408420 0.253646 0.249905
H57   H     H_    0.800858 0.418774 0.360062 0.200673
C92   C     C_3   0.766265 0.413187 0.196235 -0.997103
H58   H     H_    0.819628 0.397590 0.223781 0.276700
H59   H     H_    0.759355 0.476727 0.184268 0.269200
H60   H     H_    0.725191 0.384346 0.116848 0.273782
O13   O     O_3   0.160098 0.381632 0.314213 -0.605438
C93   C     C_3   0.139708 0.460349 0.297032 0.249012
H61   H     H_    0.187587 0.498116 0.345223 0.085893
H62   H     H_    0.106149 0.473116 0.321143 0.094886
C94   C     C_3   0.096444 0.479276 0.175957 -0.274846
H63   H     H_    0.126402 0.461379 0.147667 0.248206
H64   H     H_    0.045738 0.446684 0.128592 0.217656
C95   C     C_3   0.080034 0.565501 0.154815 -0.986398
H65   H     H_    0.050638 0.584688 0.183634 0.270765
H66   H     H_    0.046672 0.576926 0.065810 0.275364
H67   H     H_    0.129919 0.599324 0.197613 0.283802
O14   O     O_3   0.826502 0.341722 0.684027 -0.645410
C96   C     C_3   0.899952 0.343709 0.772639 0.162614
H68   H     H_    0.923426 0.399193 0.774028 0.147143
H69   H     H_    0.926777 0.293790 0.767973 0.183800
C97   C     C_3   0.912502 0.338811 0.880310 -0.317382
H70   H     H_    0.900702 0.395656 0.898675 0.213875
H71   H     H_    0.876667 0.295138 0.873578 0.313688
C98   C     C_3   0.989003 0.316270 0.973969 -0.778050
H72   H     H_    0.000410 0.257490 0.960020 0.296935
H73   H     H_    0.997243 0.315629 0.051439 0.309079
H74   H     H_    0.026384 0.358297 0.981477 0.253101
O15   O     O_3   0.667082 0.917160 0.346927 -0.616774
C99   C     C_3   0.674088 0.990777 0.391425 0.182568
H75   H     H_    0.730986 0.004687 0.457710 0.093248
H76   H     H_    0.644500 0.993400 0.423841 0.089792
C100  C     C_3   0.643562 0.051322 0.301630 -0.300184
H77   H     H_    0.672630 0.049126 0.268524 0.205661
H78   H     H_    0.586780 0.038299 0.234125 0.216291
C101  C     C_3   0.649809 0.132530 0.344936 -0.891646
H79   H     H_    0.620420 0.136501 0.377313 0.256526
H80   H     H_    0.627197 0.175112 0.277899 0.300948
H81   H     H_    0.706312 0.147150 0.410841 0.271799
O16   O     O_3   0.332446 0.845419 0.689157 -0.624144
C102  C     C_3   0.376921 0.906038 0.762158 0.269310
H82   H     H_    0.351169 0.935409 0.791543 0.114677
H83   H     H_    0.386959 0.952886 0.724922 0.082134
C103  C     C_3   0.447702 0.873655 0.862505 -0.414443
H84   H     H_    0.473522 0.838639 0.837322 0.280659
H85   H     H_    0.483142 0.922810 0.913225 0.162577
C104  C     C_3   0.438606 0.823531 0.932230 -0.477166
H86   H     H_    0.491161 0.801783 0.003929 0.264461
H87   H     H_    0.404259 0.773235 0.884412 0.285836
H88   H     H_    0.414849 0.857661 0.961658 0.253982
O17   O     O_3   0.197514 0.603699 0.974315 -0.648285
C105  C     C_3   0.179247 0.538423 0.906677 0.194551
H89   H     H_    0.215285 0.489812 0.957744 0.160046
H90   H     H_    0.183069 0.548902 0.840586 0.059095
C106  C     C_3   0.102263 0.514810 0.848919 -0.281002
H91   H     H_    0.066702 0.564494 0.801381 0.194840
H92   H     H_    0.087413 0.467257 0.790380 0.209246
C107  C     C_3   0.090568 0.487456 0.928331 -0.692560
H93   H     H_    0.117331 0.431132 0.964351 0.291468
H94   H     H_    0.032997 0.479462 0.883949 0.217166
H95   H     H_    0.110985 0.530801 0.994094 0.276203
O18   O     O_3   0.802411 0.609585 0.015687 -0.671563
C108  C     C_3   0.815501 0.536399 0.064005 0.159340
H96   H     H_    0.765431 0.502252 0.017834 0.124523
H97   H     H_    0.838433 0.541665 0.151312 0.113267
C109  C     C_3   0.869129 0.494440 0.059971 -0.332301
H98   H     H_    0.848622 0.491651 0.974090 0.243991
H99   H     H_    0.919749 0.527426 0.108195 0.202735
C110  C     C_3   0.883591 0.412829 0.105683 -0.749837
H100  H     H_    0.910535 0.414838 0.194444 0.262028
H101  H     H_    0.918519 0.382912 0.093535 0.305590
H102  H     H_    0.833427 0.379607 0.062723 0.258941
O19   O     O_3   0.700105 0.105041 0.976382 -0.657223
C111  C     C_3   0.669807 0.050054 0.891446 0.192785
H103  H     H_    0.711364 0.009097 0.909379 0.107135
H104  H     H_    0.645022 0.077612 0.810710 0.082691
C112  C     C_3   0.611215 0.005868 0.880510 -0.401927
H105  H     H_    0.574072 0.047255 0.875085 0.218378
H106  H     H_    0.580776 0.971105 0.804249 0.228589
C113  C     C_3   0.641768 0.951737 0.976539 -0.599585
H107  H     H_    0.678188 0.909780 0.981059 0.244238
H108  H     H_    0.598486 0.918958 0.965518 0.250222
H109  H     H_    0.670865 0.985291 0.053898 0.259353
O20   O     O_3   0.298778 0.104212 0.012844 -0.679361
C114  C     C_3   0.344904 0.049103 0.093669 0.219432
H110  H     H_    0.313102 0.999363 0.086262 0.129600
H111  H     H_    0.377119 0.073143 0.178240 0.097325
C115  C     C_3   0.395927 0.020727 0.074614 -0.353782
H112  H     H_    0.365290 0.998244 0.989824 0.243601
H113  H     H_    0.428996 0.069984 0.084593 0.205807
C116  C     C_3   0.444352 0.957035 0.154806 -0.822956
H114  H     H_    0.475887 0.978174 0.240379 0.247014
H115  H     H_    0.481444 0.939216 0.139770 0.286058
H116  H     H_    0.412509 0.905984 0.143397 0.301355
N37   N     N_R   0.343223 0.687940 0.989909 0.231224
O21   O     O_R   0.397192 0.732932 0.057003 -0.359037
O22   O     O_R   0.324089 0.674265 0.893560 -0.397382
N38   N     N_R   0.659675 0.685095 0.016198 0.236838
O23   O     O_R   0.603079 0.727067 0.951103 -0.373658
O24   O     O_R   0.686259 0.677464 0.117607 -0.356658
N39   N     N_R   0.844733 0.189557 0.990990 0.224682
O25   O     O_R   0.902374 0.229439 0.059004 -0.382194
O26   O     O_R   0.822004 0.178307 0.892139 -0.406651
N40   N     N_R   0.160119 0.196456 0.010473 0.246744
O27   O     O_R   0.111937 0.247853 0.946389 -0.373277
O28   O     O_R   0.167877 0.173467 0.095871 -0.406242
N41   N     N_R   0.590824 0.406075 0.300501 0.203058
O29   O     O_R   0.610852 0.356115 0.263075 -0.406335
O30   O     O_R   0.540293 0.454340 0.233111 -0.468340
N42   N     N_R   0.410379 0.405951 0.700387 0.199297
O31   O     O_R   0.394779 0.352427 0.739919 -0.404725
O32   O     O_R   0.461358 0.454048 0.767621 -0.466855
N43   N     N_R   0.092751 0.910634 0.301998 0.204105
O33   O     O_R   0.115474 0.864654 0.264644 -0.391243
O34   O     O_R   0.040013 0.956648 0.234482 -0.464782
N44   N     N_R   0.908512 0.907291 0.699315 0.211703
O35   O     O_R   0.871923 0.879834 0.726834 -0.382518
O36   O     O_R   0.963813 0.949778 0.769375 -0.460108
O37   O     O_3   0.425430 0.656811 0.687562 -0.652340
C117  C     C_3   0.383554 0.608531 0.699570 0.150341
H117  H     H_    0.415718 0.593177 0.787324 0.192002
H118  H     H_    0.367848 0.553132 0.653400 0.111448
C118  C     C_3   0.316428 0.650102 0.664624 -0.275438
H119  H     H_    0.331382 0.698541 0.721628 0.280681
H120  H     H_    0.286907 0.673852 0.581061 0.195456
C119  C     C_3   0.267405 0.594907 0.664637 -0.873776
H121  H     H_    0.247626 0.549097 0.601886 0.220391
H122  H     H_    0.221263 0.627326 0.645297 0.295896
H123  H     H_    0.295926 0.567339 0.745918 0.285168
O38   O     O_3   0.575339 0.649851 0.310418 -0.634709
C120  C     C_3   0.623517 0.603900 0.309912 0.225338
H124  H     H_    0.595929 0.584594 0.224522 0.191950
H125  H     H_    0.640777 0.550730 0.360603 0.086248
C121  C     C_3   0.689227 0.650235 0.347682 -0.327822
H126  H     H_    0.673148 0.699680 0.291542 0.282684
H127  H     H_    0.716338 0.673132 0.431234 0.170843
C122  C     C_3   0.741683 0.599319 0.350320 -0.830764
H128  H     H_    0.760988 0.551893 0.410448 0.225629
H129  H     H_    0.787898 0.634459 0.374937 0.301107
H130  H     H_    0.716189 0.573769 0.268524 0.279618
O39   O     O_3   0.927157 0.158818 0.687628 -0.681145
C123  C     C_3   0.889701 0.108432 0.706203 0.118763
H131  H     H_    0.925989 0.091441 0.793645 0.194074
H132  H     H_    0.871586 0.053943 0.657549 0.129086
C124  C     C_3   0.825393 0.149091 0.682597 -0.289818
H133  H     H_    0.843858 0.194254 0.745126 0.267767
H134  H     H_    0.793503 0.177027 0.601232 0.195380
C125  C     C_3   0.778362 0.092257 0.684916 -0.814974
H135  H     H_    0.757132 0.047971 0.620267 0.212340
H136  H     H_    0.733084 0.123533 0.670088 0.291610
H137  H     H_    0.809016 0.062926 0.765393 0.288646
O40   O     O_3   0.074451 0.155028 0.312179 -0.636230
C126  C     C_3   0.119610 0.110177 0.303484 0.196603
H138  H     H_    0.087959 0.090067 0.217510 0.192456
H139  H     H_    0.140800 0.057347 0.355620 0.090113
C127  C     C_3   0.181642 0.158548 0.330316 -0.274333
H140  H     H_    0.161011 0.205700 0.269393 0.281272
H141  H     H_    0.211104 0.184892 0.412539 0.187894
C128  C     C_3   0.233396 0.108537 0.330047 -0.894481
H142  H     H_    0.259368 0.065876 0.397676 0.236326
H143  H     H_    0.274953 0.145682 0.341651 0.279392
H144  H     H_    0.205317 0.076824 0.251488 0.288747
N45   N     N_R   0.569740 0.802849 0.313995 0.273376
O41   O     O_R   0.514780 0.794872 0.309801 -0.397756
O42   O     O_R   0.560241 0.810117 0.223455 -0.331509
N46   N     N_R   0.433589 0.831509 0.632000 0.240435
O43   O     O_R   0.474392 0.788815 0.624259 -0.410292
O44   O     O_R   0.457475 0.899056 0.677412 -0.476312
N47   N     N_R   0.067606 0.311665 0.348351 0.254982
O45   O     O_R   0.025245 0.303937 0.371840 -0.409647
O46   O     O_R   0.040437 0.319029 0.246711 -0.352236
N48   N     N_R   0.928059 0.339156 0.614151 0.228953
O47   O     O_R   0.947125 0.410176 0.647575 -0.452048
O48   O     O_R   0.970353 0.295934 0.610375 -0.380889

loop_
_geom_bond_atom_site_label_1
_geom_bond_atom_site_label_2
_geom_bond_distance
_ccdc_geom_bond_type
C117  H118  1.113882 S    
C65   C69   1.326094 D    
C39   N31   1.360321 A    
C13   C18   1.371433 A    
C115  C116  1.525274 S    
N37   O22   1.299098 A    
C74   C78   1.352951 D    
C89   H52   1.109719 S    
C95   H67   1.111203 S    
C68   C72   1.327992 D    
N39   O26   1.298237 A    
C120  H124  1.110763 S    
C67   C71   1.325333 D    
C113  H107  1.110966 S    
C87   C88   1.529019 S    
C117  C118  1.532102 S    
C5    N41   1.432331 S    
C110  H100  1.110452 S    
C13   H5    1.074111 S    
C30   N22   1.335050 A    
C127  C128  1.527685 S    
C5    N5    1.347096 A    
N13   Ni6   1.859945 S    
C105  H90   1.118066 S    
C7    N7    1.350275 A    
C8    N8    1.347427 A    
N2    Ni2   1.847929 S    
N35   O6    1.301268 A    
C32   C48   1.385940 A    
N31   Ni8   1.826449 S    
C29   C45   1.374778 A    
C83   H39   1.106698 S    
C59   O15   1.385741 S    
C20   C67   1.454973 S    
C54   O10   1.389466 S    
C90   H54   1.111232 S    
C80   O20   1.385401 S    
C33   N25   1.331201 A    
N46   O43   1.301327 A    
C68   H32   1.086230 S    
C85   H43   1.111217 S    
C46   C74   1.462981 S    
N36   O8    1.300472 A    
C94   H64   1.110165 S    
C128  H144  1.110144 S    
C101  H80   1.110352 S    
C104  H87   1.107488 S    
C91   H56   1.109169 S    
C88   H49   1.108485 S    
C38   O38   1.381207 S    
C38   N30   1.343335 A    
C30   H14   1.080682 S    
C12   N12   1.343101 A    
N23   Ni7   1.843436 S    
C9    H1    1.077169 S    
C11   H3    1.067306 S    
C86   H44   1.111090 S    
N7    N11   1.386189 A    
C98   H72   1.110935 S    
C99   H76   1.114749 S    
N40   O27   1.301345 A    
N19   N31   1.386187 A    
N6    N10   1.386160 A    
C37   O37   1.380776 S    
N17   N29   1.386187 A    
C39   C43   1.409016 A    
C1    C17   1.387581 A    
C109  H99   1.111939 S    
C36   C47   1.383121 A    
C47   C75   1.453678 S    
H26   C70   1.083867 S    
C48   C76   1.474397 S    
N38   O23   1.301646 A    
C120  C121  1.531981 S    
C2    N34   1.422208 S    
C121  H126  1.111336 S    
C30   C46   1.378784 A    
C59   C63   1.353941 D    
C116  H116  1.111595 S    
C6    N42   1.434407 S    
C9    N9    1.344549 A    
N34   O4    1.300696 A    
C43   C56   1.484148 S    
C88   C89   1.524097 S    
N45   O41   1.301936 A    
C25   C41   1.376684 A    
C25   H9    1.076595 S    
C27   H11   1.075718 S    
C112  H106  1.109201 S    
N5    Ni5   1.843014 S    
C125  H135  1.107131 S    
C89   H53   1.111181 S    
C29   H13   1.080608 S    
H25   C69   1.084664 S    
C119  H122  1.110341 S    
O37   C117  1.418915 S    
C33   H17   1.077418 S    
C35   H19   1.076451 S    
C79   O19   1.381605 S    
N47   O45   1.301855 A    
C103  H85   1.110705 S    
C14   N14   1.348781 A    
C104  H86   1.109776 S    
C96   H68   1.109960 S    
C32   H16   1.080307 S    
C9    C21   1.374686 A    
O17   C105  1.416744 S    
C11   C23   1.373899 A    
C25   N17   1.331273 A    
N42   O31   1.300251 A    
C87   H48   1.118368 S    
C106  H91   1.110212 S    
C58   C62   1.351254 D    
C118  H120  1.109099 S    
N48   O47   1.300588 A    
N44   O36   1.300853 A    
N21   N26   1.385653 A    
C28   N20   1.327957 A    
C70   C80   1.468959 S    
O18   C108  1.408234 S    
C84   H41   1.116991 S    
C90   C91   1.532210 S    
C14   C17   1.389594 A    
C50   C54   1.359917 D    
C73   N37   1.439084 S    
C81   H34   1.116362 S    
C82   H36   1.110053 S    
C121  C122  1.527284 S    
O14   C96   1.412294 S    
C40   C44   1.406140 A    
C83   H38   1.110373 S    
N6    Ni6   1.840823 S    
N20   N32   1.386161 A    
C14   H6    1.076465 S    
N24   N27   1.385617 A    
O38   C120  1.418355 S    
C6    N6    1.340026 A    
C86   H46   1.111055 S    
N8    Ni8   1.840823 S    
C51   N47   1.442606 S    
C105  C106  1.531853 S    
N28   Ni3   1.831528 S    
C61   H21   1.067673 S    
C116  H114  1.111699 S    
C55   O11   1.388412 S    
C63   H23   1.083589 S    
C100  H77   1.112151 S    
C102  C103  1.532104 S    
C40   N32   1.353899 A    
C114  H111  1.116037 S    
O13   C93   1.415788 S    
C3    N35   1.424141 S    
C127  H141  1.108316 S    
C108  H97   1.116303 S    
C126  H139  1.116032 S    
C93   H62   1.117013 S    
C58   O14   1.397570 S    
C100  C101  1.525535 S    
C38   C42   1.394545 A    
C52   C56   1.353994 D    
C126  H138  1.110748 S    
C103  H84   1.108996 S    
C104  H88   1.110095 S    
C98   H73   1.106234 S    
C10   H2    1.072544 S    
C36   H20   1.078603 S    
C111  H104  1.116507 S    
C119  H121  1.111278 S    
C50   N46   1.447152 S    
C73   C77   1.346960 D    
C93   C94   1.526192 S    
C113  H108  1.107947 S    
N29   Ni6   1.826449 S    
C51   C57   1.505756 S    
C106  C107  1.524366 S    
C57   O13   1.383279 S    
N9    Ni2   1.859783 S    
C34   C45   1.380961 A    
N25   Ni2   1.826873 S    
C2    C18   1.383315 A    
N27   Ni4   1.826873 S    
C16   C19   1.366448 A    
C117  H117  1.110887 S    
C19   C68   1.456607 S    
H27   C71   1.085730 S    
N43   O33   1.300226 A    
C122  H130  1.110265 S    
C111  H103  1.114020 S    
C113  H109  1.111032 S    
O40   C126  1.418315 S    
N32   Ni7   1.824232 S    
C103  C104  1.523312 S    
N21   Ni5   1.843436 S    
C110  H102  1.110396 S    
C5    C21   1.386911 A    
C49   N45   1.438979 S    
C7    C23   1.391100 A    
O19   C111  1.411338 S    
C10   N10   1.345069 A    
C8    C24   1.378694 A    
C97   H70   1.111538 S    
C36   N28   1.334060 A    
C24   C63   1.460119 S    
N46   O44   1.299151 A    
C94   H63   1.110129 S    
C128  H143  1.110529 S    
C101  H81   1.108740 S    
C26   H10   1.078040 S    
C91   H57   1.111308 S    
C1    N1    1.331230 A    
C96   C97   1.526423 S    
C3    N3    1.345199 A    
C119  H123  1.110422 S    
C53   O9    1.387392 S    
C27   C43   1.372837 A    
C102  H82   1.107945 S    
C115  H112  1.111697 S    
N37   O21   1.301188 A    
C39   O39   1.379784 S    
N38   O24   1.300011 A    
C91   C92   1.525821 S    
N40   O28   1.299647 A    
C112  H105  1.111705 S    
C78   O18   1.383098 S    
N33   O2    1.297516 A    
N30   Ni5   1.824232 S    
C4    N4    1.333838 A    
C64   H24   1.072600 S    
C89   H51   1.110624 S    
C35   C48   1.383015 A    
N26   Ni1   1.831528 S    
N1    N14   1.352583 A    
C52   N48   1.445537 S    
C41   C54   1.487845 S    
C77   O17   1.386066 S    
N11   Ni4   1.859783 S    
C34   N26   1.335061 A    
C107  H95   1.109753 S    
C10   C22   1.384231 A    
C76   N40   1.437158 S    
C120  H125  1.114092 S    
C26   N18   1.342537 A    
C121  H127  1.109051 S    
C72   C78   1.450191 S    
C124  H133  1.105698 S    
C37   N29   1.358890 A    
C107  H93   1.109435 S    
C4    C20   1.383804 A    
C125  H137  1.110625 S    
N41   O29   1.300046 A    
C88   H50   1.111342 S    
C105  H89   1.111537 S    
C44   C55   1.483080 S    
C56   O12   1.390459 S    
C122  H128  1.111123 S    
C123  C124  1.529801 S    
O16   C102  1.421236 S    
C114  C115  1.528074 S    
C60   O16   1.389026 S    
C1    N33   1.427841 S    
N18   N30   1.386161 A    
C12   C24   1.372634 A    
N20   Ni4   1.847554 S    
C26   C42   1.389624 A    
C18   C65   1.452796 S    
C4    N36   1.423497 S    
C97   C98   1.526099 S    
C16   H8    1.075709 S    
C85   H42   1.110045 S    
C49   C59   1.489025 S    
N36   O7    1.300403 A    
C94   C95   1.526039 S    
C101  H79   1.110861 S    
C28   C44   1.375674 A    
C69   C79   1.452211 S    
C95   H66   1.110219 S    
C21   C62   1.476524 S    
H28   C72   1.085407 S    
C86   H45   1.110730 S    
O11   C87   1.423114 S    
C42   C53   1.483237 S    
C35   N27   1.334182 A    
C23   C64   1.480934 S    
C67   H31   1.084082 S    
C99   H75   1.113178 S    
N42   O32   1.300841 A    
C118  H119  1.107621 S    
N48   O48   1.301396 A    
N10   Ni1   1.864412 S    
C109  H98   1.110488 S    
C74   N38   1.444037 S    
C84   H40   1.111142 S    
C34   H18   1.078896 S    
C13   N13   1.347472 A    
C90   H55   1.117150 S    
C31   N23   1.330373 A    
C124  C125  1.525831 S    
N8    N12   1.386160 A    
O39   C123  1.418458 S    
O9    C81   1.415231 S    
C8    N44   1.438958 S    
C82   H35   1.109353 S    
N4    Ni4   1.847929 S    
C76   C80   1.357339 D    
N16   Ni7   1.857629 S    
C33   C46   1.383325 A    
C92   H58   1.110091 S    
C75   C79   1.343413 D    
C3    C19   1.383100 A    
N12   Ni3   1.864412 S    
N34   O3    1.299114 A    
N45   O42   1.300847 A    
C45   C73   1.455721 S    
O20   C114  1.411654 S    
C66   H30   1.087240 S    
C112  C113  1.519711 S    
N22   N25   1.385617 A    
C57   C61   1.348243 D    
C60   C64   1.355145 D    
N35   O5    1.298594 A    
C102  H83   1.115400 S    
C6    C22   1.382778 A    
N3    N16   1.352583 A    
C111  C112  1.527060 S    
C22   C61   1.471507 S    
O12   C90   1.425727 S    
N4    N15   1.352619 A    
C11   N11   1.341326 A    
C108  H96   1.114160 S    
C115  H113  1.112364 S    
C85   C86   1.525947 S    
C49   C53   1.356167 D    
C116  H115  1.109729 S    
C32   N24   1.341532 A    
N39   O25   1.300712 A    
N17   Ni1   1.842948 S    
C100  H78   1.111350 S    
N5    N9    1.386189 A    
C2    N2    1.333553 A    
N19   Ni3   1.842948 S    
N14   Ni5   1.857629 S    
C17   C66   1.460025 S    
C31   H15   1.080514 S    
N43   O34   1.300639 A    
C15   C20   1.373946 A    
C12   H4    1.074174 S    
C65   H29   1.085361 S    
C95   H65   1.110963 S    
C107  H94   1.109546 S    
C50   C60   1.505558 S    
N47   O46   1.298990 A    
C99   C100  1.527750 S    
C87   H47   1.111384 S    
C106  H92   1.111506 S    
C62   H22   1.074252 S    
C118  C119  1.527182 S    
C125  H136  1.110251 S    
N44   O35   1.300672 A    
C124  H134  1.108653 S    
C109  C110  1.523505 S    
C84   C85   1.533102 S    
C126  C127  1.531975 S    
N2    N13   1.352619 A    
C123  H131  1.110770 S    
O10   C84   1.425356 S    
C122  H129  1.109703 S    
C123  H132  1.114430 S    
C114  H110  1.112568 S    
C81   H33   1.111060 S    
C82   C83   1.521263 S    
C27   N19   1.327295 A    
C31   C47   1.372794 A    
C37   C41   1.406942 A    
C83   H37   1.110910 S    
N23   N28   1.385653 A    
N24   Ni8   1.841095 S    
C92   H60   1.111083 S    
C29   N21   1.332961 A    
C110  H101  1.108127 S    
C71   C77   1.453061 S    
N7    Ni7   1.843014 S    
C97   H71   1.106407 S    
C66   C70   1.337624 D    
N1    Ni1   1.843254 S    
C75   N39   1.439337 S    
N3    Ni3   1.843254 S    
C128  H142  1.111238 S    
N18   Ni2   1.847554 S    
C96   H69   1.111185 S    
C52   C58   1.509472 S    
N15   Ni8   1.859945 S    
N41   O30   1.300626 A    
C7    N43   1.434206 S    
C15   N15   1.349249 A    
C15   H7    1.075429 S    
C16   N16   1.346138 A    
C127  H140  1.111569 S    
C108  C109  1.526606 S    
C28   H12   1.072686 S    
C98   H74   1.110169 S    
C81   C82   1.533615 S    
C93   H61   1.114393 S    
O15   C99   1.409976 S    
C51   C55   1.363474 D    
N33   O1    1.299954 A    
C92   H59   1.110266 S    
N22   Ni6   1.841095 S    
C40   O40   1.380598 S    
