data_mof_unit_15572.cif
_audit_creation_date              2012-12-11T15:48:05-0500
_audit_creation_method            fapswitch 2.2
_symmetry_space_group_name_H-M    P1
_symmetry_Int_Tables_number       1
_space_group_crystal_system       triclinic
_cell_length_a                    6.917064
_cell_length_b                    17.627273
_cell_length_c                    19.48997
_cell_angle_alpha                 108.661537
_cell_angle_beta                  89.35959
_cell_angle_gamma                 90.847535
_cell_volume                      2251.15555709

loop_
_atom_site_label
_atom_site_type_symbol
_atom_type_description
_atom_site_fract_x
_atom_site_fract_y
_atom_site_fract_z
_atom_type_partial_charge
O1    O     O_R   0.494330 0.415710 0.413720 -0.512789
O2    O     O_R   0.819360 0.430070 0.560210 -0.541096
O3    O     O_R   0.994320 0.584290 0.586280 -0.554195
C1    C     C_R   0.648907 0.413357 0.580453 0.747034
O4    O     O_R   0.823740 0.406290 0.412670 -0.537903
O5    O     O_R   0.998730 0.560340 0.437690 -0.543651
C2    C     C_R   0.654416 0.384522 0.383575 0.762192
O6    O     O_R   0.489920 0.439660 0.562310 -0.521797
O7    O     O_3   0.662330 0.550570 0.508380 -0.370659
V1    V     V_3+5 0.935370 0.490620 0.498440 1.565025
O8    O     O_R   0.328720 0.569930 0.439790 -0.507822
C3    C     C_R   0.161182 0.587571 0.420273 0.797749
O9    O     O_R   0.324340 0.593710 0.587330 -0.547848
C4    C     C_R   0.155206 0.616978 0.615312 0.671548
V2    V     V_3+5 0.435940 0.509380 0.501560 1.600002
O10   O     O_3   0.159110 0.449430 0.491620 -0.338036
C5    C     C_R   0.312632 0.724402 0.718225 -0.126741
H1    H     H_    0.453782 0.705658 0.694920 0.120351
C6    C     C_R   0.301358 0.788168 0.783181 -0.129558
H2    H     H_    0.434431 0.816706 0.807805 0.116881
C7    C     C_R   0.121188 0.814747 0.815756 -0.038807
C8    C     C_R   0.952610 0.775847 0.781452 -0.132171
H3    H     H_    0.811444 0.794601 0.804733 0.114950
C9    C     C_R   0.963883 0.712084 0.716505 -0.131199
H4    H     H_    0.830793 0.683566 0.691877 0.116865
C10   C     C_R   0.144054 0.685433 0.683979 -0.039128
C11   C     C_R   0.004135 0.629506 0.323879 -0.111171
C12   C     C_R   0.155566 0.640034 0.373517 -0.139419
C13   C     C_R   0.298428 0.699609 0.377298 0.260769
C14   C     C_R   0.292055 0.744735 0.328786 0.056794
C15   C     C_R   0.139020 0.733079 0.278691 0.006593
C16   C     C_R   0.992905 0.675363 0.276608 -0.015049
C17   C     C_R   0.438396 0.800443 0.328500 -0.156983
C18   C     C_R   0.433469 0.846684 0.282519 0.431943
C19   C     C_R   0.275195 0.839767 0.234863 -0.002825
C20   C     C_R   0.131605 0.779611 0.231103 -0.038599
C21   C     C_R   0.979508 0.766308 0.180258 0.037137
C22   C     C_R   0.833333 0.708762 0.178732 0.244680
C23   C     C_R   0.839181 0.664169 0.227062 0.355410
C24   C     C_R   0.254231 0.889863 0.190795 0.407949
C25   C     C_R   0.112512 0.871671 0.136070 -0.167436
C26   C     C_R   0.976661 0.810827 0.131829 -0.133232
H5    H     H_    0.896105 0.583893 0.321928 0.195334
H6    H     H_    0.563317 0.807559 0.362876 0.205604
H7    H     H_    0.867554 0.799358 0.090376 0.176833
C27   C     C_R   0.782869 0.189348 0.871286 0.363233
C28   C     C_R   0.626545 0.136173 0.870386 -0.161180
C29   C     C_R   0.474382 0.129535 0.821619 -0.163361
C30   C     C_R   0.474114 0.173737 0.773134 0.015276
C31   C     C_R   0.630030 0.226613 0.773695 -0.014653
C32   C     C_R   0.785137 0.234415 0.822655 0.088863
C33   C     C_R   0.321862 0.165989 0.723667 0.377726
C34   C     C_R   0.323460 0.211372 0.676590 -0.148817
C35   C     C_R   0.476681 0.264700 0.676299 -0.044906
C36   C     C_R   0.631318 0.271764 0.725020 0.030460
C37   C     C_R   0.788186 0.323683 0.724977 0.124545
C38   C     C_R   0.941127 0.330697 0.773064 -0.180906
C39   C     C_R   0.939545 0.287062 0.821398 -0.085579
C40   C     C_R   0.479723 0.310452 0.628110 0.346347
C41   C     C_R   0.637632 0.363110 0.628979 -0.143093
C42   C     C_R   0.790599 0.368257 0.677115 -0.227783
H8    H     H_    0.356227 0.088514 0.821369 0.202575
H9    H     H_    0.202691 0.203959 0.640177 0.224712
H10   H     H_    0.911835 0.408339 0.678106 0.150678
H11   H     H_    0.063087 0.370112 0.773296 0.132574
H12   H     H_    0.062041 0.294603 0.857041 0.184935
C43   C     C_R   0.794757 0.263125 0.292023 -0.123326
H13   H     H_    0.922312 0.270125 0.325308 0.173743
C44   C     C_R   0.785565 0.198604 0.227561 -0.076976
H14   H     H_    0.906466 0.158066 0.212845 0.148988
C45   C     C_R   0.621150 0.185686 0.183392 -0.086523
C46   C     C_R   0.467945 0.239595 0.204400 -0.133120
H15   H     H_    0.341570 0.231726 0.170366 0.160367
C47   C     C_R   0.477173 0.305411 0.267923 0.281765
C48   C     C_R   0.641087 0.317278 0.313785 -0.106619
O11   O     O_R   0.774940 0.060470 0.937800 -0.510262
O12   O     O_R   0.440880 0.093730 0.087350 -0.534667
O13   O     O_R   0.266130 0.939630 0.062280 -0.518845
C49   C     C_R   0.609935 0.116875 0.115311 0.776729
O14   O     O_R   0.445480 0.069960 0.939820 -0.541805
O15   O     O_R   0.270770 0.915690 0.913690 -0.552011
C50   C     C_R   0.615859 0.086551 0.919466 0.762675
O16   O     O_R   0.770300 0.084410 0.086380 -0.539994
O17   O     O_3   0.602600 0.949510 0.991670 -0.381183
V3    V     V_3+5 0.329470 0.009370 0.001550 1.564052
O18   O     O_R   0.940760 0.906160 0.912560 -0.552858
C51   C     C_R   0.109949 0.883050 0.884542 0.677879
O19   O     O_R   0.936150 0.929930 0.060100 -0.542416
C52   C     C_R   0.103704 0.917130 0.083583 0.760169
V4    V     V_3+5 0.828930 0.990450 0.998310 1.546472
O20   O     O_3   0.105670 0.050490 0.008320 -0.346754
Br1   Br    Br    0.619240 0.691174 0.112063 -0.472934
Cl1   Cl    Cl    0.650293 0.594387 0.225010 -0.553664
Cl2   Cl    Cl    0.970617 0.202656 0.935476 -0.629925
Cl3   Cl    Cl    0.125494 0.099101 0.717510 -0.620014
Cl4   Cl    Cl    0.291525 0.298308 0.564256 -0.628155
Br2   Br    Br    0.264524 0.378453 0.284481 -0.505800
Br3   Br    Br    0.492616 0.724636 0.452697 -0.512419
Cl5   Cl    Cl    0.645801 0.903751 0.282987 -0.545456
Cl6   Cl    Cl    0.373917 0.984190 0.211440 -0.562284

loop_
_geom_bond_atom_site_label_1
_geom_bond_atom_site_label_2
_ccdc_geom_bond_type
C25   C52   S    
C36   C37   A    
C7    C51   S    
C25   C26   A    
C19   C20   A    
C1    O6    A    
C45   C49   S    
V3    O20   S    
C34   C35   A    
C13   C14   A    
C13   Br3   S    
C3    C12   S    
C5    C10   A    
C12   C13   A    
C6    C7    A    
C21   C22   A    
C9    C10   A    
C15   C20   A    
O5    C3    A    
C14   C15   A    
C16   C23   A    
V2    O10   S    
C22   Br1   S    
C37   C38   A    
C33   Cl3   S    
C18   C19   A    
C28   C50   S    
C21   C26   A    
C44   C45   A    
C23   Cl1   S    
C35   C36   A    
O8    V2    S    
C39   H12   S    
C6    H2    S    
O1    V2    S    
O7    V1    S    
O12   V3    S    
C40   C41   A    
O9    C4    A    
O17   V4    S    
C8    H3    S    
C5    H1    S    
C47   Br2   S    
C35   C40   A    
O12   C49   A    
O13   C52   A    
C47   C48   A    
C43   H13   S    
C9    H4    S    
C46   C47   A    
O18   V4    S    
O11   C50   A    
O4    C2    A    
O18   C51   A    
C2    C48   S    
C31   C32   A    
C27   C32   A    
C4    C10   S    
C41   C42   A    
C43   C44   A    
C26   H7    S    
C42   H10   S    
O2    C1    A    
C24   Cl6   S    
O14   V3    S    
C29   H8    S    
C28   C29   A    
C27   Cl2   S    
C30   C33   A    
C1    C41   S    
C18   Cl5   S    
C32   C39   A    
O17   V3    S    
O15   C51   A    
O3    C4    A    
O13   V3    S    
O14   C50   A    
C24   C25   A    
O19   V4    S    
O6    V2    S    
O9    V2    S    
C8    C9    A    
C43   C48   A    
C40   Cl4   S    
V4    O20   S    
O2    V1    S    
C33   C34   A    
O16   V4    S    
C27   C28   A    
C20   C21   A    
C14   C17   A    
C11   C16   A    
O1    C2    A    
C17   H6    S    
C15   C16   A    
C38   H11   S    
C46   H15   S    
O5    V1    S    
O8    C3    A    
C31   C36   A    
C19   C24   A    
O7    V2    S    
O4    V1    S    
O3    V1    S    
V1    O10   S    
C49   O16   A    
C34   H9    S    
C38   C39   A    
C22   C23   A    
C29   C30   A    
C5    C6    A    
C17   C18   A    
C44   H14   S    
C11   H5    S    
C45   C46   A    
O19   C52   A    
C30   C31   A    
C11   C12   A    
C37   C42   A    
C7    C8    A    
O15   V3    S    
O11   V4    S    
