data_mof_unit_47591.cif
_audit_creation_date              2012-12-10T17:43:21-0500
_audit_creation_method            fapswitch 2.2
_symmetry_space_group_name_H-M    P1
_symmetry_Int_Tables_number       1
_space_group_crystal_system       triclinic
_cell_length_a                    15.07872
_cell_length_b                    13.916695
_cell_length_c                    10.612992
_cell_angle_alpha                 89.576489
_cell_angle_beta                  86.853569
_cell_angle_gamma                 90.011451
_cell_volume                      2223.67489948

loop_
_atom_site_label
_atom_site_type_symbol
_atom_type_description
_atom_site_fract_x
_atom_site_fract_y
_atom_site_fract_z
_atom_type_partial_charge
C1    C     C_R   0.328838 0.499917 0.499227 0.832272
C2    C     C_R   0.671165 0.499925 0.500790 0.828171
C3    C     C_R   0.953491 0.499267 0.500936 0.064940
C4    C     C_R   0.046518 0.499258 0.499233 0.064965
C5    C     C_R   0.907125 0.587278 0.501172 0.099928
C6    C     C_R   0.092935 0.411293 0.500730 0.093237
C7    C     C_R   0.953586 0.324202 0.503500 -0.198348
C8    C     C_R   0.046426 0.674363 0.495291 -0.192848
C9    C     C_R   0.046114 0.324198 0.502961 -0.198918
C10   C     C_R   0.953891 0.674379 0.498589 -0.193233
C11   C     C_R   0.442520 0.793711 0.580986 0.125136
C12   C     C_R   0.550768 0.206523 0.409695 0.117236
C13   C     C_R   0.557108 0.794609 0.418513 0.120618
C14   C     C_R   0.449074 0.205305 0.589729 0.109976
C15   C     C_R   0.550164 0.896928 0.406845 -0.023404
C16   C     C_R   0.444520 0.102169 0.588380 -0.096658
C17   C     C_R   0.449014 0.895994 0.592075 -0.024640
C18   C     C_R   0.554662 0.103199 0.409661 -0.095460
C19   C     C_R   0.499647 0.948254 0.499391 -0.040189
C20   C     C_R   0.499638 0.051427 0.499143 0.005501
C21   C     C_R   0.594433 0.949463 0.307435 0.227082
C22   C     C_R   0.389141 0.047188 0.676312 0.124392
C23   C     C_R   0.403618 0.947703 0.690320 0.224924
C24   C     C_R   0.608954 0.048972 0.320370 0.125004
C25   C     C_R   0.500300 0.500414 0.259591 0.781856
C26   C     C_R   0.500544 0.499667 0.740442 0.783546
C27   C     C_3   0.492995 0.591520 0.039924 -0.148784
C28   C     C_3   0.509184 0.409150 0.960446 -0.139843
C29   C     C_3   0.569811 0.552827 0.952077 -0.171379
C30   C     C_3   0.432266 0.447772 0.048045 -0.152532
C31   C     C_3   0.424552 0.537825 0.963079 -0.157580
C32   C     C_3   0.577514 0.462888 0.037238 -0.175375
C33   C     C_3   0.501329 0.499143 0.877532 0.028325
C34   C     C_3   0.500655 0.501353 0.122610 0.018394
C35   C     C_R   0.814716 0.586709 0.503555 -0.230381
C36   C     C_R   0.185397 0.412015 0.500403 -0.204623
C37   C     C_R   0.768119 0.499542 0.502482 -0.084805
C38   C     C_R   0.231888 0.499516 0.497612 -0.085955
C39   C     C_R   0.814460 0.412032 0.502855 -0.201698
C40   C     C_R   0.185448 0.586662 0.493434 -0.227165
C41   C     C_R   0.906920 0.411304 0.502583 0.092414
C42   C     C_R   0.093039 0.587254 0.495833 0.099747
Cu1   Cu    Cu3+1 0.500000 0.597420 0.500000 0.928080
Cu2   Cu    Cu3+1 0.500000 0.402580 0.500000 0.985258
H1    H     H_    0.362000 0.568447 0.929540 0.131566
H2    H     H_    0.640041 0.432269 0.070858 0.157176
H3    H     H_    0.486436 0.666258 0.075142 0.135270
H4    H     H_    0.517578 0.334250 0.927243 0.123984
H5    H     H_    0.626110 0.595672 0.909683 0.139870
H6    H     H_    0.375991 0.404833 0.090330 0.133825
H7    H     H_    0.779283 0.654285 0.506246 0.204369
H8    H     H_    0.220930 0.344357 0.502359 0.183548
H9    H     H_    0.778807 0.344367 0.503427 0.184880
H10   H     H_    0.221011 0.654201 0.488171 0.204146
H11   H     H_    0.918529 0.256185 0.504815 0.149321
H12   H     H_    0.081517 0.742378 0.492927 0.167986
H13   H     H_    0.081052 0.256179 0.504092 0.148849
H14   H     H_    0.918919 0.742405 0.498508 0.168445
N1    N     N_R   0.500000 0.743810 0.500000 -0.264656
N2    N     N_R   0.500000 0.256190 0.500000 -0.234894
O1    O     O_R   0.370260 0.582280 0.500030 -0.604468
O2    O     O_R   0.629740 0.417720 0.499970 -0.540701
O3    O     O_R   0.629740 0.582280 0.499970 -0.605935
O4    O     O_R   0.370260 0.417720 0.500030 -0.540050
O5    O     O_R   0.499980 0.582260 0.316850 -0.618753
O6    O     O_R   0.500020 0.417740 0.683150 -0.582494
O7    O     O_R   0.500020 0.582260 0.683150 -0.617118
O8    O     O_R   0.499980 0.417740 0.316850 -0.587639
C43   C     C_2   0.365846 0.743219 0.644157 0.395579
H15   H     H_    0.373970 0.678972 0.699609 0.103880
O9    O     O_2   0.290856 0.774565 0.634706 -0.588535
C44   C     C_2   0.592224 0.260244 0.302149 0.456966
H16   H     H_    0.562469 0.257376 0.211386 0.028937
O10   O     O_2   0.661357 0.304419 0.311542 -0.570114
C45   C     C_2   0.633533 0.744880 0.354662 0.391426
H17   H     H_    0.625269 0.680511 0.300750 0.108359
O11   O     O_2   0.708452 0.776966 0.361818 -0.587278
C46   C     C_2   0.409128 0.256697 0.699281 0.467756
H18   H     H_    0.436211 0.245753 0.790700 0.010970
O12   O     O_2   0.342801 0.305910 0.691120 -0.559143
C47   C     C_3   0.614101 0.904676 0.178766 -0.855190
H19   H     H_    0.600251 0.957090 0.102857 0.229003
H20   H     H_    0.684643 0.882357 0.166708 0.264285
H21   H     H_    0.570224 0.842130 0.164006 0.201969
C48   C     C_3   0.307420 0.088326 0.746286 -0.826570
H22   H     H_    0.257466 0.031739 0.771074 0.243816
H23   H     H_    0.325241 0.122820 0.835355 0.220820
H24   H     H_    0.272706 0.139046 0.684685 0.252213
C49   C     C_3   0.381858 0.902128 0.818828 -0.854032
H25   H     H_    0.394734 0.954006 0.894786 0.228415
H26   H     H_    0.311112 0.880121 0.828919 0.264238
H27   H     H_    0.425224 0.839349 0.835515 0.205560
C50   C     C_3   0.689091 0.090907 0.246517 -0.824174
H28   H     H_    0.737340 0.034566 0.215404 0.242743
H29   H     H_    0.668793 0.129162 0.160675 0.218053
H30   H     H_    0.726986 0.138193 0.307819 0.256335

loop_
_geom_bond_atom_site_label_1
_geom_bond_atom_site_label_2
_ccdc_geom_bond_type
C50   H28   S    
C27   C29   S    
Cu2   O6    S    
C19   C20   A    
C7    H11   S    
Cu1   Cu2   S    
C8    H12   S    
C6    C9    A    
C47   H19   S    
Cu1   O3    S    
C39   C41   A    
C29   H5    S    
C48   H22   S    
Cu2   O4    S    
C15   C19   A    
C17   C23   A    
C18   C24   A    
C26   O7    A    
C35   C37   A    
C8    C42   A    
C29   C32   S    
C30   C31   S    
C46   O12   D    
C29   C33   S    
C14   C46   S    
C22   C48   S    
C43   O9    D    
C11   C17   A    
C13   C45   S    
C23   C49   S    
C49   H26   S    
C9    H13   S    
C36   H8    S    
C16   C20   A    
C25   C34   S    
C40   C42   A    
C30   H6    S    
C50   H29   S    
C28   H4    S    
C25   O8    A    
C11   N1    A    
C47   H20   S    
C48   H23   S    
C27   C34   S    
C30   C34   S    
C27   C31   S    
C26   O6    A    
C28   C32   S    
C25   O5    A    
C44   O10   D    
C46   H18   S    
Cu2   O2    S    
C32   C34   S    
C45   H17   S    
Cu1   O7    S    
C26   C33   S    
Cu1   O5    S    
C31   C33   S    
C49   H27   S    
C45   O11   D    
C1    C38   S    
C4    C6    A    
C21   C47   S    
C28   C33   S    
C50   H30   S    
C40   H10   S    
C13   C15   A    
C35   H7    S    
C14   C16   A    
Cu2   O8    S    
C3    C4    A    
C1    O4    A    
C47   H21   S    
C2    O3    A    
Cu1   O1    S    
C48   H24   S    
C27   H3    S    
C7    C9    A    
C3    C41   A    
C16   C22   A    
C10   H14   S    
C32   H2    S    
C44   H16   S    
C3    C5    A    
C1    O1    A    
C11   C43   S    
C13   N1    A    
Cu1   N1    S    
C14   N2    A    
C28   C30   S    
C5    C10   A    
C37   C39   A    
C24   C50   S    
C38   C40   A    
C2    C37   S    
C39   H9    S    
C4    C42   A    
Cu2   N2    S    
C5    C35   A    
C36   C38   A    
C17   C19   A    
C6    C36   A    
C18   C20   A    
C7    C41   A    
C12   C44   S    
C43   H15   S    
C12   N2    A    
C15   C21   A    
C8    C10   A    
C31   H1    S    
C21   C24   A    
C12   C18   A    
C22   C23   A    
C49   H25   S    
C2    O2    A    
