data_mof_unit_20554.cif
_audit_creation_date              2013-03-05T16:47:26-0500
_audit_creation_method            fapswitch 2.2
_symmetry_space_group_name_H-M    P1
_symmetry_Int_Tables_number       1
_space_group_crystal_system       triclinic
_cell_length_a                    10.871903
_cell_length_b                    8.936659
_cell_length_c                    8.175751
_cell_angle_alpha                 90.333669
_cell_angle_beta                  91.370515
_cell_angle_gamma                 89.759084
_cell_volume                      794.096350021

loop_
_atom_site_label
_atom_site_type_symbol
_atom_site_description
_atom_site_fract_x
_atom_site_fract_y
_atom_site_fract_z
_atom_type_partial_charge
O1    O     O_R   0.500000 0.285340 0.636850 -0.584669
O2    O     O_R   0.500000 0.285340 0.363150 -0.594454
C1    C     C_R   0.501882 0.218274 0.499846 1.061774
O3    O     O_R   0.314790 0.499970 0.636880 -0.579521
O4    O     O_R   0.314790 0.499970 0.363120 -0.631333
O5    O     O_R   0.685210 0.499970 0.636880 -0.622241
O6    O     O_R   0.685210 0.499970 0.363120 -0.608257
N1    N     N_1   0.500000 0.500030 0.073640 -0.015041
N2    N     N_1   0.500000 0.500030 0.926360 -0.004513
C2    C     C_R   0.257814 0.489103 0.498443 1.001824
C3    C     C_R   0.742429 0.491230 0.502777 1.016611
Zn1   Zn    Zn3+2 0.500000 0.499990 0.682780 1.078072
Zn2   Zn    Zn3+2 0.500000 0.499990 0.317220 1.050391
O7    O     O_R   0.500000 0.714650 0.636900 -0.617350
O8    O     O_R   0.500000 0.714650 0.363100 -0.623412
C4    C     C_R   0.500578 0.781687 0.500329 0.889372
C5    C     C_1   0.502033 0.065176 0.499843 -0.024056
C6    C     C_3   0.079696 0.434704 0.681798 0.209619
C7    C     C_3   0.070683 0.360728 0.360600 0.202337
C8    C     C_3   0.930905 0.431261 0.689534 0.197828
C9    C     C_3   0.921869 0.362817 0.371202 0.213601
C10   C     C_1   0.501508 0.934697 0.500575 -0.134243
C11   C     C_3   0.072570 0.648340 0.453406 0.107519
C12   C     C_3   0.925348 0.651937 0.470286 0.092184
C13   C     C_3   0.121099 0.481148 0.497899 -0.185033
C14   C     C_3   0.879263 0.483049 0.508724 -0.182044
N3    N     N_3   0.131120 0.548354 0.799420 -0.407101
H1    H     H_    0.140662 0.507406 0.917909 0.213509
H2    H     H_    0.084194 0.648704 0.809566 0.204697
N4    N     N_3   0.108064 0.405119 0.195044 -0.486531
H3    H     H_    0.200037 0.378848 0.175466 0.265076
H4    H     H_    0.066063 0.335669 0.107552 0.236520
N5    N     N_3   0.888401 0.536437 0.817303 -0.453132
H5    H     H_    0.802410 0.508343 0.861494 0.248808
H6    H     H_    0.940843 0.519290 0.922330 0.147762
N6    N     N_3   0.866309 0.407964 0.212834 -0.407961
H7    H     H_    0.867422 0.320733 0.128093 0.268175
H8    H     H_    0.905833 0.501673 0.165174 0.187122
N7    N     N_R   0.138954 0.288703 0.730863 0.256325
O9    O     O_R   0.097119 0.159090 0.684514 -0.273322
O10   O     O_R   0.235524 0.286698 0.828527 -0.362443
N8    N     N_R   0.124221 0.208384 0.378195 0.261728
O11   O     O_R   0.235759 0.192050 0.436265 -0.422391
O12   O     O_R   0.086612 0.105192 0.275473 -0.359585
N9    N     N_R   0.883935 0.282644 0.741345 0.259052
O13   O     O_R   0.773206 0.240083 0.699719 -0.359862
O14   O     O_R   0.928738 0.224099 0.875425 -0.368955
N10   N     N_R   0.866725 0.213331 0.403354 0.248087
O15   O     O_R   0.921840 0.109060 0.487232 -0.330087
O16   O     O_R   0.757267 0.182583 0.344533 -0.394510
N11   N     N_3   0.130545 0.760601 0.564163 -0.445198
H9    H     H_    0.224780 0.768669 0.543347 0.205169
H10   H     H_    0.095008 0.866953 0.537534 0.270600
N12   N     N_3   0.113173 0.689076 0.286579 -0.425336
H11   H     H_    0.053653 0.658722 0.191073 0.208295
H12   H     H_    0.123624 0.804735 0.274733 0.241354
N13   N     N_3   0.882174 0.752777 0.603269 -0.431498
H13   H     H_    0.854536 0.857593 0.560172 0.256338
H14   H     H_    0.944083 0.774294 0.698653 0.239900
N14   N     N_3   0.867395 0.711576 0.317827 -0.461737
H15   H     H_    0.905306 0.816081 0.292279 0.236417
H16   H     H_    0.774584 0.736867 0.334280 0.219752

loop_
_geom_bond_atom_site_label_1
_geom_bond_atom_site_label_2
_geom_bond_distance
_ccdc_geom_bond_type
O1    C1    1.267854 A    
O6    Zn2   2.039412 S    
N4    H4    1.042578 S    
C9    C14   1.624769 S    
N12   H12   1.045616 S    
C1    C5    1.368180 S    
N1    Zn2   1.991452 S    
C5    C10   1.166133 T    
O3    Zn1   2.039414 S    
O4    Zn2   2.057062 S    
C8    N9    1.492229 S    
C7    N8    1.484795 S    
C12   N14   1.483931 S    
C11   C12   1.609983 S    
C9    N10   1.493826 S    
N6    H8    1.025976 S    
N5    H5    1.042480 S    
N1    N2    1.204124 T    
O4    C2    1.285194 A    
N7    O10   1.303871 A    
C9    N6    1.473339 S    
N9    O13   1.300953 A    
O6    C3    1.289745 A    
O1    Zn1   1.952516 S    
O5    C3    1.275298 A    
N13   H13   1.043203 S    
C6    C13   1.636047 S    
N8    O12   1.304095 A    
C8    N5    1.481953 S    
C2    C13   1.488256 S    
N10   O16   1.302601 A    
N10   O15   1.296429 A    
N5    H6    1.031138 S    
C6    N7    1.505000 S    
C12   C14   1.627014 S    
O2    C1    1.270924 A    
C6    C8    1.620816 S    
Zn2   O8    1.952527 S    
O5    Zn1   2.057059 S    
N4    H3    1.042035 S    
C7    C13   1.637081 S    
N2    Zn1   1.991447 S    
O7    C4    1.270363 A    
N13   H14   1.035551 S    
N3    H2    1.033783 S    
N8    O11   1.299600 A    
N11   H10   1.046563 S    
O3    C2    1.280563 A    
O8    C4    1.268694 A    
N7    O9    1.297385 A    
C11   C13   1.622852 S    
C11   N12   1.491195 S    
N14   H16   1.044765 S    
C12   N13   1.491288 S    
N9    O14   1.300634 A    
N3    H1    1.040258 S    
O2    Zn2   1.956808 S    
N12   H11   1.037711 S    
N6    H7    1.040139 S    
C4    C10   1.367473 S    
C3    C14   1.488781 S    
C7    C9    1.622306 S    
C7    N4    1.479374 S    
C11   N11   1.480255 S    
C6    N3    1.495521 S    
N11   H9    1.045412 S    
Zn1   O7    1.956815 S    
N14   H15   1.046597 S    
C8    C14   1.637296 S    
