data_mof_unit_12282.cif
_audit_creation_date              2012-12-10T18:48:38-0500
_audit_creation_method            fapswitch 2.2
_symmetry_space_group_name_H-M    P1
_symmetry_Int_Tables_number       1
_space_group_crystal_system       triclinic
_cell_length_a                    15.884062
_cell_length_b                    14.660721
_cell_length_c                    10.005349
_cell_angle_alpha                 90.483051
_cell_angle_beta                  88.933378
_cell_angle_gamma                 89.223273
_cell_volume                      2329.25800618

loop_
_atom_site_label
_atom_site_type_symbol
_atom_type_description
_atom_site_fract_x
_atom_site_fract_y
_atom_site_fract_z
_atom_type_partial_charge
C1    C     C_R   0.117587 0.377876 0.498369 1.032083
C2    C     C_R   0.011860 0.421048 0.927764 0.462067
C3    C     C_R   0.015028 0.421645 0.068976 0.399395
C4    C     C_R   0.992141 0.579543 0.930309 0.530420
C5    C     C_R   0.489509 0.079206 0.071729 0.517424
C6    C     C_R   0.511856 0.921047 0.927765 0.462083
C7    C     C_R   0.515025 0.921644 0.068976 0.399368
C8    C     C_R   0.492145 0.079544 0.930309 0.530404
C9    C     C_R   0.802430 0.257533 0.385834 0.214912
C10   C     C_R   0.226716 0.709209 0.621319 0.261685
C11   C     C_R   0.224695 0.717657 0.379543 0.292648
C12   C     C_R   0.877174 0.617202 0.501281 0.977206
C13   C     C_R   0.772710 0.288734 0.620224 0.269109
C14   C     C_R   0.175562 0.238666 0.595408 0.316609
C15   C     C_R   0.777589 0.711327 0.377563 0.230643
C16   C     C_R   0.750872 0.693250 0.615711 0.312963
C17   C     C_R   0.233882 0.293145 0.385552 0.238873
C18   C     C_R   0.302429 0.757533 0.385836 0.214885
C19   C     C_R   0.726726 0.209194 0.621317 0.261740
C20   C     C_R   0.724696 0.217656 0.379542 0.292595
C21   C     C_R   0.272700 0.788749 0.620218 0.269252
C22   C     C_R   0.675562 0.738665 0.595408 0.316613
C23   C     C_R   0.881760 0.378322 0.500556 1.026947
C24   C     C_R   0.277591 0.211329 0.377563 0.230657
C25   C     C_R   0.250873 0.193250 0.615711 0.313004
C26   C     C_R   0.733881 0.793143 0.385550 0.238880
C27   C     C_R   0.190344 0.682673 0.499554 -0.319452
C28   C     C_R   0.819529 0.307294 0.502676 -0.297358
C29   C     C_R   0.801980 0.674346 0.500631 -0.320588
C30   C     C_R   0.176229 0.303370 0.493067 -0.326346
C31   C     C_R   0.690347 0.182668 0.499552 -0.319436
C32   C     C_R   0.319525 0.807299 0.502675 -0.297389
C33   C     C_R   0.301981 0.174347 0.500631 -0.320611
C34   C     C_R   0.120603 0.619473 0.499530 0.987374
C35   C     C_R   0.676228 0.803370 0.493067 -0.326330
C36   C     C_R   0.617586 0.877876 0.498369 1.032069
C37   C     C_R   0.377174 0.117202 0.501281 0.977210
C38   C     C_R   0.381760 0.878323 0.500555 1.026946
C39   C     C_R   0.620604 0.119472 0.499530 0.987366
C40   C     C_R   0.989507 0.579206 0.071729 0.517414
H1    H     H_    0.991746 0.653139 0.228993 0.400661
H2    H     H_    0.173362 0.697227 0.910164 0.421623
H3    H     H_    0.215327 0.613959 0.132315 0.419111
H4    H     H_    0.819805 0.323167 0.902875 0.407122
H5    H     H_    0.025680 0.123477 0.817235 0.430860
H6    H     H_    0.813794 0.718818 0.096571 0.407013
H7    H     H_    0.759449 0.572992 0.880933 0.436991
H8    H     H_    0.206438 0.337524 0.104265 0.401408
H9    H     H_    0.365206 0.836624 0.156300 0.361193
H10   H     H_    0.673391 0.197192 0.910173 0.421640
H11   H     H_    0.715322 0.113935 0.132361 0.419104
H12   H     H_    0.997206 0.345385 0.775124 0.395199
H13   H     H_    0.319698 0.823219 0.902996 0.407153
H14   H     H_    0.525793 0.623271 0.817184 0.430818
H15   H     H_    0.313791 0.218823 0.096563 0.407013
H16   H     H_    0.259450 0.072996 0.880936 0.437004
H17   H     H_    0.706433 0.837513 0.104265 0.401413
H18   H     H_    0.015829 0.347402 0.222327 0.396493
H19   H     H_    0.999717 0.654180 0.773646 0.387832
H20   H     H_    0.491746 0.153140 0.228994 0.400662
H21   H     H_    0.497204 0.845386 0.775121 0.395226
H22   H     H_    0.515827 0.847402 0.222328 0.396487
H23   H     H_    0.499719 0.154180 0.773645 0.387831
H24   H     H_    0.865201 0.336634 0.156305 0.361226
N1    N     N_R   1.000000 0.500000 0.857200 -0.270328
N2    N     N_R   1.000000 0.500000 0.142800 -0.285573
N3    N     N_R   0.500000 0.000000 0.857200 -0.270347
N4    N     N_R   0.500000 0.000000 0.142800 -0.285577
O1    O     O_R   0.091610 0.408380 0.614620 -0.604579
O2    O     O_R   0.408390 0.091620 0.385380 -0.619043
O3    O     O_R   0.408390 0.091620 0.614620 -0.581373
O4    O     O_R   0.591610 0.908380 0.385380 -0.596848
O5    O     O_R   0.408390 0.908380 0.385380 -0.652097
O6    O     O_R   0.591610 0.091620 0.614620 -0.608087
O7    O     O_R   0.591610 0.091620 0.385380 -0.577975
O8    O     O_R   0.408390 0.908380 0.614620 -0.584428
O9    O     O_3   0.980341 0.662265 0.134368 -0.584747
O10   O     O_3   0.020569 0.338252 0.864410 -0.595320
O11   O     O_3   0.034135 0.340700 0.128976 -0.589786
O12   O     O_R   0.908390 0.591620 0.385380 -0.619046
O13   O     O_3   0.990879 0.663248 0.870112 -0.586086
O14   O     O_3   0.480345 0.162265 0.134367 -0.584734
O15   O     O_3   0.520561 0.838251 0.864411 -0.595132
O16   O     O_3   0.534130 0.840698 0.128976 -0.589764
O17   O     O_3   0.490886 0.163248 0.870112 -0.586087
O18   O     O_2   0.966409 0.218353 0.335672 -0.213421
O19   O     O_2   0.863040 0.116794 0.241434 -0.143511
O20   O     O_3   0.880025 0.273061 0.130217 -0.465430
O21   O     O_2   0.251925 0.535653 0.697386 -0.192486
O22   O     O_2   0.327177 0.653200 0.819209 -0.234027
O23   O     O_R   0.908390 0.591620 0.614620 -0.581371
O24   O     O_3   0.167283 0.637120 0.866194 -0.501743
O25   O     O_2   0.082841 0.775261 0.272866 -0.202252
O26   O     O_2   0.209822 0.802209 0.141560 -0.229477
O27   O     O_3   0.157071 0.635858 0.151039 -0.503309
O28   O     O_2   0.736944 0.463937 0.670760 -0.235895
O29   O     O_2   0.663428 0.353256 0.808971 -0.214744
O30   O     O_3   0.821061 0.382157 0.855844 -0.511214
O31   O     O_2   0.005189 0.231033 0.599332 -0.320795
O32   O     O_2   0.085051 0.089424 0.564297 -0.174040
O33   O     O_3   0.078423 0.157678 0.803173 -0.404454
O34   O     O_R   0.091610 0.408380 0.385380 -0.596845
O35   O     O_2   0.754211 0.539721 0.286767 -0.209224
O36   O     O_2   0.660805 0.659172 0.203382 -0.167458
O37   O     O_3   0.813714 0.652320 0.112059 -0.472619
O38   O     O_2   0.864776 0.757814 0.779104 -0.196880
O39   O     O_2   0.723380 0.743361 0.871739 -0.224280
O40   O     O_3   0.812104 0.594657 0.838002 -0.455083
O41   O     O_2   0.265266 0.471440 0.363326 -0.229349
O42   O     O_2   0.355561 0.366810 0.232140 -0.190716
O43   O     O_3   0.203496 0.396877 0.151956 -0.463966
O44   O     O_2   0.466409 0.718352 0.335680 -0.213430
O45   O     O_R   0.908390 0.408380 0.385380 -0.652092
O46   O     O_2   0.363041 0.616786 0.241453 -0.143491
O47   O     O_3   0.380024 0.773048 0.130217 -0.465380
O48   O     O_2   0.751927 0.035630 0.697351 -0.192475
O49   O     O_2   0.827195 0.153160 0.819181 -0.234180
O50   O     O_3   0.667301 0.137091 0.866189 -0.501706
O51   O     O_2   0.582843 0.275263 0.272866 -0.202259
O52   O     O_2   0.709824 0.302204 0.141553 -0.229356
O53   O     O_3   0.657067 0.135855 0.151041 -0.503330
O54   O     O_2   0.236954 0.963958 0.670743 -0.235877
O55   O     O_2   0.163412 0.853290 0.808941 -0.214773
O56   O     O_R   0.091610 0.591620 0.614620 -0.608084
O57   O     O_3   0.321047 0.882161 0.855841 -0.511224
O58   O     O_2   0.505187 0.731029 0.599334 -0.320642
O59   O     O_2   0.585055 0.589424 0.564300 -0.174196
O60   O     O_3   0.578422 0.657682 0.803176 -0.404442
O61   O     O_2   0.254213 0.039724 0.286762 -0.209224
O62   O     O_2   0.160809 0.159176 0.203376 -0.167461
O63   O     O_3   0.313720 0.152326 0.112061 -0.472623
O64   O     O_2   0.364779 0.257815 0.779102 -0.196908
O65   O     O_2   0.223382 0.243365 0.871737 -0.224287
O66   O     O_3   0.312106 0.094661 0.838006 -0.455082
O67   O     O_R   0.091610 0.591620 0.385380 -0.577964
O68   O     O_2   0.765262 0.971439 0.363315 -0.229359
O69   O     O_2   0.855559 0.866808 0.232135 -0.190708
O70   O     O_3   0.703493 0.896869 0.151949 -0.463975
O71   O     O_R   0.908390 0.408380 0.614620 -0.584454
O72   O     O_R   0.591610 0.908380 0.614620 -0.604589
S1    S     S_3+6 0.881224 0.214717 0.273753 0.157694
S2    S     S_3+6 0.745802 0.131268 0.752400 0.129254
S3    S     S_3+6 0.667245 0.235533 0.232669 0.127211
S4    S     S_3+6 0.245910 0.874163 0.740672 0.111485
S5    S     S_3+6 0.582690 0.679055 0.638428 0.140690
S6    S     S_3+6 0.249459 0.137774 0.244367 0.130333
S7    S     S_3+6 0.288265 0.198938 0.780271 0.137172
S8    S     S_3+6 0.767089 0.884417 0.282843 0.127480
S9    S     S_3+6 0.245790 0.631295 0.752418 0.129248
S10   S     S_3+6 0.167244 0.735535 0.232670 0.127193
S11   S     S_3+6 0.745918 0.374143 0.740687 0.111468
S12   S     S_3+6 0.082690 0.179054 0.638426 0.140695
S13   S     S_3+6 0.749456 0.637770 0.244369 0.130335
S14   S     S_3+6 0.788263 0.698936 0.780271 0.137160
S15   S     S_3+6 0.267092 0.384420 0.282849 0.127485
S16   S     S_3+6 0.381223 0.714711 0.273761 0.157711
Zn1   Zn    Zn3+2 0.000000 0.500000 0.653120 1.093484
Zn2   Zn    Zn3+2 0.000000 0.500000 0.346880 1.065558
Zn3   Zn    Zn3+2 0.500000 0.000000 0.653120 1.093502
Zn4   Zn    Zn3+2 0.500000 0.000000 0.346880 1.065548

loop_
_geom_bond_atom_site_label_1
_geom_bond_atom_site_label_2
_ccdc_geom_bond_type
C10   C27   A    
O7    Zn4   S    
O37   S13   S    
C11   C18   A    
O47   S16   S    
O62   S6    D    
O51   S3    D    
O53   S3    S    
O69   S8    D    
C35   C36   S    
O54   S4    D    
O12   Zn2   S    
C2    N1    A    
C3    O11   S    
O34   Zn2   S    
O8    Zn3   S    
C38   O8    A    
O32   S12   D    
O66   S7    S    
O5    Zn4   S    
O6    Zn3   S    
C23   O71   A    
C5    N4    A    
O72   Zn3   S    
H1    O9    S    
C4    N1    A    
C12   C29   S    
O60   S5    S    
O57   S4    S    
H6    O37   S    
O63   S6    S    
C8    O17   S    
C39   O6    A    
O42   S15   D    
C11   S10   S    
C7    N4    A    
H20   O14   S    
O35   S13   D    
C4    O13   S    
C4    C40   A    
O70   S8    S    
O38   S14   D    
O55   S4    D    
H3    O27   S    
C13   C28   A    
O65   S7    D    
C39   O7    A    
O45   Zn2   S    
H2    O24   S    
H13   O57   S    
O21   S9    D    
C7    O16   S    
C19   C31   A    
C27   C34   S    
O67   Zn2   S    
C40   N2    A    
C37   O2    A    
H23   O17   S    
C17   C30   A    
C20   S3    S    
O25   S10   D    
O52   S3    D    
H4    O30   S    
C14   C30   A    
O22   S9    D    
H12   O10   S    
O46   S16   D    
O58   S5    D    
C15   C29   A    
O30   S11   S    
C10   C21   A    
C21   C32   A    
C17   C24   A    
C15   S13   S    
C13   C19   A    
C13   S11   S    
N1    Zn1   S    
H21   O15   S    
C9    S1    S    
C38   O5    A    
C15   C26   A    
C16   C29   A    
O28   S11   D    
H14   O60   S    
C1    O1    A    
C16   C22   A    
C2    O10   S    
C23   O45   A    
C9    C20   A    
O1    Zn1   S    
C22   S5    S    
C11   C27   A    
O56   Zn1   S    
O29   S11   D    
C12   O23   A    
C25   S7    S    
O27   S10   S    
C23   C28   S    
O19   S1    D    
C26   S8    S    
C36   O72   A    
O61   S6    D    
O68   S8    D    
H5    O33   S    
H18   O11   S    
O59   S5    D    
O48   S2    D    
C6    N3    A    
H9    O47   S    
C19   S2    S    
C32   C38   S    
C37   O3    A    
C16   S14   S    
O36   S13   D    
C3    N2    A    
C18   C32   A    
C17   S15   S    
O20   S1    S    
N2    Zn2   S    
C18   S16   S    
O18   S1    D    
H22   O16   S    
C34   O56   A    
C6    O15   S    
H10   O50   S    
O64   S7    D    
H19   O13   S    
C21   S4    S    
O50   S2    S    
C5    C8    A    
H16   O66   S    
C6    C7    A    
O26   S10   D    
O3    Zn3   S    
O31   S12   D    
O33   S12   S    
H15   O63   S    
C24   C33   A    
O4    Zn4   S    
C22   C35   A    
O49   S2    D    
C10   S9    S    
C24   S6    S    
C5    O14   S    
C34   O67   A    
H11   O53   S    
C12   O12   A    
C1    C30   S    
C31   C39   S    
H17   O70   S    
C2    C3    A    
O2    Zn4   S    
C14   C25   A    
O41   S15   D    
C33   C37   S    
O23   Zn1   S    
O39   S14   D    
C26   C35   A    
H8    O43   S    
O40   S14   S    
O71   Zn1   S    
C8    N3    A    
H7    O40   S    
O44   S16   D    
C14   S12   S    
O24   S9    S    
C40   O9    S    
N3    Zn3   S    
N4    Zn4   S    
O43   S15   S    
C1    O34   A    
H24   O20   S    
C36   O4    A    
C9    C28   A    
C25   C33   A    
C20   C31   A    
