data_mof_unit_25839.cif
_audit_creation_date              2012-12-10T20:53:12-0500
_audit_creation_method            fapswitch 2.2
_symmetry_space_group_name_H-M    P1
_symmetry_Int_Tables_number       1
_space_group_crystal_system       triclinic
_cell_length_a                    18.357807
_cell_length_b                    18.358274
_cell_length_c                    18.366413
_cell_angle_alpha                 59.863297
_cell_angle_beta                  59.859311
_cell_angle_gamma                 59.908937
_cell_volume                      4364.65415453

loop_
_atom_site_label
_atom_site_type_symbol
_atom_type_description
_atom_site_fract_x
_atom_site_fract_y
_atom_site_fract_z
_atom_type_partial_charge
C1    C     C_R   0.389923 0.110178 0.110145 0.784240
C2    C     C_R   0.381474 0.804758 0.778942 -0.123219
C3    C     C_R   0.034409 0.554142 0.911086 0.071823
C4    C     C_R   0.448556 0.089953 0.964599 0.071301
C5    C     C_R   0.551446 0.910048 0.035401 0.071302
C6    C     C_R   0.945968 0.945915 0.553834 -0.153226
C7    C     C_R   0.054030 0.054087 0.446166 -0.153226
C8    C     C_R   0.946066 0.553882 0.945864 -0.159690
C9    C     C_R   0.053934 0.446114 0.054138 -0.159686
C10   C     C_R   0.553820 0.945896 0.946031 -0.158291
C11   C     C_R   0.446181 0.054104 0.053969 -0.158291
C12   C     C_R   0.194531 0.219140 0.620019 -0.124154
C13   C     C_R   0.805463 0.780858 0.379980 -0.124156
C14   C     C_R   0.177446 0.577598 0.284040 -0.126140
C15   C     C_R   0.822555 0.422398 0.715956 -0.126152
C16   C     C_R   0.576943 0.285097 0.178534 -0.130077
C17   C     C_R   0.423056 0.714905 0.821467 -0.130066
C18   C     C_R   0.284548 0.177024 0.578471 -0.129973
C19   C     C_R   0.715447 0.822976 0.421527 -0.129982
C20   C     C_R   0.087582 0.585545 0.314412 0.149289
C21   C     C_R   0.610077 0.889822 0.889856 0.784238
C22   C     C_R   0.912417 0.414454 0.685588 0.149288
C23   C     C_R   0.585169 0.314837 0.088721 0.150361
C24   C     C_R   0.414830 0.685164 0.911280 0.150360
C25   C     C_R   0.314531 0.087553 0.585479 0.149761
C26   C     C_R   0.685468 0.912445 0.414521 0.149761
C27   C     C_R   0.040433 0.635332 0.253981 -0.141923
C28   C     C_R   0.959563 0.364672 0.746021 -0.141912
C29   C     C_R   0.635413 0.254040 0.041948 -0.140563
C30   C     C_R   0.364584 0.745960 0.958054 -0.140566
C31   C     C_R   0.253813 0.040694 0.634458 -0.140114
C32   C     C_R   0.110147 0.110217 0.389901 0.787188
C33   C     C_R   0.746190 0.959301 0.365546 -0.140105
C34   C     C_R   0.082804 0.676711 0.164032 -0.123855
C35   C     C_R   0.917190 0.323293 0.835969 -0.123851
C36   C     C_R   0.676994 0.164350 0.084633 -0.124388
C37   C     C_R   0.323002 0.835649 0.915371 -0.124391
C38   C     C_R   0.163953 0.082959 0.676057 -0.123528
C39   C     C_R   0.836049 0.917033 0.323947 -0.123526
C40   C     C_R   0.172326 0.668492 0.134020 -0.112297
C41   C     C_R   0.827670 0.331507 0.865978 -0.112301
C42   C     C_R   0.668542 0.134968 0.174086 -0.112009
C43   C     C_R   0.889851 0.889785 0.610099 0.787188
C44   C     C_R   0.331455 0.865032 0.825918 -0.112013
C45   C     C_R   0.134325 0.172086 0.668832 -0.112432
C46   C     C_R   0.865672 0.827908 0.331170 -0.112435
C47   C     C_R   0.987655 0.591162 0.464513 -0.270899
C48   C     C_R   0.012345 0.408838 0.535487 -0.270902
C49   C     C_R   0.590977 0.464766 0.988296 -0.275394
C50   C     C_R   0.409023 0.535234 0.011704 -0.275395
C51   C     C_R   0.464609 0.987893 0.591080 -0.275270
C52   C     C_R   0.535390 0.012108 0.408920 -0.275270
C53   C     C_R   0.944420 0.552457 0.555071 -0.050395
C54   C     C_R   0.110070 0.389910 0.110249 0.781545
C55   C     C_R   0.055580 0.447543 0.444929 -0.050395
C56   C     C_R   0.552465 0.555088 0.944418 -0.048708
C57   C     C_R   0.447535 0.444912 0.055582 -0.048709
C58   C     C_R   0.555093 0.944550 0.552437 -0.049427
C59   C     C_R   0.444907 0.055451 0.447563 -0.049427
C60   C     C_R   0.956753 0.460047 0.591025 -0.012236
C61   C     C_R   0.043247 0.539953 0.408975 -0.012236
C62   C     C_R   0.460253 0.590808 0.956119 -0.011697
C63   C     C_R   0.539747 0.409192 0.043881 -0.011696
C64   C     C_R   0.590957 0.956713 0.460098 -0.011922
C65   C     C_R   0.889928 0.610089 0.889754 0.781543
C66   C     C_R   0.409042 0.043288 0.539902 -0.011921
C67   C     C_R   0.110884 0.390423 0.389762 0.786252
C68   C     C_R   0.889116 0.609577 0.610238 0.786254
C69   C     C_R   0.390414 0.389745 0.110900 0.783873
C70   C     C_R   0.609586 0.610255 0.889100 0.783871
C71   C     C_R   0.389758 0.110824 0.390428 0.783003
C72   C     C_R   0.610241 0.889176 0.609572 0.783004
C73   C     C_R   0.919100 0.188396 0.442424 -0.148827
C74   C     C_R   0.080897 0.811606 0.557579 -0.148819
C75   C     C_R   0.929383 0.393618 0.178020 -0.145238
C76   C     C_R   0.219659 0.618950 0.193938 -0.122790
C77   C     C_R   0.070626 0.606360 0.821975 -0.145237
C78   C     C_R   0.399072 0.180062 0.927474 -0.145963
C79   C     C_R   0.600932 0.819939 0.072524 -0.145969
C80   C     C_R   0.826387 0.227141 0.467606 -0.155500
C81   C     C_R   0.173609 0.772861 0.532405 -0.155489
C82   C     C_R   0.842065 0.394551 0.211536 -0.146143
C83   C     C_R   0.157953 0.605404 0.788451 -0.146137
C84   C     C_R   0.402709 0.214730 0.839084 -0.144035
C85   C     C_R   0.597296 0.785272 0.160914 -0.144034
C86   C     C_R   0.772800 0.173492 0.520849 -0.142504
C87   C     C_R   0.780341 0.381045 0.806058 -0.122792
C88   C     C_R   0.227197 0.826511 0.479168 -0.142504
C89   C     C_R   0.788590 0.448100 0.157985 -0.152968
C90   C     C_R   0.211430 0.551847 0.841999 -0.152979
C91   C     C_R   0.456000 0.161114 0.785629 -0.150408
C92   C     C_R   0.544001 0.838887 0.214371 -0.150408
C93   C     C_R   0.811621 0.080784 0.549422 -0.145806
C94   C     C_R   0.188377 0.919218 0.450589 -0.145806
C95   C     C_R   0.822195 0.500893 0.070559 -0.153757
C96   C     C_R   0.177817 0.499072 0.929432 -0.153742
C97   C     C_R   0.505944 0.072552 0.820277 -0.149063
C98   C     C_R   0.618525 0.195244 0.221060 -0.123220
C99   C     C_R   0.494054 0.927447 0.179723 -0.149060
C100  C     C_R   0.905652 0.039818 0.524995 0.071021
C101  C     C_R   0.094346 0.960184 0.475009 0.071023
C102  C     C_R   0.911231 0.500197 0.034364 0.072916
C103  C     C_R   0.088773 0.499789 0.965633 0.072924
C104  C     C_R   0.502778 0.035420 0.910215 0.073334
C105  C     C_R   0.497222 0.964580 0.089785 0.073334
C106  C     C_R   0.960132 0.094360 0.470726 0.073895
C107  C     C_R   0.039866 0.905642 0.529275 0.073894
C108  C     C_R   0.965594 0.445847 0.088913 0.071821
H1    H     H_    0.299187 0.796195 0.459791 0.127231
H2    H     H_    0.338742 0.562731 0.019303 0.173469
H3    H     H_    0.436959 0.979983 0.661445 0.173806
H4    H     H_    0.563041 0.020017 0.338555 0.173806
H5    H     H_    0.958053 0.232848 0.400880 0.110971
H6    H     H_    0.041944 0.767155 0.599119 0.110973
H7    H     H_    0.967584 0.352027 0.223032 0.127438
H8    H     H_    0.032422 0.647956 0.776965 0.127436
H9    H     H_    0.357618 0.224926 0.965855 0.126552
H10   H     H_    0.642390 0.775076 0.034143 0.126558
H11   H     H_    0.796002 0.299124 0.445785 0.123927
H12   H     H_    0.700809 0.203806 0.540233 0.127233
H13   H     H_    0.203994 0.700878 0.554228 0.123917
H14   H     H_    0.815585 0.353978 0.279556 0.134030
H15   H     H_    0.184439 0.645964 0.720425 0.134015
H16   H     H_    0.364399 0.283684 0.811829 0.133561
H17   H     H_    0.635609 0.716319 0.188168 0.133561
H18   H     H_    0.767223 0.041771 0.590857 0.114339
H19   H     H_    0.232774 0.958230 0.409158 0.114342
H20   H     H_    0.777287 0.542502 0.032252 0.128204
H21   H     H_    0.222726 0.457456 0.967738 0.128183
H22   H     H_    0.547345 0.034042 0.775537 0.125173
H23   H     H_    0.279494 0.550712 0.815528 0.129778
H24   H     H_    0.452651 0.965956 0.224465 0.125170
H25   H     H_    0.289109 0.612250 0.170555 0.121584
H26   H     H_    0.710892 0.387741 0.829438 0.121584
H27   H     H_    0.611684 0.172327 0.290457 0.121038
H28   H     H_    0.388315 0.827675 0.709545 0.121038
H29   H     H_    0.171450 0.288294 0.614058 0.120836
H30   H     H_    0.828541 0.711705 0.385938 0.120834
H31   H     H_    0.971332 0.641287 0.276395 0.115744
H32   H     H_    0.028663 0.358720 0.723610 0.115745
H33   H     H_    0.641653 0.275991 0.972862 0.116301
H34   H     H_    0.720534 0.449213 0.184447 0.129778
H35   H     H_    0.358345 0.724008 0.027141 0.116302
H36   H     H_    0.275970 0.971875 0.639718 0.116165
H37   H     H_    0.724036 0.028119 0.360288 0.116164
H38   H     H_    0.046351 0.714845 0.117525 0.132537
H39   H     H_    0.953641 0.285162 0.882478 0.132538
H40   H     H_    0.715515 0.117563 0.048460 0.132371
H41   H     H_    0.284480 0.882435 0.951545 0.132372
H42   H     H_    0.117227 0.046722 0.713627 0.132263
H43   H     H_    0.882777 0.953267 0.286380 0.132261
H44   H     H_    0.204920 0.700316 0.064288 0.127553
H45   H     H_    0.540882 0.811622 0.283185 0.127436
H46   H     H_    0.795075 0.299682 0.935710 0.127553
H47   H     H_    0.700575 0.065439 0.206888 0.127592
H48   H     H_    0.299420 0.934561 0.793117 0.127594
H49   H     H_    0.064667 0.204596 0.700864 0.127450
H50   H     H_    0.935330 0.795396 0.299138 0.127449
H51   H     H_    0.214714 0.538899 0.329911 0.104552
H52   H     H_    0.785289 0.461093 0.670084 0.104557
H53   H     H_    0.537957 0.331274 0.215487 0.103118
H54   H     H_    0.462044 0.668729 0.784512 0.103118
H55   H     H_    0.330664 0.214052 0.540409 0.103545
H56   H     H_    0.459117 0.188378 0.716815 0.127435
H57   H     H_    0.669328 0.785952 0.459586 0.103548
H58   H     H_    0.979578 0.661592 0.436790 0.174182
H59   H     H_    0.020422 0.338408 0.563210 0.174182
H60   H     H_    0.661258 0.437269 0.980697 0.173467
O1    O     O_3   0.250000 0.250000 0.250000 -0.486918
O2    O     O_R   0.865800 0.694910 0.573470 -0.640437
O3    O     O_R   0.305090 0.426530 0.134200 -0.642643
O4    O     O_R   0.694910 0.573470 0.865800 -0.642645
O5    O     O_R   0.426530 0.134200 0.305090 -0.642017
O6    O     O_R   0.573470 0.865800 0.694910 -0.642019
O7    O     O_R   0.134190 0.426530 0.134200 -0.638382
O8    O     O_R   0.865810 0.573470 0.865800 -0.638386
O9    O     O_R   0.426530 0.134200 0.134190 -0.638790
O10   O     O_R   0.573470 0.865800 0.865810 -0.638790
O11   O     O_R   0.134200 0.134190 0.426530 -0.636721
O12   O     O_3   0.750000 0.750000 0.750000 -0.486917
O13   O     O_R   0.865800 0.865810 0.573470 -0.636722
O14   O     O_R   0.426530 0.305080 0.134210 -0.630560
O15   O     O_R   0.573470 0.694920 0.865790 -0.630560
O16   O     O_R   0.305080 0.134210 0.426530 -0.631570
O17   O     O_R   0.694920 0.865790 0.573470 -0.631569
O18   O     O_R   0.134210 0.426530 0.305080 -0.630924
O19   O     O_R   0.865790 0.573470 0.694920 -0.630924
O20   O     O_R   0.305080 0.134200 0.134200 -0.636209
O21   O     O_R   0.694920 0.865800 0.865800 -0.636212
O22   O     O_R   0.134200 0.134200 0.305080 -0.636227
O23   O     O_R   0.865800 0.865800 0.694920 -0.636225
O24   O     O_R   0.134200 0.305080 0.134200 -0.639449
O25   O     O_R   0.865800 0.694920 0.865800 -0.639445
O26   O     O_R   0.134200 0.305090 0.426530 -0.640439
Zn1   Zn    Zn3+2 0.206620 0.206630 0.380140 0.965929
Zn2   Zn    Zn3+2 0.793380 0.793370 0.619860 0.965931
Zn3   Zn    Zn3+2 0.206630 0.380140 0.206620 0.963709
Zn4   Zn    Zn3+2 0.793370 0.619860 0.793380 0.963707
Zn5   Zn    Zn3+2 0.380140 0.206620 0.206630 0.963890
Zn6   Zn    Zn3+2 0.619860 0.793380 0.793370 0.963890
Zn7   Zn    Zn3+2 0.206620 0.206620 0.206620 0.959608
Zn8   Zn    Zn3+2 0.793380 0.793380 0.793380 0.959609

loop_
_geom_bond_atom_site_label_1
_geom_bond_atom_site_label_2
_ccdc_geom_bond_type
C25   C31   A    
C48   C55   A    
C101  C107  A    
C84   H16   S    
C49   C63   A    
O5    Zn5   S    
C27   H31   S    
C36   C42   A    
C1    C11   S    
C58   C72   S    
O1    Zn1   S    
O11   Zn1   S    
C94   H19   S    
C9    C108  A    
C29   C36   A    
C59   C71   S    
C33   C39   A    
C82   C89   A    
C54   O24   A    
C99   H24   S    
C34   C40   A    
C23   C29   A    
O1    Zn3   S    
C86   C93   A    
C97   H22   S    
O12   Zn8   S    
C42   C98   A    
C59   C66   A    
C22   C60   S    
C13   C46   A    
C52   H4    S    
C89   H34   S    
C46   H50   S    
C79   H10   S    
C39   H43   S    
O20   Zn7   S    
C50   H2    S    
C73   H5    S    
C40   H44   S    
C69   O3    A    
C31   H36   S    
C19   C26   A    
C53   C68   S    
C26   C64   S    
C93   H18   S    
O7    Zn3   S    
C38   C45   A    
C80   C86   A    
C74   C107  A    
C25   C66   S    
C1    O9    A    
C95   H20   S    
C36   H40   S    
C15   C22   A    
C44   H48   S    
C94   C101  A    
C2    C44   A    
C28   H32   S    
C11   C105  A    
C51   H3    S    
O24   Zn7   S    
O18   Zn3   S    
O4    Zn4   S    
C92   H45   S    
O23   Zn8   S    
C72   O6    A    
C5    C79   A    
C67   O26   A    
O12   Zn2   S    
C95   C102  A    
C9    C103  A    
C69   O14   A    
O1    Zn5   S    
C48   C60   A    
C23   C63   S    
O26   Zn1   S    
C80   H11   S    
C43   O23   A    
C8    C65   S    
C27   C34   A    
C22   C28   A    
C71   O5    A    
C2    C17   A    
C87   H26   S    
C18   C25   A    
C68   O2    A    
C41   C87   A    
C85   C92   A    
C57   C63   A    
C65   O25   A    
C10   C21   S    
C58   C64   A    
C99   C105  A    
C88   C94   A    
C17   C24   A    
C13   C19   A    
O19   Zn4   S    
C97   C104  A    
C14   C20   A    
C78   H9    S    
C45   H49   S    
C28   C35   A    
C49   H60   S    
C3    C8    A    
C52   C64   A    
C37   H41   S    
C47   H58   S    
C5    C105  A    
C74   H6    S    
C98   H27   S    
C43   O13   A    
O22   Zn7   S    
C2    H28   S    
O25   Zn8   S    
C40   C76   A    
C30   C37   A    
C81   H13   S    
C51   C66   A    
C6    C100  A    
C54   O7    A    
C89   C95   A    
C4    C78   A    
O12   Zn6   S    
C52   C59   A    
C18   H55   S    
C26   C33   A    
C21   O21   A    
C6    C107  A    
C16   H53   S    
C29   H33   S    
C53   C60   A    
C7    C106  A    
C32   O22   A    
C32   O11   A    
C51   C58   A    
C35   H39   S    
C91   C97   A    
C4    C11   A    
C102  C108  A    
C93   C100  A    
C33   H37   S    
C39   C46   A    
C90   H23   S    
C70   O4    A    
C21   O10   A    
C84   C91   A    
C16   C23   A    
C56   C70   S    
C6    C43   S    
C65   O8    A    
O9    Zn5   S    
C50   C62   A    
C56   C62   A    
C91   H56   S    
C75   H7    S    
C88   H1    S    
O17   Zn2   S    
C77   H8    S    
C79   C85   A    
C15   C87   A    
C41   H46   S    
C75   C108  A    
C1    O20   A    
C3    C103  A    
C83   C90   A    
O10   Zn6   S    
C24   C62   S    
C7    C32   S    
C85   H17   S    
C50   C57   A    
C100  C106  A    
C71   O16   A    
O14   Zn5   S    
O8    Zn4   S    
C12   C45   A    
C47   C61   A    
C55   C67   S    
C76   H25   S    
C67   O18   A    
C75   C82   A    
C90   C96   A    
C20   C27   A    
O21   Zn8   S    
O13   Zn2   S    
O16   Zn1   S    
C19   H57   S    
C20   C61   S    
O6    Zn6   S    
O15   Zn6   S    
C31   C38   A    
C47   C53   A    
C14   H51   S    
C57   C69   S    
C13   H30   S    
C37   C44   A    
C10   C104  A    
C42   H47   S    
C15   H52   S    
O3    Zn3   S    
C49   C56   A    
O2    Zn2   S    
C34   H38   S    
C16   C98   A    
C73   C106  A    
C48   H59   S    
C55   C61   A    
C73   C80   A    
C38   H42   S    
C4    C104  A    
C35   C41   A    
C24   C30   A    
C72   O17   A    
C81   C88   A    
O12   Zn4   S    
C17   H54   S    
C30   H35   S    
O1    Zn7   S    
C68   O19   A    
C78   C84   A    
C70   O15   A    
C5    C10   A    
C7    C101  A    
C96   C103  A    
C12   C18   A    
C77   C83   A    
C12   H29   S    
C86   H12   S    
C9    C54   S    
C74   C81   A    
C83   H15   S    
C8    C102  A    
C82   H14   S    
C92   C99   A    
C14   C76   A    
C96   H21   S    
C3    C77   A    
