data_mof_unit_16045.cif
_audit_creation_date              2012-12-10T16:46:04-0500
_audit_creation_method            fapswitch 2.2
_symmetry_space_group_name_H-M    P1
_symmetry_Int_Tables_number       1
_space_group_crystal_system       triclinic
_cell_length_a                    10.723015
_cell_length_b                    8.699071
_cell_length_c                    7.450864
_cell_angle_alpha                 102.797524
_cell_angle_beta                  94.779609
_cell_angle_gamma                 93.001789
_cell_volume                      673.600615285

loop_
_atom_site_label
_atom_site_type_symbol
_atom_type_description
_atom_site_fract_x
_atom_site_fract_y
_atom_site_fract_z
_atom_type_partial_charge
C1    C     C_R   0.490675 0.199636 0.453570 0.880893
C2    C     C_3   0.878371 0.495421 0.497072 0.042799
C3    C     C_3   0.940912 0.667206 0.525265 -0.135369
C4    C     C_3   0.913410 0.386039 0.316715 -0.395817
C5    C     C_2   0.481093 0.031424 0.427906 -0.356356
C6    C     C_2   0.499355 0.967717 0.573351 -0.365579
C7    C     C_R   0.259979 0.492393 0.500085 0.818827
C8    C     C_R   0.501365 0.800122 0.546747 0.886482
C9    C     C_R   0.740095 0.497508 0.498415 0.772633
C10   C     C_3   0.077467 0.425470 0.663633 0.459894
C11   C     C_3   0.933640 0.425354 0.659956 -0.434588
C12   C     C_3   0.084469 0.662587 0.518801 -0.504280
C13   C     C_3   0.056668 0.387705 0.315595 -0.335710
C14   C     C_3   0.122424 0.491190 0.500345 0.034860
Cu1   Cu    Cu3+1 0.514070 0.517380 0.684380 0.953130
Cu2   Cu    Cu3+1 0.485930 0.482620 0.315620 0.954799
H1    H     H_    0.120364 0.500896 0.797592 0.082598
H2    H     H_    0.869867 0.417603 0.190872 0.177036
H3    H     H_    0.116756 0.709925 0.402122 0.197899
H4    H     H_    0.464658 0.959725 0.287513 0.181324
H5    H     H_    0.516192 0.039369 0.713728 0.175819
H6    H     H_    0.400818 0.377902 0.948223 0.242907
H7    H     H_    0.599072 0.622155 0.051853 0.236936
H8    H     H_    0.891851 0.302951 0.646224 0.202425
H9    H     H_    0.910136 0.495960 0.795081 0.129634
H10   H     H_    0.133214 0.740020 0.647637 0.165071
H11   H     H_    0.927524 0.727858 0.669416 0.114924
H12   H     H_    0.084073 0.434265 0.195818 0.173459
H13   H     H_    0.086111 0.264672 0.295023 0.209221
H14   H     H_    0.875991 0.263743 0.308712 0.180154
N1    N     N_2   0.464720 0.456420 0.038520 -0.221924
N2    N     N_2   0.535280 0.543580 0.961480 -0.223754
O1    O     O_R   0.509140 0.286130 0.619770 -0.577964
O2    O     O_R   0.485380 0.256770 0.308360 -0.590218
O3    O     O_R   0.329570 0.514650 0.655700 -0.584295
O4    O     O_R   0.305810 0.485300 0.344290 -0.594763
O5    O     O_R   0.514620 0.743230 0.691640 -0.590937
O6    O     O_R   0.490860 0.713870 0.380230 -0.575968
O7    O     O_R   0.694190 0.514700 0.655710 -0.597216
O8    O     O_R   0.670430 0.485350 0.344300 -0.586659
C15   C     C_R   0.883629 0.766493 0.399030 0.157585
C16   C     C_R   0.821538 0.900153 0.476868 -0.127258
C17   C     C_R   0.771299 0.995791 0.365914 -0.126307
C18   C     C_R   0.777946 0.957064 0.175225 -0.131639
C19   C     C_R   0.840751 0.826466 0.096292 -0.150025
C20   C     C_R   0.895755 0.733577 0.207451 -0.132373
H15   H     H_    0.813203 0.932148 0.624141 0.104957
H16   H     H_    0.728575 0.101518 0.428712 0.117633
H17   H     H_    0.737171 0.030516 0.089402 0.130205
H18   H     H_    0.848387 0.798743 0.949296 0.123508
H19   H     H_    0.950076 0.639367 0.143353 0.113411
F1    F     F_    0.113993 0.273296 0.652973 -0.682022

loop_
_geom_bond_atom_site_label_1
_geom_bond_atom_site_label_2
_ccdc_geom_bond_type
C18   H17   S    
C2    C4    S    
C15   C20   A    
C13   H12   S    
C15   C16   A    
N1    N2    D    
C17   C18   A    
C10   F1    S    
H7    N2    S    
C3    H11   S    
C2    C3    S    
C10   C11   S    
C4    H2    S    
Cu1   N2    S    
C5    H4    S    
C19   C20   A    
Cu2   O4    S    
Cu2   N1    S    
C6    H5    S    
Cu1   O7    S    
H6    N1    S    
C8    O6    A    
C19   H18   S    
Cu2   O8    S    
C1    C5    S    
C2    C11   S    
C12   H3    S    
C13   H13   S    
C12   H10   S    
C12   C14   S    
C1    O2    A    
C16   H15   S    
C7    C14   S    
C7    O4    A    
C10   C14   S    
C5    C6    D    
C3    C15   S    
C8    O5    A    
C11   H9    S    
C10   H1    S    
C1    O1    A    
Cu1   Cu2   S    
C11   H8    S    
C9    O7    A    
C18   C19   A    
C17   H16   S    
Cu1   O3    S    
C4    C13   S    
Cu1   O5    S    
C6    C8    S    
C3    C12   S    
Cu2   O2    S    
C13   C14   S    
C2    C9    S    
C7    O3    A    
C20   H19   S    
Cu1   O1    S    
C9    O8    A    
C4    H14   S    
C16   C17   A    
Cu2   O6    S    
