data_mof_unit_45034.cif
_audit_creation_date              2012-12-11T14:21:06-0500
_audit_creation_method            fapswitch 2.2
_symmetry_space_group_name_H-M    P1
_symmetry_Int_Tables_number       1
_space_group_crystal_system       triclinic
_cell_length_a                    11.64814
_cell_length_b                    11.558476
_cell_length_c                    19.386477
_cell_angle_alpha                 90.399962
_cell_angle_beta                  90.076338
_cell_angle_gamma                 59.319841
_cell_volume                      2244.69384031

loop_
_atom_site_label
_atom_site_type_symbol
_atom_type_description
_atom_site_fract_x
_atom_site_fract_y
_atom_site_fract_z
_atom_type_partial_charge
C1    C     C_R   0.640776 0.118278 0.598788 0.558075
C2    C     C_1   0.642284 0.702467 0.667535 0.002543
C3    C     C_1   0.148624 0.186744 0.863868 0.001633
C4    C     C_1   0.230682 0.142926 0.736184 -0.033290
C5    C     C_1   0.190780 0.162052 0.805776 -0.030216
C6    C     C_1   0.261371 0.131373 0.676260 0.000188
C7    C     C_1   0.677477 0.190600 0.861284 0.003014
C8    C     C_1   0.657873 0.168101 0.728958 -0.033696
C9    C     C_1   0.664485 0.180885 0.800554 -0.031761
C10   C     C_1   0.652893 0.150837 0.668250 -0.000389
C11   C     C_R   0.692793 0.591500 0.208916 -0.057336
C12   C     C_R   0.613056 0.745100 0.598116 0.527033
C13   C     C_R   0.583014 0.605303 0.248235 0.012916
C14   C     C_R   0.598519 0.587613 0.319709 -0.006602
C15   C     C_R   0.799628 0.598868 0.316375 0.230849
C16   C     C_R   0.803640 0.580667 0.244578 -0.120071
C17   C     C_R   0.455431 0.644115 0.221455 -0.096680
C18   C     C_R   0.361007 0.637145 0.261817 -0.160373
C19   C     C_R   0.390557 0.589959 0.329121 -0.112562
C20   C     C_R   0.510250 0.563590 0.358075 -0.061724
C21   C     C_R   0.683455 0.623391 0.351961 -0.024812
C22   C     C_R   0.199016 0.168090 0.175511 -0.006070
C23   C     C_R   0.299119 0.119319 0.605281 0.567935
C24   C     C_R   0.240752 0.249301 0.206515 0.041073
C25   C     C_R   0.243799 0.253324 0.279228 0.024281
C26   C     C_R   0.268755 0.030903 0.278769 -0.158700
C27   C     C_R   0.230001 0.048939 0.208935 -0.168800
C28   C     C_R   0.256088 0.342466 0.167107 -0.075538
C29   C     C_R   0.225429 0.463802 0.196456 -0.122174
C30   C     C_R   0.196727 0.483360 0.266234 -0.122127
C31   C     C_R   0.217300 0.377609 0.308051 -0.105332
C32   C     C_R   0.264038 0.137237 0.317162 -0.011187
C33   C     C_R   0.710222 0.210187 0.205633 -0.006955
C34   C     C_R   0.623250 0.083758 0.393537 0.537187
C35   C     C_R   0.809382 0.097558 0.241530 0.036979
C36   C     C_R   0.770433 0.037430 0.291139 0.030368
C37   C     C_R   0.553181 0.241656 0.294933 -0.145986
C38   C     C_R   0.581650 0.283074 0.233445 -0.138775
C39   C     C_R   0.946418 0.043756 0.229949 -0.087057
C40   C     C_R   0.040114 0.927185 0.263306 -0.128351
C41   C     C_R   0.998840 0.857375 0.303814 -0.108729
C42   C     C_R   0.864055 0.905620 0.311976 -0.066065
C43   C     C_R   0.645794 0.117416 0.323868 -0.008566
C44   C     C_R   0.084867 0.229137 0.929654 0.544783
C45   C     C_R   0.623745 0.726383 0.407455 0.523787
C46   C     C_R   0.683165 0.605183 0.929962 0.556467
C47   C     C_R   0.707640 0.205965 0.930634 0.559723
C48   C     C_R   0.097033 0.227651 0.119652 0.517202
C49   C     C_R   0.705065 0.559367 0.134258 0.542077
C50   C     C_R   0.738134 0.234708 0.135331 0.526813
C51   C     C_R   0.297294 0.118274 0.392679 0.542992
C52   C     C_1   0.669092 0.647985 0.860563 0.004375
C53   C     C_1   0.655354 0.682996 0.728294 -0.033034
C54   C     C_1   0.662809 0.667575 0.799824 -0.032586
Cr1   Cr    Cr6+3 0.404720 0.198220 0.499960 0.973514
Cr2   Cr    Cr6+3 0.698290 0.897110 0.500380 0.988688
Cr3   Cr    Cr6+3 0.396970 0.904720 0.499610 1.017949
Cr4   Cr    Cr6+3 0.926180 0.151990 0.028120 1.018935
Cr5   Cr    Cr6+3 0.921330 0.451820 0.027470 1.023203
Cr6   Cr    Cr6+3 0.626260 0.446870 0.028710 1.014520
H1    H     H_    0.217990 0.543721 0.164540 0.110161
H2    H     H_    0.162011 0.579246 0.289155 0.118155
H3    H     H_    0.207590 0.402553 0.361465 0.151559
H4    H     H_    0.460071 0.307332 0.320433 0.148497
H5    H     H_    0.980163 0.096591 0.198857 0.146277
H6    H     H_    0.504611 0.372476 0.208473 0.157269
H7    H     H_    0.144406 0.889799 0.257932 0.106208
H8    H     H_    0.070293 0.771319 0.332481 0.102588
H9    H     H_    0.834674 0.845302 0.340318 0.200140
H10   H     H_    0.420391 0.690833 0.172026 0.154211
H11   H     H_    0.891565 0.563360 0.216592 0.171295
H12   H     H_    0.264724 0.670027 0.239852 0.099388
H13   H     H_    0.318148 0.582381 0.360565 0.090460
H14   H     H_    0.527929 0.538038 0.412260 0.125316
H15   H     H_    0.295231 0.937157 0.303830 0.148730
H16   H     H_    0.273183 0.329209 0.111920 0.132821
H17   H     H_    0.219930 0.973103 0.181308 0.116694
O1    O     O_R   0.267740 0.231960 0.575440 -0.523456
O2    O     O_R   0.685970 0.784660 0.430010 -0.506295
O3    O     O_R   0.502530 0.767000 0.423990 -0.525036
O4    O     O_R   0.288330 0.026350 0.429250 -0.474081
O5    O     O_3   0.499990 0.000020 0.499980 -0.292859
O6    O     O_R   0.821500 0.119340 0.952830 -0.496753
O7    O     O_R   0.037130 0.162530 0.957360 -0.492678
O8    O     O_R   0.056440 0.344740 0.951340 -0.506772
O9    O     O_R   0.797900 0.560360 0.957470 -0.484110
O10   O     O_R   0.596130 0.579390 0.952730 -0.501431
O11   O     O_R   0.639060 0.321160 0.958670 -0.488639
O12   O     O_R   0.527280 0.186640 0.570530 -0.504732
O13   O     O_R   0.821240 0.124200 0.104370 -0.501937
O14   O     O_R   0.036890 0.167040 0.097840 -0.532545
O15   O     O_R   0.056180 0.349610 0.102880 -0.523278
O16   O     O_R   0.797660 0.564870 0.097950 -0.489942
O17   O     O_R   0.595880 0.584250 0.104270 -0.532089
O18   O     O_R   0.638830 0.325670 0.099150 -0.508304
O19   O     O_3   0.824590 0.350230 0.028100 -0.280979
O20   O     O_R   0.728090 0.003450 0.576380 -0.498115
O21   O     O_R   0.682970 0.789190 0.570490 -0.506761
O22   O     O_R   0.499290 0.771880 0.575530 -0.513461
O23   O     O_R   0.285330 0.030870 0.569730 -0.475522
O24   O     O_R   0.270980 0.227080 0.423890 -0.560452
O25   O     O_R   0.530280 0.182120 0.430050 -0.509809
O26   O     O_R   0.731330 0.998570 0.424830 -0.521694
O27   O     O_3   0.900460 0.611979 0.346549 -0.593910
C55   C     C_3   0.943492 0.544552 0.410521 0.023893
H18   H     H_    0.016198 0.436608 0.401225 0.156397
H19   H     H_    0.863583 0.546772 0.442553 0.128673
C56   C     C_3   0.006724 0.611156 0.451903 -0.266668
H20   H     H_    0.088347 0.609390 0.421539 0.130281
H21   H     H_    0.930681 0.718088 0.462244 0.203855
C57   C     C_3   0.062670 0.541282 0.520268 -0.454333
H22   H     H_    0.984567 0.536713 0.550910 0.159767
H23   H     H_    0.100277 0.597160 0.550392 0.142333
H24   H     H_    0.146843 0.438581 0.510001 0.208114

loop_
_geom_bond_atom_site_label_1
_geom_bond_atom_site_label_2
_ccdc_geom_bond_type
C25   C31   A    
C22   C48   S    
C26   C32   A    
C41   C42   A    
C36   C42   A    
C35   C36   A    
Cr2   O21   S    
C2    C12   S    
Cr6   O11   S    
C53   C54   S    
C55   H19   S    
Cr1   O25   S    
C26   C27   A    
C29   C30   A    
Cr2   O2    S    
C14   C21   A    
C28   C29   A    
C30   C31   A    
C50   O18   A    
C15   C16   A    
Cr3   O22   S    
C46   C52   S    
C56   H20   S    
C18   C19   A    
Cr4   O19   S    
C12   O22   A    
C50   O13   A    
C38   H6    S    
C8    C9    S    
C48   O14   A    
C47   O6    A    
C15   O27   S    
C45   O3    A    
Cr4   O14   S    
C51   O4    A    
C12   O21   A    
C25   C32   A    
C23   O23   A    
C17   H10   S    
C13   C14   A    
C39   H5    S    
Cr3   O3    S    
C16   H11   S    
Cr2   O20   S    
O27   C55   S    
Cr6   O10   S    
C52   C54   T    
C26   H15   S    
C41   H8    S    
C21   C45   S    
C18   H12   S    
C55   C56   S    
C29   H1    S    
C3    C44   S    
C34   C43   S    
C14   C20   A    
C19   H13   S    
C24   C25   A    
C45   O2    A    
C1    O20   A    
C39   C40   A    
Cr1   O1    S    
C27   H17   S    
C33   C50   S    
Cr3   O23   S    
C40   H7    S    
C42   H9    S    
C7    C47   S    
C37   C43   A    
C35   C39   A    
Cr5   O8    S    
C32   C51   S    
C37   C38   A    
C11   C49   S    
Cr4   O7    S    
C11   C16   A    
C17   C18   A    
C20   H14   S    
C57   H23   S    
C34   O25   A    
Cr1   O5    S    
Cr4   O13   S    
Cr6   O19   S    
C4    C6    T    
C40   C41   A    
C22   C27   A    
C30   H2    S    
C49   O17   A    
C22   C24   A    
Cr5   O19   S    
C44   O8    A    
C28   H16   S    
C3    C5    T    
C37   H4    S    
C46   O10   A    
C7    C9    T    
C1    O12   A    
C57   H22   S    
C1    C10   S    
C24   C28   A    
Cr2   O26   S    
C4    C5    S    
C44   O7    A    
C2    C53   T    
Cr2   O5    S    
C51   O24   A    
C31   H3    S    
C55   H18   S    
Cr1   O24   S    
C33   C38   A    
C56   C57   S    
C13   C17   A    
C47   O11   A    
C19   C20   A    
Cr5   O9    S    
Cr1   O12   S    
Cr4   O6    S    
C11   C13   A    
C6    C23   S    
C34   O26   A    
C33   C35   A    
C56   H21   S    
C57   H24   S    
Cr3   O4    S    
Cr5   O15   S    
C23   O1    A    
Cr6   O18   S    
C15   C21   A    
C8    C10   T    
C48   O15   A    
Cr3   O5    S    
C36   C43   A    
Cr5   O16   S    
C49   O16   A    
C46   O9    A    
Cr6   O17   S    
