data_mof_unit_18564.cif
_audit_creation_date              2012-12-11T15:08:52-0500
_audit_creation_method            fapswitch 2.2
_symmetry_space_group_name_H-M    P1
_symmetry_Int_Tables_number       1
_space_group_crystal_system       monoclinic
_cell_length_a                    21.781179
_cell_length_b                    21.781172
_cell_length_c                    23.158495
_cell_angle_alpha                 90.0
_cell_angle_beta                  90.0
_cell_angle_gamma                 89.948931
_cell_volume                      10986.8397129

loop_
_atom_site_label
_atom_site_type_symbol
_atom_type_description
_atom_site_fract_x
_atom_site_fract_y
_atom_site_fract_z
_atom_type_partial_charge
C1    C     C_R   0.914388 0.159131 0.073525 0.567621
C2    C     C_R   0.072818 0.144106 0.102877 0.591385
C3    C     C_R   0.274171 0.667721 0.123167 0.538003
C4    C     C_R   0.267906 0.334127 0.871982 0.552124
C5    C     C_R   0.689921 0.779678 0.199643 0.567261
C6    C     C_R   0.309058 0.794398 0.796950 0.566309
C7    C     C_R   0.725830 0.332280 0.123167 0.538007
C8    C     C_R   0.165873 0.232093 0.371983 0.552125
C9    C     C_R   0.720323 0.810078 0.699643 0.567261
C10   C     C_R   0.294397 0.809058 0.296950 0.566308
C11   C     C_R   0.832279 0.225827 0.623166 0.537999
C12   C     C_R   0.834128 0.767906 0.371983 0.552125
C13   C     C_R   0.139516 0.935092 0.892846 0.571197
C14   C     C_R   0.279676 0.189921 0.699642 0.567258
C15   C     C_R   0.705604 0.190943 0.296950 0.566310
C16   C     C_R   0.167720 0.774171 0.623167 0.538002
C17   C     C_R   0.851541 0.149754 0.078114 -0.155861
C18   C     C_R   0.118323 0.884375 0.862888 -0.222588
C19   C     C_R   0.123503 0.121013 0.132048 -0.229899
C20   C     C_R   0.851555 0.848496 0.926596 -0.170864
C21   C     C_R   0.148459 0.850246 0.078115 -0.155860
C22   C     C_R   0.881677 0.115625 0.862888 -0.222589
C23   C     C_R   0.876496 0.878987 0.132048 -0.229900
C24   C     C_R   0.840808 0.087281 0.069155 0.613597
C25   C     C_R   0.148445 0.151504 0.926596 -0.170865
C26   C     C_R   0.350246 0.648459 0.578115 -0.155860
C27   C     C_R   0.615625 0.381677 0.362887 -0.222587
C28   C     C_R   0.621013 0.623504 0.632048 -0.229899
C29   C     C_R   0.348496 0.351555 0.426596 -0.170864
C30   C     C_R   0.649753 0.351541 0.578116 -0.155855
C31   C     C_R   0.384375 0.618323 0.362888 -0.222587
C32   C     C_R   0.378986 0.376496 0.632047 -0.229899
C33   C     C_R   0.651504 0.648445 0.426595 -0.170864
C34   C     C_R   0.819425 0.830741 0.827907 0.536822
C35   C     C_R   0.085381 0.159993 0.930992 0.598032
C36   C     C_R   0.129597 0.155730 0.231552 0.609568
C37   C     C_R   0.872611 0.148151 0.762216 0.610676
C38   C     C_R   0.190690 0.834453 0.173171 0.541395
C39   C     C_R   0.180575 0.169259 0.827907 0.536823
C40   C     C_R   0.870403 0.844269 0.231552 0.609567
C41   C     C_R   0.127389 0.851848 0.762216 0.610680
C42   C     C_R   0.809311 0.165548 0.173171 0.541396
C43   C     C_R   0.330741 0.319424 0.327907 0.536822
C44   C     C_R   0.655731 0.629597 0.731552 0.609568
C45   C     C_R   0.351848 0.627389 0.262216 0.610681
C46   C     C_R   0.927182 0.855894 0.102877 0.591387
C47   C     C_R   0.665546 0.309308 0.673171 0.541397
C48   C     C_R   0.669259 0.680576 0.327907 0.536820
C49   C     C_R   0.344269 0.370403 0.731552 0.609569
C50   C     C_R   0.648152 0.372611 0.262216 0.610688
C51   C     C_R   0.334453 0.690691 0.673171 0.541396
C52   C     C_R   0.816869 0.812417 0.885689 -0.288775
C53   C     C_R   0.156509 0.151529 0.176920 -0.231182
C54   C     C_R   0.848022 0.145639 0.817949 -0.224753
C55   C     C_R   0.186099 0.813985 0.116267 -0.289791
C56   C     C_R   0.183131 0.187583 0.885689 -0.288776
C57   C     C_R   0.860484 0.064908 0.892846 0.571196
C58   C     C_R   0.843491 0.848471 0.176920 -0.231182
C59   C     C_R   0.151978 0.854361 0.817949 -0.224750
C60   C     C_R   0.813901 0.186015 0.116267 -0.289792
C61   C     C_R   0.312417 0.316869 0.385689 -0.288775
C62   C     C_R   0.651530 0.656510 0.676920 -0.231182
C63   C     C_R   0.354361 0.651978 0.317949 -0.224750
C64   C     C_R   0.686014 0.313900 0.616268 -0.289793
C65   C     C_R   0.687583 0.683131 0.385689 -0.288773
C66   C     C_R   0.348470 0.343490 0.676919 -0.231184
C67   C     C_R   0.645639 0.348022 0.317949 -0.224747
C68   C     C_R   0.159192 0.912719 0.069155 0.613596
C69   C     C_R   0.313985 0.686099 0.616268 -0.289792
C70   C     C_R   0.782263 0.761569 0.902969 0.444293
C71   C     C_R   0.215098 0.173681 0.164759 0.469479
C72   C     C_R   0.789503 0.167449 0.831195 0.469885
C73   C     C_R   0.217710 0.762127 0.096553 0.450063
C74   C     C_R   0.217737 0.238431 0.902969 0.444292
C75   C     C_R   0.784901 0.826319 0.164759 0.469479
C76   C     C_R   0.210497 0.832550 0.831195 0.469882
C77   C     C_R   0.782290 0.237873 0.096553 0.450063
C78   C     C_R   0.261569 0.282263 0.402969 0.444294
C79   C     C_R   0.412719 0.659192 0.569155 0.613596
C80   C     C_R   0.673682 0.715099 0.664759 0.469479
C81   C     C_R   0.332550 0.710497 0.331196 0.469881
C82   C     C_R   0.737872 0.282290 0.596553 0.450065
C83   C     C_R   0.738431 0.717736 0.402969 0.444294
C84   C     C_R   0.326318 0.284901 0.664758 0.469479
C85   C     C_R   0.667450 0.289503 0.331196 0.469878
C86   C     C_R   0.262127 0.717710 0.596553 0.450063
C87   C     C_3   0.928708 0.262373 0.094350 -0.061477
C88   C     C_3   0.077262 0.756142 0.900269 -0.035670
C89   C     C_3   0.207620 0.018143 0.166934 -0.051120
C90   C     C_R   0.564908 0.360484 0.392846 0.571193
C91   C     C_3   0.733533 0.906947 0.940060 0.030063
C92   C     C_3   0.071292 0.737628 0.094353 -0.061480
C93   C     C_3   0.922735 0.243858 0.900267 -0.035640
C94   C     C_3   0.792380 0.981858 0.166934 -0.051125
C95   C     C_3   0.266467 0.093053 0.940060 0.030064
C96   C     C_3   0.925540 0.733674 0.926919 -0.148437
C97   C     C_3   0.093429 0.245980 0.090702 -0.019351
C98   C     C_3   0.200315 0.988378 0.829470 -0.105760
C99   C     C_3   0.733830 0.095064 0.055867 0.015102
C100  C     C_3   0.074460 0.266326 0.926920 -0.148433
C101  C     C_R   0.644106 0.572819 0.602877 0.591388
C102  C     C_3   0.906571 0.754020 0.090702 -0.019352
C103  C     C_3   0.799686 0.011621 0.829470 -0.105759
C104  C     C_3   0.266170 0.904936 0.055867 0.015104
C105  C     C_3   0.404936 0.766170 0.555867 0.015101
C106  C     C_3   0.511622 0.299684 0.329470 -0.105755
C107  C     C_3   0.745980 0.593429 0.590701 -0.019353
C108  C     C_3   0.233674 0.425540 0.426918 -0.148433
C109  C     C_3   0.595064 0.233830 0.555866 0.015101
C110  C     C_3   0.488378 0.700315 0.329470 -0.105752
C111  C     C_3   0.254019 0.406571 0.590701 -0.019353
C112  C     C_R   0.069417 0.859619 0.893398 0.578842
C113  C     C_R   0.340008 0.414619 0.430992 0.598031
C114  C     C_3   0.766326 0.574460 0.426918 -0.148453
C115  C     C_3   0.406947 0.233533 0.440060 0.030065
C116  C     C_3   0.518143 0.707621 0.666934 -0.051119
C117  C     C_3   0.743858 0.422745 0.400268 -0.035731
C118  C     C_3   0.237628 0.571292 0.594354 -0.061475
C119  C     C_3   0.593054 0.766467 0.440060 0.030061
C120  C     C_3   0.481856 0.292378 0.666933 -0.051113
C121  C     C_3   0.256142 0.577262 0.400269 -0.035672
C122  C     C_3   0.762371 0.428709 0.594357 -0.061474
C123  C     C_3   0.909803 0.848828 0.781801 -0.073714
C124  C     C_R   0.587280 0.340808 0.569155 0.613594
C125  C     C_3   0.071570 0.070084 0.249463 -0.112365
C126  C     C_3   0.931044 0.062578 0.745310 -0.106485
C127  C     C_3   0.105053 0.860358 0.224474 -0.085038
C128  C     C_3   0.090196 0.151172 0.781801 -0.073716
C129  C     C_3   0.928431 0.929916 0.249463 -0.112363
C130  C     C_3   0.068956 0.937422 0.745310 -0.106486
C131  C     C_3   0.894948 0.139643 0.224473 -0.085035
C132  C     C_3   0.348829 0.409802 0.281801 -0.073714
C133  C     C_3   0.570085 0.571570 0.749462 -0.112364
C134  C     C_3   0.437422 0.568956 0.245310 -0.106486
C135  C     C_R   0.435092 0.639516 0.392846 0.571194
C136  C     C_3   0.639640 0.394944 0.724475 -0.085046
C137  C     C_3   0.651170 0.590198 0.281800 -0.073709
C138  C     C_3   0.429915 0.428430 0.749462 -0.112367
C139  C     C_3   0.562578 0.431043 0.245309 -0.106487
C140  C     C_3   0.360359 0.605054 0.724475 -0.085039
C141  C     C_3   0.801130 0.603537 0.916493 -0.047432
C142  C     C_3   0.370425 0.142198 0.168634 -0.008811
C143  C     C_3   0.639169 0.122491 0.830173 -0.024391
C144  C     C_3   0.208361 0.601655 0.079067 -0.005451
C145  C     C_3   0.198870 0.396462 0.916492 -0.047440
C146  C     C_R   0.355893 0.427181 0.602877 0.591388
C147  C     C_3   0.629575 0.857803 0.168635 -0.008813
C148  C     C_3   0.360831 0.877506 0.830173 -0.024390
C149  C     C_3   0.791643 0.398345 0.079069 -0.005458
C150  C     C_3   0.103537 0.301131 0.416492 -0.047442
C151  C     C_3   0.642199 0.870426 0.668634 -0.008810
C152  C     C_3   0.377505 0.860832 0.330173 -0.024389
C153  C     C_3   0.898345 0.291637 0.579066 -0.005437
C154  C     C_3   0.896463 0.698869 0.416492 -0.047439
C155  C     C_3   0.357799 0.129573 0.668634 -0.008808
C156  C     C_3   0.622496 0.139168 0.330172 -0.024391
C157  C     C_R   0.659992 0.585381 0.430992 0.598040
C158  C     C_3   0.101655 0.708360 0.579068 -0.005446
C159  C     C_R   0.411741 0.340850 0.432407 0.612976
C160  C     C_R   0.568052 0.642681 0.604549 0.567333
C161  C     C_R   0.640381 0.430583 0.393398 0.578854
C162  C     C_R   0.340869 0.585612 0.573526 0.567622
C163  C     C_R   0.588258 0.659150 0.432407 0.612974
C164  C     C_R   0.142680 0.068052 0.104549 0.567333
C165  C     C_R   0.431948 0.357319 0.604548 0.567332
C166  C     C_R   0.359619 0.569417 0.393398 0.578842
C167  C     C_R   0.659130 0.414388 0.573527 0.567623
C168  C     C_R   0.753718 0.725701 0.860394 -0.228515
C169  C     C_R   0.248747 0.201492 0.208650 -0.272964
C170  C     C_R   0.753224 0.191195 0.787254 -0.274226
C171  C     C_R   0.251390 0.726924 0.136586 -0.231345
C172  C     C_R   0.246282 0.274299 0.860394 -0.228515
C173  C     C_R   0.751253 0.798509 0.208651 -0.272964
C174  C     C_R   0.246776 0.808803 0.787255 -0.274224
C175  C     C_R   0.840850 0.911741 0.932407 0.612975
C176  C     C_R   0.748611 0.273076 0.136586 -0.231346
C177  C     C_R   0.225701 0.253718 0.360394 -0.228516
C178  C     C_R   0.701492 0.748747 0.708650 -0.272964
C179  C     C_R   0.308802 0.746776 0.287255 -0.274223
C180  C     C_R   0.773075 0.248609 0.636586 -0.231347
C181  C     C_R   0.774299 0.746282 0.360394 -0.228516
C182  C     C_R   0.298507 0.251252 0.708650 -0.272964
C183  C     C_R   0.691199 0.253225 0.287255 -0.274222
C184  C     C_R   0.226924 0.751390 0.636586 -0.231345
C185  C     C_R   0.134223 0.197899 0.330588 0.356087
C186  C     C_R   0.085612 0.840869 0.073526 0.567623
C187  C     C_R   0.761498 0.837029 0.737531 0.344646
C188  C     C_R   0.255199 0.839159 0.259377 0.356739
C189  C     C_R   0.863938 0.189037 0.662763 0.356695
C190  C     C_R   0.865776 0.802101 0.330588 0.356086
C191  C     C_R   0.238502 0.162970 0.737531 0.344647
C192  C     C_R   0.744802 0.160842 0.259377 0.356737
C193  C     C_R   0.136061 0.810961 0.662764 0.356696
C194  C     C_R   0.697898 0.634224 0.830588 0.356086
C195  C     C_R   0.337029 0.261497 0.237532 0.344647
C196  C     C_R   0.660840 0.244798 0.759376 0.356742
C197  C     C_R   0.930583 0.140381 0.893398 0.578838
C198  C     C_R   0.310961 0.636061 0.162764 0.356695
C199  C     C_R   0.302101 0.365776 0.830588 0.356087
C200  C     C_R   0.662970 0.738504 0.237532 0.344647
C201  C     C_R   0.339159 0.755200 0.759377 0.356738
C202  C     C_R   0.689040 0.363940 0.162764 0.356695
C203  C     C_R   0.776583 0.806662 0.789399 -0.219414
C204  C     C_R   0.160646 0.187831 0.275363 -0.230491
C205  C     C_R   0.839553 0.179119 0.718743 -0.228179
C206  C     C_R   0.235741 0.809212 0.208552 -0.220843
C207  C     C_R   0.223416 0.193337 0.789399 -0.219414
C208  C     C_R   0.857320 0.931949 0.104549 0.567334
C209  C     C_R   0.839354 0.812169 0.275363 -0.230491
C210  C     C_R   0.160447 0.820879 0.718743 -0.228181
C211  C     C_R   0.764261 0.190789 0.208552 -0.220842
C212  C     C_R   0.306663 0.276583 0.289399 -0.219414
C213  C     C_R   0.687831 0.660646 0.775363 -0.230491
C214  C     C_R   0.320879 0.660447 0.218744 -0.228181
C215  C     C_R   0.690787 0.264257 0.708552 -0.220843
C216  C     C_R   0.693337 0.723418 0.289399 -0.219414
C217  C     C_R   0.312169 0.339354 0.775362 -0.230492
C218  C     C_R   0.679122 0.339554 0.218744 -0.228184
C219  C     C_R   0.159150 0.088258 0.932407 0.612977
C220  C     C_R   0.309212 0.735741 0.708552 -0.220843
C221  C     C_R   0.746905 0.750936 0.804393 -0.083596
C222  C     C_R   0.220071 0.211820 0.262914 -0.085632
C223  C     C_R   0.780090 0.202098 0.732405 -0.086510
C224  C     C_R   0.262380 0.752243 0.192147 -0.080995
C225  C     C_R   0.253094 0.249064 0.804392 -0.083596
C226  C     C_R   0.779928 0.788180 0.262914 -0.085632
C227  C     C_R   0.219910 0.797901 0.732405 -0.086510
C228  C     C_R   0.737622 0.247758 0.192147 -0.080995
C229  C     C_R   0.250936 0.246905 0.304393 -0.083596
C230  C     C_R   0.914619 0.840007 0.930992 0.598034
C231  C     C_R   0.711820 0.720072 0.762914 -0.085631
C232  C     C_R   0.297901 0.719910 0.232405 -0.086510
C233  C     C_R   0.747757 0.237618 0.692146 -0.080994
C234  C     C_R   0.749064 0.753095 0.304393 -0.083596
C235  C     C_R   0.288179 0.279928 0.762914 -0.085632
C236  C     C_R   0.702101 0.280091 0.232405 -0.086508
C237  C     C_R   0.252243 0.762380 0.692147 -0.080995
C238  C     C_R   0.732093 0.665873 0.871983 0.552124
C239  C     C_R   0.310078 0.220323 0.199643 0.567260
C240  C     C_R   0.690942 0.205600 0.796950 0.566308
Cl1   Cl    Cl    0.772350 0.746269 0.977440 -0.562325
Cl2   Cl    Cl    0.671364 0.742010 0.592346 -0.532898
Cl3   Cl    Cl    0.328397 0.733989 0.404704 -0.531881
Cl4   Cl    Cl    0.755757 0.285529 0.521869 -0.556597
Cl5   Cl    Cl    0.753731 0.727649 0.477440 -0.562326
Cl6   Cl    Cl    0.328636 0.257989 0.592346 -0.532896
Cl7   Cl    Cl    0.671602 0.266011 0.404704 -0.531880
Cl8   Cl    Cl    0.244244 0.714473 0.521869 -0.556603
Cl9   Cl    Cl    0.061497 0.169282 0.352071 -0.536166
Cl10  Cl    Cl    0.787554 0.911651 0.719418 -0.620560
Cl11  Cl    Cl    0.236448 0.916184 0.276725 -0.618039
Cl12  Cl    Cl    0.242010 0.171364 0.092346 -0.532896
Cl13  Cl    Cl    0.933834 0.156456 0.638093 -0.526941
Cl14  Cl    Cl    0.938503 0.830718 0.352071 -0.536166
Cl15  Cl    Cl    0.212445 0.088349 0.719418 -0.620560
Cl16  Cl    Cl    0.763554 0.083817 0.276725 -0.618038
Cl17  Cl    Cl    0.066165 0.843541 0.638094 -0.526942
Cl18  Cl    Cl    0.669281 0.561497 0.852071 -0.536166
Cl19  Cl    Cl    0.411651 0.287553 0.219418 -0.620560
Cl20  Cl    Cl    0.583815 0.263547 0.776724 -0.618040
Cl21  Cl    Cl    0.343541 0.566165 0.138095 -0.526943
Cl22  Cl    Cl    0.330718 0.438503 0.852070 -0.536167
Cl23  Cl    Cl    0.766012 0.171603 0.904703 -0.531881
Cl24  Cl    Cl    0.588348 0.712448 0.219418 -0.620561
Cl25  Cl    Cl    0.416184 0.736449 0.776724 -0.618039
Cl26  Cl    Cl    0.656461 0.433837 0.138095 -0.526944
Cl27  Cl    Cl    0.214474 0.744244 0.021869 -0.556603
Cl28  Cl    Cl    0.227651 0.253731 0.977440 -0.562323
Cl29  Cl    Cl    0.757990 0.828637 0.092346 -0.532895
Cl30  Cl    Cl    0.233988 0.828397 0.904703 -0.531880
Cl31  Cl    Cl    0.785525 0.255756 0.021869 -0.556604
Cl32  Cl    Cl    0.246269 0.272350 0.477440 -0.562325
H1    H     H_    0.922158 0.247656 0.139882 0.087638
H2    H     H_    0.730235 0.864726 0.966417 0.202660
H3    H     H_    0.112237 0.054792 0.274996 0.153769
H4    H     H_    0.068919 0.044690 0.208056 0.069356
H5    H     H_    0.030117 0.057449 0.274600 0.184303
H6    H     H_    0.889094 0.045502 0.722824 0.162186
H7    H     H_    0.936978 0.039079 0.787420 0.073790
H8    H     H_    0.970908 0.049585 0.718158 0.188653
H9    H     H_    0.120147 0.827699 0.258666 0.156931
H10   H     H_    0.070105 0.838703 0.196275 0.126255
H11   H     H_    0.082553 0.899669 0.246400 0.182844
H12   H     H_    0.105758 0.176126 0.742521 0.164390
H13   H     H_    0.729411 0.897137 0.893185 0.061148
H14   H     H_    0.063786 0.182500 0.810326 0.135019
H15   H     H_    0.058652 0.114267 0.767557 0.195803
H16   H     H_    0.887763 0.945208 0.274996 0.153769
H17   H     H_    0.931082 0.955309 0.208056 0.069355
H18   H     H_    0.969883 0.942551 0.274600 0.184303
H19   H     H_    0.110907 0.954497 0.722823 0.162185
H20   H     H_    0.063023 0.960921 0.787419 0.073791
H21   H     H_    0.029093 0.950414 0.718158 0.188653
H22   H     H_    0.879855 0.172301 0.258666 0.156932
H23   H     H_    0.929896 0.161299 0.196274 0.126254
H24   H     H_    0.693737 0.936144 0.951890 0.147735
H25   H     H_    0.917449 0.100332 0.246399 0.182845
H26   H     H_    0.317501 0.436213 0.310326 0.135021
H27   H     H_    0.323874 0.394240 0.242521 0.164390
H28   H     H_    0.385734 0.441346 0.267556 0.195801
H29   H     H_    0.544691 0.568919 0.708055 0.069355
H30   H     H_    0.554792 0.612237 0.774996 0.153769
H31   H     H_    0.557449 0.530117 0.774599 0.184303
H32   H     H_    0.460921 0.563024 0.287420 0.073790
H33   H     H_    0.454497 0.610907 0.222823 0.162185
H34   H     H_    0.450414 0.529093 0.218158 0.188652
H35   H     H_    0.077842 0.752346 0.139884 0.087640
H36   H     H_    0.600328 0.417441 0.746403 0.182845
H37   H     H_    0.661292 0.429894 0.696276 0.126255
H38   H     H_    0.672300 0.379851 0.758666 0.156928
H39   H     H_    0.614266 0.558654 0.267556 0.195801
H40   H     H_    0.682499 0.563788 0.310325 0.135024
H41   H     H_    0.676124 0.605761 0.242520 0.164390
H42   H     H_    0.455309 0.431081 0.708055 0.069355
H43   H     H_    0.445207 0.387763 0.774996 0.153768
H44   H     H_    0.442550 0.469883 0.774599 0.184303
H45   H     H_    0.539079 0.436976 0.287419 0.073792
H46   H     H_    0.110748 0.710738 0.078791 0.137830
H47   H     H_    0.545504 0.389092 0.222822 0.162183
H48   H     H_    0.549586 0.470907 0.218157 0.188653
H49   H     H_    0.338704 0.570105 0.696275 0.126254
H50   H     H_    0.327700 0.620147 0.758666 0.156931
H51   H     H_    0.399670 0.582555 0.746401 0.182844
H52   H     H_    0.793946 0.562241 0.889160 0.143744
H53   H     H_    0.816845 0.587721 0.959558 0.160851
H54   H     H_    0.838376 0.632157 0.897642 0.036088
H55   H     H_    0.334243 0.107218 0.176846 0.100154
H56   H     H_    0.401123 0.146336 0.206879 0.091444
H57   H     H_    0.032224 0.705282 0.093967 0.144152
H58   H     H_    0.398670 0.125612 0.131954 0.166333
H59   H     H_    0.678844 0.091040 0.823783 0.106935
H60   H     H_    0.609012 0.122096 0.791348 0.094790
H61   H     H_    0.611982 0.104558 0.866978 0.164542
H62   H     H_    0.170062 0.626041 0.101080 0.031090
H63   H     H_    0.220325 0.559629 0.103799 0.139500
H64   H     H_    0.191519 0.586966 0.036034 0.163235
H65   H     H_    0.161623 0.367843 0.897643 0.036090
H66   H     H_    0.206053 0.437759 0.889160 0.143745
H67   H     H_    0.183154 0.412279 0.959558 0.160851
H68   H     H_    0.915701 0.242455 0.947787 0.200643
H69   H     H_    0.665757 0.892783 0.176846 0.100155
H70   H     H_    0.598878 0.853665 0.206880 0.091444
H71   H     H_    0.601329 0.874389 0.131955 0.166333
H72   H     H_    0.321157 0.908958 0.823782 0.106934
H73   H     H_    0.390989 0.877901 0.791348 0.094790
H74   H     H_    0.388019 0.895440 0.866978 0.164542
H75   H     H_    0.829940 0.373959 0.101082 0.031088
H76   H     H_    0.779679 0.440372 0.103800 0.139503
H77   H     H_    0.808485 0.413034 0.036035 0.163233
H78   H     H_    0.062241 0.293947 0.389160 0.143747
H79   H     H_    0.877922 0.244983 0.877643 0.140955
H80   H     H_    0.132157 0.338377 0.397642 0.036091
H81   H     H_    0.087721 0.316846 0.459558 0.160851
H82   H     H_    0.646337 0.901123 0.706879 0.091444
H83   H     H_    0.607219 0.834244 0.676845 0.100154
H84   H     H_    0.625613 0.898671 0.631954 0.166333
H85   H     H_    0.377899 0.890990 0.291349 0.094789
H86   H     H_    0.408957 0.821158 0.323782 0.106933
H87   H     H_    0.395438 0.888019 0.366978 0.164541
H88   H     H_    0.940371 0.279672 0.603798 0.139496
H89   H     H_    0.873959 0.329936 0.601078 0.031091
H90   H     H_    0.945587 0.287725 0.889337 0.109289
H91   H     H_    0.913035 0.308478 0.536032 0.163235
H92   H     H_    0.937759 0.706053 0.389160 0.143746
H93   H     H_    0.867843 0.661623 0.397641 0.036090
H94   H     H_    0.912279 0.683153 0.459557 0.160851
H95   H     H_    0.353661 0.098876 0.706879 0.091444
H96   H     H_    0.392780 0.165755 0.676845 0.100154
H97   H     H_    0.374385 0.101328 0.631954 0.166333
H98   H     H_    0.622103 0.109010 0.291348 0.094790
H99   H     H_    0.591044 0.178842 0.323782 0.106932
H100  H     H_    0.604563 0.111981 0.366978 0.164542
H101  H     H_    0.834993 0.000792 0.186356 0.140416
H102  H     H_    0.059629 0.720324 0.603798 0.139499
H103  H     H_    0.126041 0.670062 0.601080 0.031089
H104  H     H_    0.086966 0.691519 0.536034 0.163234
H105  H     H_    0.889252 0.289262 0.078788 0.137831
H106  H     H_    0.772944 0.945410 0.194766 0.108433
H107  H     H_    0.758062 0.019398 0.165945 0.195555
H108  H     H_    0.269765 0.135274 0.966416 0.202660
H109  H     H_    0.270589 0.102863 0.893185 0.061148
H110  H     H_    0.306263 0.063855 0.951889 0.147735
H111  H     H_    0.919392 0.738793 0.879495 0.108715
H112  H     H_    0.884721 0.714130 0.947938 0.164765
H113  H     H_    0.962125 0.699215 0.934021 0.139757
H114  H     H_    0.123102 0.229777 0.054599 0.192600
H115  H     H_    0.121901 0.259524 0.128315 0.120743
H116  H     H_    0.967776 0.294719 0.093965 0.144151
H117  H     H_    0.070117 0.287971 0.075002 0.125056
H118  H     H_    0.156772 0.009226 0.813971 0.160520
H119  H     H_    0.216707 0.953091 0.798708 0.114419
H120  H     H_    0.235515 0.024995 0.829727 0.188590
H121  H     H_    0.735926 0.137431 0.029516 0.200070
H122  H     H_    0.724501 0.104745 0.102090 0.073293
H123  H     H_    0.694336 0.068048 0.039554 0.154516
H124  H     H_    0.080608 0.261208 0.879496 0.108713
H125  H     H_    0.115279 0.285869 0.947939 0.164764
H126  H     H_    0.037876 0.300785 0.934023 0.139758
H127  H     H_    0.084285 0.757542 0.947790 0.200648
H128  H     H_    0.876897 0.770223 0.054599 0.192601
H129  H     H_    0.878099 0.740476 0.128315 0.120743
H130  H     H_    0.929883 0.712029 0.075002 0.125056
H131  H     H_    0.843228 0.990774 0.813971 0.160519
H132  H     H_    0.783293 0.046908 0.798708 0.114419
H133  H     H_    0.764485 0.975004 0.829727 0.188591
H134  H     H_    0.264074 0.862569 0.029516 0.200070
H135  H     H_    0.275500 0.895255 0.102089 0.073293
H136  H     H_    0.305664 0.931952 0.039554 0.154515
H137  H     H_    0.395255 0.775500 0.602089 0.073294
H138  H     H_    0.122080 0.755020 0.877654 0.140970
H139  H     H_    0.362569 0.764074 0.529516 0.200070
H140  H     H_    0.431952 0.805664 0.539553 0.154516
H141  H     H_    0.546910 0.283291 0.298709 0.114418
H142  H     H_    0.490775 0.343227 0.313971 0.160519
H143  H     H_    0.475006 0.264484 0.329727 0.188590
H144  H     H_    0.759524 0.621902 0.628313 0.120744
H145  H     H_    0.729777 0.623103 0.554598 0.192604
H146  H     H_    0.787971 0.570117 0.575000 0.125059
H147  H     H_    0.214130 0.384721 0.447937 0.164764
H148  H     H_    0.238793 0.419392 0.379495 0.108714
H149  H     H_    0.054414 0.712275 0.889331 0.109291
H150  H     H_    0.199215 0.462125 0.434021 0.139756
H151  H     H_    0.604746 0.224499 0.602088 0.073295
H152  H     H_    0.637431 0.235927 0.529515 0.200070
H153  H     H_    0.568048 0.194336 0.539552 0.154517
H154  H     H_    0.453090 0.716708 0.298708 0.114418
H155  H     H_    0.509225 0.656773 0.313971 0.160518
H156  H     H_    0.524995 0.735516 0.329727 0.188591
H157  H     H_    0.240476 0.378099 0.628314 0.120743
H158  H     H_    0.270222 0.376897 0.554599 0.192602
H159  H     H_    0.212029 0.429883 0.575001 0.125057
H160  H     H_    0.165008 0.999209 0.186356 0.140415
H161  H     H_    0.785871 0.615277 0.447937 0.164770
H162  H     H_    0.761206 0.580608 0.379494 0.108719
H163  H     H_    0.800784 0.537874 0.434019 0.139755
H164  H     H_    0.397137 0.229411 0.393185 0.061148
H165  H     H_    0.364726 0.230235 0.466416 0.202659
H166  H     H_    0.436144 0.193737 0.451890 0.147735
H167  H     H_    0.554591 0.727058 0.694765 0.108432
H168  H     H_    0.499210 0.665008 0.686356 0.140414
H169  H     H_    0.480603 0.741938 0.665945 0.195555
H170  H     H_    0.744973 0.377918 0.377670 0.140997
H171  H     H_    0.227057 0.054590 0.194766 0.108432
H172  H     H_    0.742468 0.415741 0.447791 0.200656
H173  H     H_    0.787723 0.445588 0.389314 0.109294
H174  H     H_    0.210738 0.610748 0.578793 0.137828
H175  H     H_    0.252346 0.577842 0.639884 0.087639
H176  H     H_    0.205282 0.532224 0.593968 0.144152
H177  H     H_    0.602863 0.770590 0.393186 0.061149
H178  H     H_    0.635274 0.769764 0.466417 0.202660
H179  H     H_    0.563856 0.806263 0.451891 0.147736
H180  H     H_    0.445409 0.272941 0.694765 0.108432
H181  H     H_    0.500789 0.334991 0.686356 0.140412
H182  H     H_    0.241938 0.980603 0.165945 0.195555
H183  H     H_    0.519397 0.258061 0.665944 0.195557
H184  H     H_    0.255021 0.622081 0.377655 0.140972
H185  H     H_    0.257542 0.584285 0.447790 0.200649
H186  H     H_    0.212275 0.554414 0.389331 0.109291
H187  H     H_    0.789261 0.389252 0.578798 0.137826
H188  H     H_    0.747651 0.422159 0.639888 0.087640
H189  H     H_    0.794717 0.467777 0.593972 0.144153
H190  H     H_    0.936214 0.817500 0.810326 0.135021
H191  H     H_    0.941347 0.885733 0.767556 0.195803
H192  H     H_    0.894241 0.823873 0.742521 0.164389
N1    N     N_R   0.940200 0.105310 0.059970 -0.149702
N2    N     N_R   0.059800 0.105310 0.059970 -0.145169
N3    N     N_R   0.105310 0.940200 0.940030 -0.128040
N4    N     N_R   0.894690 0.059800 0.059970 -0.149342
N5    N     N_R   0.059800 0.105310 0.940030 -0.146705
N6    N     N_R   0.940200 0.894690 0.059970 -0.145169
N7    N     N_R   0.894690 0.059800 0.940030 -0.128040
N8    N     N_R   0.105310 0.940200 0.059970 -0.149342
N9    N     N_R   0.440200 0.605310 0.559970 -0.149342
N10   N     N_R   0.559800 0.394690 0.440030 -0.128040
N11   N     N_R   0.605310 0.559800 0.559970 -0.145170
N12   N     N_R   0.059800 0.894690 0.940030 -0.142489
N13   N     N_R   0.394690 0.440200 0.440030 -0.146705
N14   N     N_R   0.559800 0.394690 0.559970 -0.149343
N15   N     N_R   0.440200 0.605310 0.440030 -0.128040
N16   N     N_R   0.394690 0.440200 0.559970 -0.145170
N17   N     N_R   0.605310 0.559800 0.440030 -0.146705
N18   N     N_R   0.440200 0.394690 0.440030 -0.147287
N19   N     N_R   0.559800 0.605310 0.559970 -0.135115
N20   N     N_R   0.605310 0.440200 0.440030 -0.142490
N21   N     N_R   0.394690 0.559800 0.559970 -0.149702
N22   N     N_R   0.559800 0.605310 0.440030 -0.147287
N23   N     N_R   0.105310 0.059800 0.059970 -0.135115
N24   N     N_R   0.440200 0.394690 0.559970 -0.135116
N25   N     N_R   0.394690 0.559800 0.440030 -0.142489
N26   N     N_R   0.605310 0.440200 0.559970 -0.149704
N27   N     N_R   0.894690 0.940200 0.940030 -0.147287
N28   N     N_R   0.059800 0.894690 0.059970 -0.149703
N29   N     N_R   0.940200 0.105310 0.940030 -0.142488
N30   N     N_R   0.894690 0.940200 0.059970 -0.135115
N31   N     N_R   0.105310 0.059800 0.940030 -0.147287
N32   N     N_R   0.940200 0.894690 0.940030 -0.146705
Ni1   Ni    Ni4+2 0.000000 0.104370 0.000000 0.260224
Ni2   Ni    Ni4+2 0.000000 0.895630 0.000000 0.260221
Ni3   Ni    Ni4+2 0.104370 0.000000 0.000000 0.298053
Ni4   Ni    Ni4+2 0.895630 0.000000 0.000000 0.298053
Ni5   Ni    Ni4+2 0.500000 0.604370 0.500000 0.298054
Ni6   Ni    Ni4+2 0.500000 0.395630 0.500000 0.298054
Ni7   Ni    Ni4+2 0.604370 0.500000 0.500000 0.260218
Ni8   Ni    Ni4+2 0.395630 0.500000 0.500000 0.260222
O1    O     O_3   0.941263 0.213712 0.055825 -0.570097
O2    O     O_3   0.048736 0.202455 0.107528 -0.604593
O3    O     O_3   0.195190 0.964658 0.885896 -0.559825
O4    O     O_3   0.787261 0.059539 0.048916 -0.558353
O5    O     O_3   0.057302 0.211484 0.954639 -0.575778
O6    O     O_3   0.951264 0.797545 0.107528 -0.604592
O7    O     O_3   0.804810 0.035342 0.885896 -0.559825
O8    O     O_3   0.212739 0.940461 0.048916 -0.558353
O9    O     O_3   0.440462 0.712739 0.548916 -0.558353
O10   O     O_3   0.535342 0.304809 0.385897 -0.559824
O11   O     O_3   0.702455 0.548736 0.607528 -0.604593
O12   O     O_3   0.039760 0.805162 0.881648 -0.620453
O13   O     O_3   0.288515 0.442698 0.454639 -0.575782
O14   O     O_3   0.559538 0.287261 0.548917 -0.558354
O15   O     O_3   0.464658 0.695191 0.385897 -0.559824
O16   O     O_3   0.297545 0.451264 0.607527 -0.604592
O17   O     O_3   0.711485 0.557302 0.454639 -0.575790
O18   O     O_3   0.439454 0.287541 0.453163 -0.555284
O19   O     O_3   0.539114 0.698885 0.609928 -0.551150
O20   O     O_3   0.694835 0.460242 0.381645 -0.620453
O21   O     O_3   0.286287 0.558737 0.555827 -0.570100
O22   O     O_3   0.560545 0.712459 0.453163 -0.555284
O23   O     O_3   0.198885 0.039114 0.109929 -0.551150
O24   O     O_3   0.460885 0.301114 0.609928 -0.551148
O25   O     O_3   0.305162 0.539760 0.381648 -0.620453
O26   O     O_3   0.713713 0.441262 0.555829 -0.570104
O27   O     O_3   0.860350 0.876146 0.811609 -0.650285
O28   O     O_3   0.070308 0.134130 0.239442 -0.582936
O29   O     O_3   0.931782 0.127002 0.752853 -0.589084
O30   O     O_3   0.154491 0.883071 0.191421 -0.644930
O31   O     O_3   0.139649 0.123854 0.811609 -0.650284
O32   O     O_3   0.929692 0.865869 0.239442 -0.582936
O33   O     O_3   0.068218 0.872997 0.752854 -0.589082
O34   O     O_3   0.787541 0.939454 0.953163 -0.555284
O35   O     O_3   0.845511 0.116929 0.191420 -0.644930
O36   O     O_3   0.376146 0.360350 0.311609 -0.650284
O37   O     O_3   0.634131 0.570309 0.739442 -0.582935
O38   O     O_3   0.372998 0.568219 0.252854 -0.589082
O39   O     O_3   0.616927 0.345506 0.691421 -0.644929
O40   O     O_3   0.623853 0.639651 0.311609 -0.650285
O41   O     O_3   0.365869 0.429691 0.739441 -0.582935
O42   O     O_3   0.627003 0.431782 0.252854 -0.589079
O43   O     O_3   0.383072 0.654491 0.691421 -0.644930
O44   O     O_3   0.745817 0.636651 0.923471 -0.511041
O45   O     O_3   0.058737 0.786287 0.055826 -0.570101
O46   O     O_3   0.344646 0.199464 0.153516 -0.511724
O47   O     O_3   0.658717 0.182548 0.843668 -0.515722
O48   O     O_3   0.260337 0.639554 0.071216 -0.513551
O49   O     O_3   0.254183 0.363349 0.923471 -0.511040
O50   O     O_3   0.655354 0.800537 0.153517 -0.511724
O51   O     O_3   0.341283 0.817450 0.843668 -0.515722
O52   O     O_3   0.739665 0.360447 0.071217 -0.513551
O53   O     O_3   0.136651 0.245818 0.423471 -0.511040
O54   O     O_3   0.699465 0.844646 0.653516 -0.511724
O55   O     O_3   0.317449 0.841283 0.343669 -0.515721
O56   O     O_3   0.960239 0.194838 0.881649 -0.620454
O57   O     O_3   0.860444 0.239661 0.571215 -0.513552
O58   O     O_3   0.863350 0.754182 0.423471 -0.511040
O59   O     O_3   0.300534 0.155353 0.653516 -0.511724
O60   O     O_3   0.682553 0.158717 0.343668 -0.515722
O61   O     O_3   0.139554 0.760337 0.571216 -0.513551
O62   O     O_3   0.801115 0.960886 0.109929 -0.551150
O63   O     O_3   0.212459 0.060546 0.953164 -0.555284
O64   O     O_3   0.942698 0.788515 0.954639 -0.575782

loop_
_geom_bond_atom_site_label_1
_geom_bond_atom_site_label_2
_ccdc_geom_bond_type
C87   H116  S    
C23   C58   S    
C51   O43   S    
C132  H27   S    
C219  O63   S    
C146  N16   A    
C133  H30   S    
C184  C237  A    
C215  C233  A    
C112  N12   A    
N15   Ni5   S    
C126  H6    S    
C43   C61   A    
C149  H77   S    
C13   C18   A    
N10   Ni6   S    
C105  H139  S    
C155  O59   S    
C144  H62   S    
C134  H33   S    
C158  O61   S    
C20   C175  A    
C104  H134  S    
C100  O5    S    
N30   Ni4   S    
C115  H166  S    
C27   C90   A    
N27   N32   A    
N28   Ni2   S    
C87   O1    S    
C36   C53   A    
C223  C233  A    
C89   O23   S    
N16   Ni8   S    
C4    C199  A    
C38   C55   A    
C222  C229  A    
C192  Cl16  S    
C149  H76   S    
C25   C56   S    
C143  H59   S    
N18   Ni6   S    
C48   C65   A    
C106  H141  S    
C158  H102  S    
C142  H55   S    
C183  C236  A    
C197  N29   A    
C114  H161  S    
C153  H89   S    
C23   C46   A    
C118  H174  S    
C201  Cl25  S    
C116  H168  S    
C14   C182  A    
C123  H192  S    
C120  H181  S    
C5    C200  A    
C139  H47   S    
C68   N8    A    
C67   C85   A    
C117  O20   S    
C40   C58   A    
C103  H133  S    
C43   O36   S    
C17   C24   A    
C57   N7    A    
C143  H60   S    
C128  H15   S    
C88   H149  S    
C47   C64   A    
C21   C55   S    
C196  C215  A    
C99   H121  S    
C6    C174  A    
C152  O55   S    
C40   C209  A    
C205  C223  A    
C49   C217  A    
C125  O28   S    
C174  C227  A    
C162  O21   S    
N3    Ni3   S    
C35   N5    A    
C172  C225  A    
C13   N3    A    
C230  N32   A    
C12   C181  A    
C116  O19   S    
C42   O35   S    
C24   N4    A    
C155  H95   S    
C44   O37   S    
C156  O60   S    
N22   Ni5   S    
C158  H104  S    
C164  N23   A    
C111  H159  S    
C92   H46   S    
C97   H114  S    
C145  H66   S    
C2    O2    S    
N8    N28   A    
C145  O49   S    
C91   H13   S    
C209  C226  A    
C161  O20   S    
N1    Ni1   S    
C53   C71   A    
C110  H154  S    
C96   H112  S    
C91   O34   S    
C125  H3    S    
C159  N18   A    
C122  H188  S    
C29   C113  A    
C72   Cl23  S    
C109  H151  S    
C2    C19   A    
C195  Cl19  S    
C107  H145  S    
N9    Ni5   S    
C144  H64   S    
C165  N24   A    
C12   O58   S    
C16   C184  A    
C146  O16   S    
C92   H35   S    
C50   O42   S    
C75   Cl29  S    
C89   H182  S    
C88   H127  S    
C133  O37   S    
C115  H164  S    
C161  N20   A    
C93   H68   S    
C84   C182  A    
N4    Ni4   S    
N14   Ni6   S    
C122  H189  S    
N12   Ni2   S    
C155  H97   S    
C167  O26   S    
N5    Ni1   S    
C50   C218  A    
C103  H132  S    
C154  O58   S    
C108  H147  S    
C2    N2    A    
C185  Cl9   S    
C153  H91   S    
C87   H105  S    
C26   C69   S    
C189  Cl13  S    
C51   C69   A    
C137  O40   S    
C150  H80   S    
C123  H190  S    
C72   C170  A    
C139  H45   S    
C57   O7    S    
C5    O50   S    
C121  H184  S    
C76   Cl30  S    
C78   C177  A    
C89   H171  S    
C148  H73   S    
C95   H109  S    
C22   C197  A    
C168  C221  A    
C217  C235  A    
C194  C213  A    
C21   C186  A    
C22   C54   S    
N20   Ni7   S    
N3    N12   A    
C110  O15   S    
C141  H53   S    
C11   O57   S    
C10   C179  A    
C185  C204  A    
C62   C80   A    
C33   C163  A    
C164  O23   S    
C30   C167  A    
N16   N24   A    
C118  H175  S    
C4    O49   S    
C91   H24   S    
C28   C160  A    
C83   C181  A    
C84   Cl6   S    
C8    O53   S    
C102  O6    S    
N9    N21   A    
C111  H157  S    
N21   Ni8   S    
C181  C234  A    
C169  C222  A    
C206  C224  A    
C99   O4    S    
C141  H52   S    
C130  H19   S    
C155  H96   S    
C10   C188  A    
N2    N23   A    
C97   O2    S    
C16   C193  A    
C97   H117  S    
C50   C67   A    
C61   C78   A    
C213  C231  A    
C119  H178  S    
C100  H126  S    
C102  H130  S    
C143  O47   S    
C142  H58   S    
N10   N20   A    
C134  O38   S    
C176  C228  A    
C29   C61   S    
C49   C66   A    
C88   O12   S    
C131  H23   S    
C31   C63   S    
C40   O32   S    
C6    C201  A    
C114  H163  S    
C168  C238  A    
C46   O6    S    
C47   C215  A    
C95   H108  S    
C167  N26   A    
N23   Ni3   S    
C135  O15   S    
C202  Cl26  S    
C136  H36   S    
C49   O41   S    
C14   O59   S    
C133  H29   S    
C7    C176  A    
C83   Cl5   S    
N32   Ni2   S    
C151  H84   S    
C137  H41   S    
C239  O46   S    
C191  C207  A    
C194  C238  A    
C150  H78   S    
C120  H180  S    
C41   C210  A    
C104  H135  S    
C121  H186  S    
C77   C176  A    
C211  C228  A    
C21   C68   A    
C94   H101  S    
C153  O57   S    
C128  H12   S    
C109  H153  S    
C98   H120  S    
C150  O53   S    
C107  O11   S    
C154  H92   S    
C186  O45   S    
C4    C172  A    
C5    C173  A    
C38   O30   S    
C91   H2    S    
C46   N6    A    
C120  O24   S    
C129  H18   S    
C198  Cl21  S    
N25   Ni8   S    
C156  H99   S    
C101  O11   S    
C130  O33   S    
C126  H7    S    
C1    C17   A    
C226  C234  A    
C6    O51   S    
C118  O21   S    
C230  O64   S    
C110  H155  S    
C202  C218  A    
C166  N25   A    
C76   C174  A    
C195  C212  A    
C137  H40   S    
C27   C161  A    
C212  C229  A    
C154  H93   S    
C198  C214  A    
C193  C210  A    
C115  H165  S    
C123  O27   S    
C126  O29   S    
C27   C67   S    
C17   C60   S    
C55   C73   A    
C18   C59   S    
C149  H75   S    
C10   O55   S    
C85   Cl7   S    
C238  O44   S    
C87   H1    S    
C106  H142  S    
C142  H56   S    
C59   C76   A    
C45   O38   S    
C28   C62   S    
C136  H37   S    
N17   Ni7   S    
C153  H88   S    
N17   N22   A    
C30   C64   S    
C216  C234  A    
C140  H49   S    
C101  N11   A    
C199  C217  A    
C147  O50   S    
C124  O14   S    
C152  H87   S    
C214  C232  A    
C199  Cl22  S    
C138  H43   S    
C123  H191  S    
C113  O13   S    
C102  H128  S    
C188  C206  A    
C143  H61   S    
C148  H72   S    
C127  H10   S    
C132  O36   S    
C18   C112  A    
C70   Cl1   S    
C23   C208  A    
C32   C146  A    
C187  C203  A    
C151  H82   S    
C141  O44   S    
C36   O28   S    
C68   O8    S    
C16   O61   S    
N15   N25   A    
C138  H42   S    
C28   C101  A    
C92   H57   S    
C189  C205  A    
C15   C183  A    
C193  Cl17  S    
C71   C169  A    
C78   Cl32  S    
C149  O52   S    
C157  O17   S    
C34   O27   S    
C98   H118  S    
C104  O8    S    
C147  H70   S    
N8    Ni3   S    
C85   C183  A    
C32   C165  A    
C112  O12   S    
C140  O43   S    
C86   C184  A    
C133  H31   S    
C37   C205  A    
C33   C157  A    
C119  H179  S    
C127  O30   S    
C56   C74   A    
C158  H103  S    
C44   C213  A    
C108  O13   S    
C105  H140  S    
C20   C230  A    
C81   C179  A    
C160  O19   S    
C31   C135  A    
C106  O10   S    
N5    N31   A    
C109  O14   S    
C136  O39   S    
C26   C162  A    
C139  O42   S    
C191  Cl15  S    
C131  H22   S    
C37   O29   S    
C11   C189  A    
C80   C178  A    
C188  Cl11  S    
C165  O24   S    
C70   C168  A    
N26   Ni7   S    
C95   O63   S    
C148  O51   S    
C131  O35   S    
C45   C214  A    
C103  H131  S    
C114  H162  S    
C7    O52   S    
C159  O18   S    
C43   C212  A    
C108  H148  S    
C132  H26   S    
C182  C235  A    
C25   C35   A    
C96   O64   S    
C180  C233  A    
C138  O41   S    
C117  H170  S    
C122  O26   S    
C98   O3    S    
C51   C220  A    
C140  H51   S    
C1    O1    S    
C220  C237  A    
C25   C219  A    
C90   N10   A    
C116  H167  S    
C71   Cl12  S    
C120  H183  S    
C12   C190  A    
C129  O32   S    
C32   C66   S    
C139  H48   S    
C219  N31   A    
C9    C187  A    
N14   N26   A    
C86   Cl8   S    
C204  C222  A    
C148  H74   S    
C201  C220  A    
C99   H122  S    
C175  O34   S    
C208  O62   S    
C34   C52   A    
C26   C79   A    
N29   Ni1   S    
N6    Ni2   S    
C81   Cl3   S    
C218  C236  A    
C178  C231  A    
C93   H79   S    
C132  H28   S    
C94   H107  S    
C125  H5    S    
C80   Cl2   S    
C163  O22   S    
C8    C177  A    
N24   Ni6   S    
C200  Cl24  S    
C1    N1    A    
C170  C223  A    
C97   H115  S    
C169  C239  A    
C130  H20   S    
C190  Cl14  S    
C131  H25   S    
N31   Ni3   S    
C11   C180  A    
C179  C232  A    
C240  O47   S    
C134  H34   S    
C9    C178  A    
C96   H111  S    
C119  H177  S    
C125  H4    S    
C227  C237  A    
C122  H187  S    
C15   C192  A    
C48   C216  A    
C166  O25   S    
C109  H152  S    
C93   H90   S    
C75   C173  A    
C210  C227  A    
C107  H146  S    
C144  H63   S    
C99   H123  S    
C22   C57   A    
C171  C224  A    
C33   C65   S    
C29   C159  A    
C151  O54   S    
C156  H98   S    
C130  H21   S    
C113  N13   A    
N7    Ni4   S    
C117  H173  S    
C63   C81   A    
N6    N30   A    
C190  C209  A    
C124  N14   A    
C7    C202  A    
C152  H86   S    
C173  C226  A    
C224  C232  A    
C177  C229  A    
C65   C83   A    
C90   O10   S    
C203  C221  A    
C104  H136  S    
C127  H11   S    
C196  Cl20  S    
C119  O22   S    
C108  H150  S    
C105  O9    S    
C94   O62   S    
C200  C216  A    
C74   Cl28  S    
C207  C225  A    
C152  H85   S    
C117  H172  S    
C39   C207  A    
C195  C239  A    
C151  H83   S    
N7    N29   A    
C197  O56   S    
C142  O46   S    
C135  N15   A    
C116  H169  S    
C175  N27   A    
C74   C172  A    
C160  N19   A    
C19   C53   S    
C129  H17   S    
C9    O54   S    
C48   O40   S    
C95   H110  S    
C134  H32   S    
C144  O48   S    
C58   C75   A    
C107  H144  S    
C147  H71   S    
C121  O25   S    
C111  O16   S    
C162  N21   A    
C141  H54   S    
C94   H106  S    
C145  H65   S    
C225  C235  A    
C39   O31   S    
C41   C59   A    
C42   C60   A    
C35   O5    S    
C156  H100  S    
C89   H160  S    
C44   C62   A    
C126  H8    S    
N13   N18   A    
C45   C63   A    
C140  H50   S    
C96   H113  S    
C194  Cl18  S    
C110  H156  S    
C105  H137  S    
C192  C211  A    
C137  H39   S    
N19   Ni5   S    
C111  H158  S    
C103  O7    S    
C154  H94   S    
C93   O56   S    
C31   C166  A    
C100  H124  S    
C34   C203  A    
C163  N22   A    
C221  C231  A    
C82   Cl4   S    
C150  H81   S    
C15   O60   S    
C64   C82   A    
C14   C191  A    
C30   C124  A    
C3    O48   S    
C41   O33   S    
C100  H125  S    
C102  H129  S    
N11   Ni7   S    
C79   N9    A    
C73   C171  A    
C208  N30   A    
C106  H143  S    
C39   C56   A    
C196  C240  A    
C136  H38   S    
C170  C240  A    
C38   C206  A    
C118  H176  S    
C129  H16   S    
N2    Ni1   S    
C145  H67   S    
C73   Cl27  S    
C77   Cl31  S    
C138  H44   S    
N13   Ni8   S    
C8    C185  A    
C37   C54   A    
C128  O31   S    
N1    N4    A    
C115  O18   S    
C157  N17   A    
C60   C77   A    
C127  H9    S    
C187  Cl10  S    
C128  H14   S    
C20   C52   S    
C3    C171  A    
C3    C198  A    
C98   H119  S    
C186  N28   A    
C19   C164  A    
C121  H185  S    
C13   O3    S    
N27   Ni4   S    
C228  C236  A    
C52   C70   A    
C42   C211  A    
C66   C84   A    
C79   O9    S    
C24   O4    S    
C54   C72   A    
C114  O17   S    
C82   C180  A    
C47   O39   S    
C36   C204  A    
N11   N19   A    
C92   O45   S    
C69   C86   A    
C147  H69   S    
C88   H138  S    
