data_mof_unit_31618.cif
_audit_creation_date              2012-12-10T20:39:11-0500
_audit_creation_method            fapswitch 2.2
_symmetry_space_group_name_H-M    P1
_symmetry_Int_Tables_number       1
_space_group_crystal_system       triclinic
_cell_length_a                    19.037676
_cell_length_b                    10.697449
_cell_length_c                    9.880924
_cell_angle_alpha                 89.429733
_cell_angle_beta                  90.396426
_cell_angle_gamma                 91.309031
_cell_volume                      2011.62543134

loop_
_atom_site_label
_atom_site_type_symbol
_atom_type_description
_atom_site_fract_x
_atom_site_fract_y
_atom_site_fract_z
_atom_type_partial_charge
C1    C     C_R   0.502621 0.259813 0.500375 0.880348
C2    C     C_R   0.850759 0.408047 0.475815 -0.019180
C3    C     C_R   0.523331 0.062375 0.620653 0.140707
C4    C     C_R   0.365085 0.499994 0.499765 0.909086
C5    C     C_R   0.515377 0.128719 0.499663 -0.104985
C6    C     C_R   0.522675 0.066605 0.375989 -0.224740
C7    C     C_R   0.523054 0.937223 0.375057 -0.226378
C8    C     C_R   0.516185 0.871412 0.497829 -0.102796
C9    C     C_R   0.523529 0.934566 0.619497 0.124538
C10   C     C_3   0.481031 0.922240 0.745292 -0.481839
C11   C     C_3   0.481040 0.063343 0.747277 -0.503147
C12   C     C_R   0.288361 0.489935 0.498279 -0.239790
C13   C     C_R   0.442712 0.456652 0.070757 0.207765
C14   C     C_R   0.551362 0.560306 0.074153 -0.154051
C15   C     C_R   0.551358 0.563635 0.930422 0.126166
C16   C     C_R   0.503042 0.739994 0.499256 0.863965
C17   C     C_R   0.442563 0.457135 0.928730 0.222633
C18   C     C_3   0.408890 0.330798 0.923816 -0.489008
C19   C     C_3   0.409662 0.329362 0.077633 -0.505989
C20   C     C_R   0.634656 0.496429 0.499906 0.872473
C21   C     C_R   0.248032 0.512485 0.614993 0.375872
C22   C     C_R   0.175462 0.486346 0.612557 0.419897
C23   C     C_R   0.927174 0.391569 0.474958 0.290554
C24   C     C_R   0.143953 0.436447 0.494231 -0.099478
C25   C     C_R   0.183985 0.421410 0.377770 -0.225964
C26   C     C_R   0.255191 0.448557 0.379483 -0.257811
C27   C     C_3   0.290589 0.681194 0.731784 0.138811
C28   C     C_3   0.320611 0.723268 0.867377 -0.812043
C29   C     C_3   0.606126 0.649405 0.866042 -0.370610
C30   C     C_3   0.681421 0.600303 0.880311 -0.352133
C31   C     C_3   0.726419 0.676604 0.979724 -0.872297
C32   C     C_3   0.100317 0.619310 0.715946 0.112931
C33   C     C_3   0.090475 0.673734 0.855979 -0.780879
C34   C     C_R   0.068807 0.407981 0.485875 0.300313
C35   C     C_3   0.827173 0.392387 0.145428 0.077151
C36   C     C_3   0.875891 0.398712 0.023969 -0.777221
C37   C     C_R   0.813466 0.384412 0.596091 -0.231698
C38   C     C_R   0.743210 0.415220 0.605556 -0.224645
C39   C     C_R   0.709650 0.473023 0.496213 -0.089384
C40   C     C_R   0.745903 0.494226 0.375136 -0.292593
C41   C     C_R   0.815356 0.458629 0.362154 0.498639
H1    H     H_    0.523028 0.889800 0.278681 0.170111
H2    H     H_    0.445250 0.258695 0.122068 0.209540
H3    H     H_    0.160341 0.385981 0.285297 0.186574
H4    H     H_    0.284706 0.432199 0.288408 0.187773
H5    H     H_    0.838698 0.343245 0.683801 0.168858
H6    H     H_    0.715016 0.392277 0.697576 0.157378
H7    H     H_    0.720141 0.537398 0.289123 0.158856
H8    H     H_    0.522611 0.116379 0.280000 0.166594
H9    H     H_    0.240746 0.730913 0.714310 0.120912
H10   H     H_    0.328416 0.709474 0.651121 0.119261
H11   H     H_    0.324338 0.826947 0.869984 0.197697
H12   H     H_    0.428144 0.879584 0.726633 0.208748
H13   H     H_    0.286000 0.689810 0.950866 0.260105
H14   H     H_    0.373904 0.685424 0.882530 0.247095
H15   H     H_    0.729315 0.776268 0.947162 0.259024
H16   H     H_    0.704679 0.670230 0.083291 0.251992
H17   H     H_    0.780502 0.640286 0.982337 0.266080
H18   H     H_    0.680972 0.500197 0.911836 0.216352
H19   H     H_    0.707448 0.607609 0.780255 0.227667
H20   H     H_    0.594810 0.667898 0.759293 0.237337
H21   H     H_    0.602569 0.742988 0.913231 0.169470
H22   H     H_    0.047535 0.601325 0.670903 0.163523
H23   H     H_    0.510943 0.880688 0.830783 0.196230
H24   H     H_    0.127768 0.691248 0.651788 0.091507
H25   H     H_    0.142442 0.693844 0.903716 0.255204
H26   H     H_    0.061074 0.761992 0.847853 0.202228
H27   H     H_    0.060426 0.606340 0.920784 0.265425
H28   H     H_    0.772862 0.411847 0.109959 0.141648
H29   H     H_    0.828702 0.295481 0.188112 0.135538
H30   H     H_    0.930239 0.376260 0.055998 0.268829
H31   H     H_    0.857805 0.330075 0.946944 0.195346
H32   H     H_    0.876094 0.493762 0.977900 0.251598
H33   H     H_    0.427804 0.101717 0.730959 0.205870
H34   H     H_    0.512079 0.101846 0.833579 0.199282
H35   H     H_    0.591974 0.608660 0.131336 0.162139
H36   H     H_    0.355186 0.332501 0.879057 0.236243
H37   H     H_    0.444381 0.262793 0.880110 0.203423
H38   H     H_    0.356200 0.329934 0.121763 0.202403
N1    N     N_R   0.034271 0.429544 0.368152 -0.180667
N2    N     N_R   0.964796 0.421542 0.363001 -0.105716
N3    N     N_R   0.962089 0.363274 0.591159 -0.193706
N4    N     N_R   0.031816 0.370799 0.596435 -0.127900
N5    N     N_R   0.499530 0.499140 0.142800 -0.125529
N6    N     N_R   0.499530 0.499180 0.857150 -0.136235
O1    O     O_R   0.500010 0.316790 0.614690 -0.616044
O2    O     O_3   0.136970 0.505942 0.728561 -0.574431
O3    O     O_3   0.849695 0.482195 0.241252 -0.602300
O4    O     O_R   0.500000 0.316760 0.385350 -0.621335
O5    O     O_R   0.398140 0.500000 0.614710 -0.568078
O6    O     O_R   0.398130 0.499970 0.385370 -0.617024
O7    O     O_R   0.500000 0.683240 0.614650 -0.643545
O8    O     O_R   0.499990 0.683210 0.385310 -0.619688
O9    O     O_R   0.601870 0.500030 0.614630 -0.635154
O10   O     O_R   0.601860 0.500000 0.385290 -0.622697
O11   O     O_3   0.279237 0.550175 0.735340 -0.571676
Zn1   Zn    Zn3+2 0.500000 0.500020 0.653130 0.938972
Zn2   Zn    Zn3+2 0.500000 0.499980 0.346870 0.935705

loop_
_geom_bond_atom_site_label_1
_geom_bond_atom_site_label_2
_ccdc_geom_bond_type
C23   N3    A    
C35   C36   S    
C14   N5    A    
O10   Zn2   S    
C7    C8    A    
C13   N5    A    
C16   O8    A    
C29   C30   S    
C1    C5    S    
C31   H17   S    
C30   C31   S    
C2    C41   A    
C18   C19   S    
C7    H1    S    
O1    Zn1   S    
C10   H12   S    
C26   H4    S    
C34   N1    A    
C35   H29   S    
C27   H10   S    
C8    C9    A    
C30   H19   S    
O7    Zn1   S    
C31   H15   S    
C4    C12   S    
C9    C10   S    
O5    Zn1   S    
C27   H9    S    
C15   N6    A    
C4    O6    A    
O6    Zn2   S    
C21   C22   A    
C27   O11   S    
C25   H3    S    
C28   H14   S    
C19   H2    S    
C33   H25   S    
C15   C29   S    
C4    O5    A    
C38   C39   A    
C29   H20   S    
C13   C19   S    
C3    C11   S    
C24   C25   A    
C36   H32   S    
C39   C40   A    
C20   C39   S    
C28   H13   S    
O9    Zn1   S    
C25   C26   A    
C32   O2    S    
C12   C21   A    
C24   C34   S    
C12   C26   A    
C14   H35   S    
C37   C38   A    
C3    C9    A    
C35   O3    S    
C18   H37   S    
C30   H18   S    
C17   C18   S    
C22   O2    S    
C19   H38   S    
C38   H6    S    
C40   C41   A    
C20   O10   A    
C16   O7    A    
C17   N6    A    
C34   N4    A    
C2    C23   S    
C33   H26   S    
C1    O1    A    
C40   H7    S    
C41   O3    S    
C20   O9    A    
C29   H21   S    
C1    O4    A    
C23   N2    A    
C10   H23   S    
C32   H22   S    
N1    N2    A    
C3    C5    A    
C11   H33   S    
C36   H30   S    
C6    C7    A    
C21   O11   S    
C13   C17   A    
O4    Zn2   S    
N5    Zn2   S    
C32   C33   S    
C31   H16   S    
C11   H34   S    
C28   H11   S    
C2    C37   A    
C5    C6    A    
C18   H36   S    
C22   C24   A    
C6    H8    S    
N6    Zn1   S    
C10   C11   S    
C35   H28   S    
C8    C16   S    
N3    N4    A    
C27   C28   S    
C14   C15   A    
C37   H5    S    
O8    Zn2   S    
C36   H31   S    
C33   H27   S    
C32   H24   S    
