data_mof_unit_21885.cif
_audit_creation_date              2012-12-10T16:37:27-0500
_audit_creation_method            fapswitch 2.2
_symmetry_space_group_name_H-M    P1
_symmetry_Int_Tables_number       1
_space_group_crystal_system       triclinic
_cell_length_a                    16.851228
_cell_length_b                    16.856336
_cell_length_c                    16.853624
_cell_angle_alpha                 65.807321
_cell_angle_beta                  65.833111
_cell_angle_gamma                 65.833733
_cell_volume                      3812.49789039

loop_
_atom_site_label
_atom_site_type_symbol
_atom_type_description
_atom_site_fract_x
_atom_site_fract_y
_atom_site_fract_z
_atom_type_partial_charge
C1    C     C_R   0.399767 0.054804 0.666054 -0.223693
C2    C     C_R   0.394371 0.652540 0.082277 -0.217017
C3    C     C_R   0.919239 0.605228 0.346936 -0.221464
C4    C     C_R   0.027014 0.409895 0.666531 -0.222325
C5    C     C_R   0.963283 0.179125 0.437433 0.911921
C6    C     C_R   0.017599 0.824823 0.569933 0.922813
C7    C     C_R   0.175098 0.430018 0.982647 0.922321
C8    C     C_R   0.820868 0.562503 0.036855 0.912215
C9    C     C_R   0.429985 0.982712 0.175060 0.920771
C10   C     C_R   0.562547 0.036779 0.820846 0.914592
C11   C     C_R   0.562148 0.820516 0.037780 0.929762
C12   C     C_R   0.540700 0.080955 0.298189 -0.220766
C13   C     C_R   0.437099 0.179380 0.964864 0.885879
C14   C     C_R   0.035514 0.562762 0.820614 0.929218
C15   C     C_R   0.962377 0.437783 0.179465 0.886532
C16   C     C_R   0.820533 0.037699 0.562162 0.887154
C17   C     C_R   0.179390 0.964673 0.437173 0.928851
C18   C     C_R   0.443606 0.072466 0.708310 -0.180501
C19   C     C_R   0.495582 0.064427 0.256154 -0.180725
C20   C     C_R   0.936636 0.743294 0.504066 -0.180746
C21   C     C_R   0.928489 0.291375 0.556231 -0.179605
C22   C     C_R   0.708229 0.443359 0.073454 -0.179174
C23   C     C_R   0.920435 0.701198 0.458821 -0.221462
C24   C     C_R   0.256207 0.495701 0.064330 -0.180955
C25   C     C_R   0.294057 0.950260 0.547532 -0.175312
C26   C     C_R   0.701930 0.084830 0.442142 -0.195149
C27   C     C_R   0.547476 0.293493 0.951499 -0.186684
C28   C     C_R   0.442202 0.701824 0.084914 -0.185812
C29   C     C_R   0.916063 0.557548 0.297879 -0.193453
C30   C     C_R   0.050860 0.452135 0.705772 -0.176568
C31   C     C_R   0.530055 0.057323 0.532749 0.019974
C32   C     C_R   0.440519 0.023856 0.444914 0.019961
C33   C     C_R   0.977649 0.554551 0.559014 0.019929
C34   C     C_R   0.946614 0.333447 0.599881 -0.224551
C35   C     C_R   0.944071 0.466752 0.469557 0.020033
C36   C     C_R   0.532707 0.529728 0.058056 0.020091
C37   C     C_R   0.444885 0.440132 0.024634 0.021167
C38   C     C_R   0.567178 0.065571 0.438879 0.050755
C39   C     C_R   0.404878 0.014046 0.538997 0.047747
C40   C     C_R   0.987523 0.460465 0.594665 0.048550
C41   C     C_R   0.935943 0.560579 0.432366 0.049919
C42   C     C_R   0.438896 0.566942 0.066013 0.048981
C43   C     C_R   0.538889 0.404290 0.015274 0.049283
C44   C     C_R   0.517543 0.056657 0.393394 0.049140
C45   C     C_R   0.665886 0.399318 0.056149 -0.226771
C46   C     C_R   0.444486 0.040617 0.580186 0.050539
C47   C     C_R   0.393415 0.517331 0.057073 0.049456
C48   C     C_R   0.580064 0.443995 0.041775 0.051309
C49   C     C_R   0.960925 0.419268 0.555079 0.050692
C50   C     C_R   0.944897 0.606025 0.481953 0.049232
C51   C     C_R   0.537322 0.065629 0.671627 0.069814
C52   C     C_R   0.429635 0.016941 0.307246 0.060074
C53   C     C_R   0.984067 0.692338 0.570060 0.060681
C54   C     C_R   0.935081 0.328117 0.462548 0.070145
C55   C     C_R   0.671596 0.537137 0.066223 0.070707
C56   C     C_R   0.298238 0.540747 0.080932 -0.220099
C57   C     C_R   0.307281 0.429587 0.017117 0.059535
C58   C     C_R   0.321936 0.968545 0.452381 0.079155
C59   C     C_R   0.668712 0.070247 0.537083 0.072545
C60   C     C_R   0.452348 0.321598 0.969317 0.077750
C61   C     C_R   0.537114 0.668586 0.070476 0.072154
C62   C     C_R   0.930446 0.462655 0.331150 0.071869
C63   C     C_R   0.032471 0.547294 0.677851 0.079975
C64   C     C_R   0.591154 0.059972 0.722054 -0.131372
C65   C     C_R   0.392264 0.985150 0.267576 -0.112295
C66   C     C_R   0.015503 0.732186 0.607570 -0.113543
C67   C     C_R   0.333137 0.974417 0.589654 -0.221624
C68   C     C_R   0.940233 0.277855 0.408836 -0.129692
C69   C     C_R   0.722079 0.591069 0.060216 -0.129350
C70   C     C_R   0.267624 0.392282 0.985218 -0.114244
C71   C     C_R   0.276257 0.955535 0.405009 -0.136450
C72   C     C_R   0.721086 0.061419 0.590951 -0.123092
C73   C     C_R   0.404974 0.276143 0.955968 -0.123411
C74   C     C_R   0.590990 0.721031 0.061501 -0.134581
C75   C     C_R   0.938799 0.408938 0.278901 -0.122606
C76   C     C_R   0.045087 0.594804 0.723659 -0.136840
C77   C     C_R   0.679790 0.062076 0.680009 -0.307511
C78   C     C_R   0.652670 0.082142 0.394303 -0.222215
C79   C     C_R   0.317559 0.954139 0.316963 -0.309972
C80   C     C_R   0.046416 0.682885 0.682347 -0.310149
C81   C     C_R   0.937872 0.319971 0.320277 -0.308072
C82   C     C_R   0.680079 0.679755 0.062102 -0.302964
C83   C     C_R   0.317000 0.317560 0.954319 -0.312830
C84   C     C_R   0.578608 0.065021 0.580238 0.075280
C85   C     C_R   0.398018 0.002221 0.401774 0.073772
C86   C     C_R   0.999014 0.597788 0.601623 0.073759
C87   C     C_R   0.935951 0.419410 0.421165 0.074826
C88   C     C_R   0.580220 0.578391 0.065553 0.076456
C89   C     C_R   0.589527 0.332381 0.975959 -0.230342
C90   C     C_R   0.401766 0.397735 0.002821 0.072156
H1    H     H_    0.329197 0.056592 0.699774 0.139404
H2    H     H_    0.322682 0.684849 0.089976 0.139077
H3    H     H_    0.911516 0.676917 0.314611 0.138824
H4    H     H_    0.043619 0.336601 0.690886 0.140995
H5    H     H_    0.719817 0.056356 0.719742 0.196466
H6    H     H_    0.286689 0.935483 0.284424 0.191620
H7    H     H_    0.064801 0.715542 0.713320 0.192026
H8    H     H_    0.943208 0.280355 0.280351 0.196034
H9    H     H_    0.719859 0.719827 0.056183 0.196966
H10   H     H_    0.284497 0.286786 0.935508 0.190340
H11   H     H_    0.401596 0.092410 0.769240 0.172897
H12   H     H_    0.591394 0.116082 0.254385 0.139977
H13   H     H_    0.512501 0.091654 0.183102 0.182090
H14   H     H_    0.909091 0.816287 0.487245 0.181765
H15   H     H_    0.908309 0.230577 0.598401 0.173179
H16   H     H_    0.769213 0.401498 0.093403 0.172529
H17   H     H_    0.183152 0.512840 0.091313 0.181781
H18   H     H_    0.243673 0.914595 0.591205 0.168061
H19   H     H_    0.764980 0.101408 0.402229 0.173103
H20   H     H_    0.591260 0.243155 0.915861 0.169305
H21   H     H_    0.402297 0.764945 0.101277 0.173529
H22   H     H_    0.899212 0.597581 0.234975 0.174579
H23   H     H_    0.885301 0.744948 0.408127 0.141354
H24   H     H_    0.086305 0.408579 0.756365 0.166388
H25   H     H_    0.944960 0.299677 0.670421 0.139071
H26   H     H_    0.699539 0.328684 0.058262 0.136199
H27   H     H_    0.254416 0.591614 0.115779 0.141191
H28   H     H_    0.308827 0.957843 0.662955 0.142841
H29   H     H_    0.684897 0.090055 0.322571 0.136738
H30   H     H_    0.662801 0.307877 0.959720 0.142218
O1    O     O_R   0.982940 0.138950 0.510160 -0.637308
O2    O     O_R   0.982940 0.510160 0.138950 -0.653266
O3    O     O_R   0.861050 0.017060 0.489840 -0.653066
O4    O     O_R   0.138950 0.982940 0.510160 -0.632727
O5    O     O_R   0.867700 0.025880 0.612340 -0.634377
O6    O     O_R   0.132300 0.974120 0.387660 -0.614519
O7    O     O_R   0.025880 0.612340 0.867700 -0.613954
O8    O     O_R   0.974120 0.387660 0.132300 -0.634897
O9    O     O_R   0.612340 0.867700 0.025880 -0.618132
O10   O     O_R   0.387660 0.132300 0.974120 -0.631009
O11   O     O_R   0.387660 0.974120 0.132300 -0.635532
O12   O     O_R   0.017060 0.861050 0.489840 -0.642696
O13   O     O_R   0.612340 0.025880 0.867700 -0.628834
O14   O     O_R   0.132300 0.387660 0.974120 -0.634670
O15   O     O_R   0.867700 0.612340 0.025880 -0.629706
O16   O     O_R   0.974120 0.132300 0.387660 -0.630967
O17   O     O_R   0.025880 0.867700 0.612340 -0.633068
O18   O     O_R   0.138950 0.510160 0.982940 -0.642111
O19   O     O_R   0.861050 0.489840 0.017060 -0.636919
O20   O     O_R   0.510160 0.982940 0.138950 -0.643077
O21   O     O_R   0.489840 0.017060 0.861050 -0.636381
O22   O     O_R   0.489840 0.861050 0.017060 -0.632533
O23   O     O_R   0.510160 0.138950 0.982940 -0.653307
O24   O     O_R   0.017060 0.489840 0.861050 -0.632689
Zn1   Zn    Zn3+2 0.004880 0.004880 0.583590 0.929975
Zn2   Zn    Zn3+2 0.995120 0.995120 0.416410 0.927084
Zn3   Zn    Zn3+2 0.004880 0.583590 0.004880 0.929911
Zn4   Zn    Zn3+2 0.995120 0.416410 0.995120 0.927483
Zn5   Zn    Zn3+2 0.583590 0.004880 0.004880 0.927432
Zn6   Zn    Zn3+2 0.416410 0.995120 0.995120 0.929854

loop_
_geom_bond_atom_site_label_1
_geom_bond_atom_site_label_2
_ccdc_geom_bond_type
C5    O16   A    
C15   C75   S    
C65   C79   A    
C15   O2    A    
C80   H7    S    
C82   H9    S    
C29   H22   S    
C36   C42   A    
C16   C72   S    
C10   O13   A    
O24   Zn4   S    
C7    C70   S    
C71   C79   A    
O6    Zn2   S    
C21   H15   S    
C36   C88   A    
C12   H12   S    
C1    C18   A    
C43   C89   A    
C37   C90   A    
C8    O19   A    
C68   C81   A    
O17   Zn1   S    
C52   C85   A    
C16   O3    A    
C27   C60   A    
C30   H24   S    
C54   C87   A    
C9    O20   A    
C17   O6    A    
C54   C68   A    
C81   H8    S    
C40   C49   A    
C5    O1    A    
C60   C73   A    
O4    Zn1   S    
C64   C77   A    
C32   C39   A    
C55   C88   A    
C3    C29   A    
C69   C82   A    
C35   C87   A    
C19   C52   A    
O10   Zn6   S    
C4    C40   A    
C27   H20   S    
C24   C57   A    
C31   C46   A    
C25   C67   A    
C35   C49   A    
C13   O10   A    
C20   C23   A    
C36   C48   A    
C53   C86   A    
C57   C70   A    
C37   C47   A    
C43   C48   A    
C59   C72   A    
C28   C61   A    
C1    H1    S    
C30   C63   A    
C8    O15   A    
C56   H27   S    
C19   H13   S    
C74   C82   A    
C5    C68   S    
C35   C41   A    
C11   O9    A    
C11   O22   A    
O21   Zn6   S    
C18   H11   S    
C9    O11   A    
C28   H21   S    
C32   C44   A    
C14   O24   A    
O19   Zn4   S    
C33   C40   A    
C57   C90   A    
O13   Zn5   S    
C59   C84   A    
C7    O14   A    
C6    O12   A    
C89   H30   S    
O8    Zn4   S    
C23   C50   A    
C21   C34   A    
C38   C78   A    
C33   C50   A    
C22   H16   S    
C77   H5    S    
C4    C30   A    
C14   O7    A    
C10   O21   A    
C14   C76   S    
C37   C43   A    
C33   C86   A    
C38   C44   A    
C72   C77   A    
C70   C83   A    
C61   C88   A    
C23   H23   S    
C17   O4    A    
O3    Zn2   S    
O23   Zn5   S    
O18   Zn3   S    
C8    C69   S    
C3    H3    S    
C24   H17   S    
C26   C78   A    
O2    Zn3   S    
C2    H2    S    
C53   C66   A    
C26   H19   S    
C55   C69   A    
C39   C46   A    
C4    H4    S    
C16   O5    A    
C13   C73   S    
C17   C71   S    
O15   Zn3   S    
C83   H10   S    
C63   C86   A    
C61   C74   A    
O1    Zn1   S    
C62   C75   A    
C25   C58   A    
C58   C85   A    
C41   C50   A    
C66   C80   A    
C26   C59   A    
C45   C48   A    
C29   C62   A    
C3    C41   A    
C34   C49   A    
C39   C67   A    
C75   C81   A    
C51   C64   A    
C76   C80   A    
C20   C53   A    
C11   C74   S    
C7    O18   A    
C22   C55   A    
C20   H14   S    
C60   C90   A    
C18   C51   A    
C24   C56   A    
O14   Zn4   S    
C62   C87   A    
C10   C64   S    
C31   C38   A    
C15   O8    A    
O12   Zn2   S    
O22   Zn6   S    
C6    O17   A    
C78   H29   S    
C34   H25   S    
C79   H6    S    
C12   C44   A    
O5    Zn1   S    
C45   H26   S    
C21   C54   A    
C2    C42   A    
C32   C85   A    
O20   Zn5   S    
C12   C19   A    
C27   C89   A    
C42   C47   A    
C13   O23   A    
C1    C46   A    
C67   H28   S    
C9    C65   S    
C58   C71   A    
C31   C84   A    
C6    C66   S    
C22   C45   A    
C63   C76   A    
O11   Zn6   S    
C2    C28   A    
O9    Zn5   S    
C51   C84   A    
C73   C83   A    
O16   Zn2   S    
C52   C65   A    
C25   H18   S    
O7    Zn3   S    
C47   C56   A    
