data_mof_unit_39453.cif
_audit_creation_date              2012-12-10T17:29:23-0500
_audit_creation_method            fapswitch 2.2
_symmetry_space_group_name_H-M    P1
_symmetry_Int_Tables_number       1
_space_group_crystal_system       triclinic
_cell_length_a                    11.989041
_cell_length_b                    12.881996
_cell_length_c                    13.003675
_cell_angle_alpha                 87.482292
_cell_angle_beta                  112.324188
_cell_angle_gamma                 93.394804
_cell_volume                      1854.0389494

loop_
_atom_site_label
_atom_site_type_symbol
_atom_type_description
_atom_site_fract_x
_atom_site_fract_y
_atom_site_fract_z
_atom_type_partial_charge
C1    C     C_R   0.477232 0.299492 0.497855 0.905223
C2    C     C_R   0.607629 0.529106 0.826699 -0.122052
C3    C     C_R   0.536036 0.811784 0.502296 -0.050554
C4    C     C_R   0.566141 0.506078 0.708054 0.872194
C5    C     C_R   0.463859 0.188143 0.497432 -0.060854
C6    C     C_R   0.361242 0.029171 0.523326 -0.212814
C7    C     C_R   0.367221 0.136737 0.516730 -0.200628
C8    C     C_R   0.552801 0.132844 0.482028 -0.277063
C9    C     C_R   0.548049 0.026023 0.489168 0.182355
C10   C     C_R   0.451786 0.973868 0.510429 0.186829
C11   C     C_R   0.447171 0.867068 0.517819 -0.276353
C12   C     C_R   0.560097 0.568466 0.986960 0.120860
C13   C     C_R   0.632447 0.863138 0.482588 -0.196346
C14   C     C_R   0.638470 0.970700 0.476051 -0.207355
C15   C     C_R   0.011246 0.601515 0.399089 -0.329727
C16   C     C_R   0.522753 0.700496 0.502112 0.859162
C17   C     C_R   0.130883 0.591399 0.408574 0.007085
C18   C     C_R   0.157339 0.456118 0.544241 -0.051113
C19   C     C_R   0.037256 0.463261 0.537286 0.088339
C20   C     C_R   0.963480 0.537140 0.463781 0.089278
C21   C     C_R   0.843587 0.544542 0.456987 -0.051554
C22   C     C_R   0.869045 0.408436 0.591345 0.018665
C23   C     C_R   0.529809 0.573210 0.870896 0.067102
C24   C     C_R   0.989093 0.398712 0.601578 -0.335028
C25   C     C_R   0.436016 0.513033 0.292176 0.867857
C26   C     C_R   0.254163 0.575161 0.990668 -0.196480
C27   C     C_R   0.402280 0.547423 0.176472 -0.156568
C28   C     C_R   0.721863 0.497939 0.898396 -0.197319
C29   C     C_R   0.755176 0.501085 0.012886 -0.162038
C30   C     C_R   0.673754 0.532048 0.057070 -0.104513
C31   C     C_2   0.590751 0.661099 0.214348 0.349359
C32   C     C_R   0.469511 0.587881 0.027639 0.092135
C33   C     C_R   0.348431 0.594579 0.952557 0.140585
C34   C     C_R   0.325334 0.618553 0.841336 -0.245493
C35   C     C_R   0.418591 0.616167 0.802893 -0.191322
C36   C     C_R   0.492358 0.590181 0.140883 -0.080181
C37   C     C_R   0.281549 0.543103 0.101274 -0.199953
H1    H     H_    0.209205 0.517606 0.128391 0.162879
H2    H     H_    0.043552 0.341130 0.659078 0.147154
H3    H     H_    0.167238 0.641088 0.358466 0.137991
H4    H     H_    0.235483 0.636589 0.783982 0.154046
H5    H     H_    0.215363 0.399831 0.600574 0.130241
H6    H     H_    0.160749 0.576811 0.933768 0.143188
H7    H     H_    0.783405 0.466347 0.866036 0.156320
H8    H     H_    0.699036 0.522830 0.145991 0.149652
H9    H     H_    0.841927 0.473672 0.067650 0.144967
H10   H     H_    0.399489 0.642649 0.718233 0.184303
H11   H     H_    0.373297 0.827129 0.534468 0.157574
H12   H     H_    0.701320 0.820372 0.470214 0.162749
H13   H     H_    0.598831 0.673886 0.298625 0.089457
H14   H     H_    0.286957 0.989446 0.539277 0.140580
H15   H     H_    0.712678 0.010406 0.459963 0.143795
H16   H     H_    0.298178 0.179471 0.528841 0.159043
H17   H     H_    0.626843 0.172783 0.465670 0.162174
H18   H     H_    0.786774 0.601794 0.401913 0.126766
H19   H     H_    0.832409 0.358416 0.640993 0.131104
H20   H     H_    0.956608 0.659000 0.341548 0.173227
N1    N     N_R   0.798200 0.480260 0.519790 -0.099070
N2    N     N_R   0.201820 0.519740 0.480210 -0.100934
O1    O     O_R   0.579910 0.341070 0.505280 -0.620515
O2    O     O_R   0.388440 0.353740 0.492580 -0.617499
O3    O     O_R   0.643280 0.490550 0.663120 -0.612804
O4    O     O_R   0.451810 0.503220 0.650420 -0.622669
O5    O     O_R   0.611560 0.646260 0.507420 -0.635879
O6    O     O_R   0.420090 0.658930 0.494720 -0.635884
O7    O     O_R   0.548190 0.496780 0.349580 -0.628728
O8    O     O_R   0.356720 0.509450 0.336880 -0.608517
O9    O     O_2   0.658523 0.712169 0.179322 -0.583407
Zn1   Zn    Zn3+2 0.627850 0.491540 0.508480 0.934581
Zn2   Zn    Zn3+2 0.372150 0.508460 0.491520 0.932395

loop_
_geom_bond_atom_site_label_1
_geom_bond_atom_site_label_2
_ccdc_geom_bond_type
O2    Zn2   S    
C6    C10   A    
C5    C8    A    
C2    C4    S    
C9    C14   A    
N1    Zn1   S    
C22   N1    A    
C6    C7    A    
C3    C16   S    
C16   O5    A    
C27   C36   A    
C25   C27   S    
C2    C28   A    
C9    C10   A    
C30   H8    S    
C19   C20   A    
C12   C23   A    
O4    Zn2   S    
C29   H9    S    
O8    Zn2   S    
C35   H10   S    
C32   C33   A    
C33   C34   A    
C21   H18   S    
C21   N1    A    
C26   C37   A    
O5    Zn1   S    
C12   C32   A    
C15   H20   S    
C4    O4    A    
C11   H11   S    
C29   C30   A    
C34   H4    S    
O1    Zn1   S    
C17   N2    A    
C13   H12   S    
C32   C36   A    
C22   C24   A    
C28   C29   A    
C37   H1    S    
C27   C37   A    
C26   H6    S    
C19   C24   A    
C23   C35   A    
C18   H5    S    
C15   C20   A    
C6    H14   S    
C1    C5    S    
O7    Zn1   S    
C3    C11   A    
C10   C11   A    
C7    H16   S    
N2    Zn2   S    
O6    Zn2   S    
C4    O3    A    
C18   N2    A    
C24   H2    S    
C20   C21   A    
O3    Zn1   S    
C25   O8    A    
C5    C7    A    
C34   C35   A    
C1    O1    A    
C8    H17   S    
C2    C23   A    
C15   C17   A    
C31   C36   S    
C18   C19   A    
C22   H19   S    
C16   O6    A    
C31   H13   S    
C12   C30   A    
C13   C14   A    
C31   O9    D    
C28   H7    S    
C14   H15   S    
C25   O7    A    
C26   C33   A    
C1    O2    A    
C8    C9    A    
C17   H3    S    
C3    C13   A    
