data_mof_unit_54113.cif
_audit_creation_date              2013-03-05T16:40:34-0500
_audit_creation_method            fapswitch 2.2
_symmetry_space_group_name_H-M    P1
_symmetry_Int_Tables_number       1
_space_group_crystal_system       triclinic
_cell_length_a                    17.599644
_cell_length_b                    16.675398
_cell_length_c                    10.958398
_cell_angle_alpha                 89.988216
_cell_angle_beta                  86.923903
_cell_angle_gamma                 89.987542
_cell_volume                      3211.44830561

loop_
_atom_site_label
_atom_site_type_symbol
_atom_site_description
_atom_site_fract_x
_atom_site_fract_y
_atom_site_fract_z
_atom_type_partial_charge
O1    O     O_R   0.391260 0.567930 0.500000 -0.560986
O2    O     O_R   0.608740 0.567930 0.500000 -0.561071
O3    O     O_R   0.391280 0.432120 0.500000 -0.518052
O4    O     O_R   0.608720 0.432120 0.500000 -0.518022
C1    C     C_R   0.353709 0.499270 0.506497 0.962288
C2    C     C_R   0.646284 0.499254 0.493590 0.962357
O5    O     O_R   0.500000 0.567920 0.319650 -0.592115
O6    O     O_R   0.500000 0.567920 0.680350 -0.592157
O7    O     O_R   0.500030 0.432100 0.319660 -0.537805
O8    O     O_R   0.499970 0.432100 0.680340 -0.537842
C3    C     C_R   0.507728 0.500204 0.260761 0.894251
C4    C     C_R   0.492271 0.500192 0.739237 0.894244
Cu1   Cu    Cu3+1 0.500000 0.580420 0.500000 1.067374
Cu2   Cu    Cu3+1 0.500000 0.419580 0.500000 1.079804
C5    C     C_R   0.552431 0.646061 0.091531 0.281991
C6    C     C_R   0.447493 0.646016 0.908300 0.281995
C7    C     C_R   0.526130 0.720343 0.046942 0.187246
C8    C     C_R   0.473748 0.720319 0.952789 0.186982
C9    C     C_R   0.482417 0.573599 0.943912 -0.186092
C10   C     C_R   0.517555 0.573619 0.056018 -0.186261
C11   C     C_R   0.520105 0.500510 0.123426 0.025557
C12   C     C_R   0.479925 0.500481 0.876571 0.025516
C13   C     C_R   0.514363 0.427587 0.058368 -0.061552
C14   C     C_R   0.485754 0.427568 0.941678 -0.061576
C15   C     C_R   0.845502 0.501458 0.578205 0.356301
C16   C     C_R   0.154108 0.502083 0.422874 0.357323
C17   C     C_R   0.784925 0.543574 0.528123 -0.110272
C18   C     C_R   0.214974 0.543856 0.472702 -0.110792
C19   C     C_R   0.732603 0.492480 0.472311 -0.302117
C20   C     C_R   0.267381 0.492516 0.527953 -0.301654
C21   C     C_R   0.766528 0.429877 0.397278 0.325859
C22   C     C_R   0.233566 0.429735 0.602748 0.325419
C23   C     C_R   0.843718 0.406600 0.411633 0.326041
C24   C     C_R   0.156363 0.406518 0.588573 0.325511
C25   C     C_R   0.883497 0.444277 0.503752 -0.192869
C26   C     C_R   0.116346 0.444597 0.497082 -0.194254
C27   C     C_1   0.965589 0.439773 0.503048 0.248668
C28   C     C_1   0.034251 0.439876 0.498027 0.249253
C29   C     C_R   0.555142 0.832281 0.555186 -0.198841
C30   C     C_R   0.444989 0.832382 0.444840 -0.199091
H1    H     H_    0.598353 0.865818 0.600547 0.182976
H2    H     H_    0.401832 0.866011 0.399447 0.183101
C31   C     C_R   0.557430 0.746799 0.551061 0.256258
C32   C     C_R   0.442610 0.746899 0.448955 0.256321
N1    N     N_R   0.500000 0.701220 0.500000 -0.173655
C33   C     C_R   0.500080 0.875612 0.500025 0.051578
C34   C     C_1   0.500099 0.963774 0.500031 0.093538
C35   C     C_1   0.500087 0.037214 0.500018 0.291676
C36   C     C_R   0.568000 0.169350 0.504092 0.244362
C37   C     C_R   0.432088 0.169334 0.495844 0.244726
C38   C     C_R   0.564202 0.253680 0.531223 0.342244
C39   C     C_R   0.435835 0.253677 0.468733 0.342608
N2    N     N_R   0.500000 0.298780 0.500000 -0.343426
C40   C     C_R   0.500058 0.126119 0.499991 -0.274518
C41   C     C_R   0.558617 0.354566 0.087460 0.133005
C42   C     C_R   0.523430 0.287365 0.143152 -0.176382
C43   C     C_R   0.560620 0.213303 0.144598 -0.155965
C44   C     C_R   0.632547 0.204605 0.086004 -0.011992
C45   C     C_R   0.667221 0.270033 0.026156 -0.008707
C46   C     C_R   0.630446 0.344435 0.026578 -0.008839
H3    H     H_    0.465577 0.290363 0.177430 0.227992
H4    H     H_    0.532671 0.162128 0.188071 0.184283
H5    H     H_    0.660989 0.147060 0.085827 0.177348
H6    H     H_    0.722409 0.263109 0.978873 0.180894
H7    H     H_    0.657032 0.393927 0.976509 0.174130
C47   C     C_R   0.441593 0.354500 0.912633 0.132552
C48   C     C_R   0.476875 0.287300 0.857087 -0.176240
C49   C     C_R   0.439745 0.213223 0.855629 -0.156136
C50   C     C_R   0.367787 0.204503 0.914097 -0.012276
C51   C     C_R   0.333030 0.269920 0.973848 -0.007721
C52   C     C_R   0.369744 0.344339 0.973425 -0.008906
H8    H     H_    0.534755 0.290309 0.822955 0.228058
H9    H     H_    0.467765 0.162053 0.812259 0.184397
H10   H     H_    0.339389 0.146947 0.914270 0.177434
H11   H     H_    0.277822 0.262975 0.021053 0.181384
H12   H     H_    0.343087 0.393826 0.023407 0.174204
S1    S     S_3+6 0.655297 0.113963 0.482786 0.073458
O9    O     O_2   0.670404 0.071102 0.599722 -0.243363
O10   O     O_2   0.646962 0.052471 0.384038 -0.320845
O11   O     O_3   0.730771 0.170728 0.440547 -0.377702
H13   H     H_    0.774996 0.134014 0.441210 0.388838
S2    S     S_3+6 0.344829 0.113905 0.517028 0.073568
O12   O     O_2   0.329848 0.071029 0.400083 -0.243684
O13   O     O_2   0.353145 0.052422 0.615840 -0.320686
O14   O     O_3   0.269278 0.170629 0.559082 -0.377757
H14   H     H_    0.225082 0.133904 0.558268 0.388418
S3    S     S_3+6 0.639440 0.288347 0.625002 0.053976
O15   O     O_2   0.656908 0.222041 0.712113 -0.269178
O16   O     O_2   0.709992 0.304122 0.546459 -0.216326
O17   O     O_3   0.623823 0.370411 0.710932 -0.572646
H15   H     H_    0.673836 0.384152 0.742711 0.362484
S4    S     S_3+6 0.360602 0.288368 0.374921 0.054043
O18   O     O_2   0.343181 0.222088 0.287794 -0.269263
O19   O     O_2   0.290029 0.304123 0.453427 -0.216121
O20   O     O_3   0.376207 0.370455 0.289002 -0.572687
H16   H     H_    0.326199 0.384200 0.257181 0.362329
S5    S     S_3+6 0.645359 0.640809 0.146323 0.015811
O21   O     O_2   0.640553 0.635217 0.283001 -0.287029
O22   O     O_2   0.685219 0.568198 0.093111 -0.256555
O23   O     O_3   0.697769 0.721437 0.103151 -0.521202
H17   H     H_    0.715754 0.744935 0.179370 0.376289
S6    S     S_3+6 0.354535 0.640696 0.853634 0.015884
O24   O     O_2   0.359250 0.634950 0.716978 -0.286496
O25   O     O_2   0.314747 0.568127 0.907124 -0.256958
O26   O     O_3   0.302105 0.721359 0.896628 -0.521680
H18   H     H_    0.284274 0.744933 0.820338 0.376689
S7    S     S_3+6 0.549476 0.811225 0.123176 0.090453
O27   O     O_2   0.610385 0.855175 0.048609 -0.203558
O28   O     O_2   0.480699 0.864158 0.140263 -0.221897
O29   O     O_3   0.581131 0.792153 0.262125 -0.535933
H19   H     H_    0.608017 0.841595 0.285270 0.366124
S8    S     S_3+6 0.450347 0.811160 0.876420 0.090253
O30   O     O_2   0.389410 0.855125 0.950914 -0.203830
O31   O     O_2   0.519090 0.864107 0.859251 -0.221882
O32   O     O_3   0.418709 0.792007 0.737503 -0.536176
H20   H     H_    0.391778 0.841423 0.714284 0.366048
S9    S     S_3+6 0.876513 0.521609 0.725867 0.010828
O33   O     O_2   0.948898 0.569613 0.716966 -0.321155
O34   O     O_2   0.816355 0.566492 0.800155 -0.298128
O35   O     O_3   0.893596 0.433807 0.794735 -0.453692
H21   H     H_    0.911976 0.448637 0.875577 0.407883
S10   S     S_3+6 0.122098 0.523429 0.276168 0.010285
O36   O     O_2   0.049798 0.571541 0.287265 -0.324272
O37   O     O_2   0.181804 0.568746 0.201591 -0.296901
O38   O     O_3   0.104426 0.436221 0.206105 -0.452684
H22   H     H_    0.082762 0.451731 0.127878 0.408092
C53   C     C_R   0.817184 0.611039 0.448724 0.070682
C54   C     C_R   0.868204 0.666763 0.496205 -0.110457
C55   C     C_R   0.904920 0.724364 0.421549 -0.143180
C56   C     C_R   0.894888 0.725109 0.296465 -0.088035
C57   C     C_R   0.847696 0.668508 0.246039 -0.084737
C58   C     C_R   0.808772 0.612613 0.320992 -0.053308
H23   H     H_    0.878796 0.667119 0.592142 0.193330
H24   H     H_    0.941409 0.768381 0.460821 0.130819
H25   H     H_    0.924295 0.768974 0.238482 0.147637
H26   H     H_    0.841551 0.667517 0.148306 0.192181
H27   H     H_    0.774768 0.568734 0.276909 0.219413
C59   C     C_R   0.183153 0.611351 0.552410 0.071332
C60   C     C_R   0.132853 0.667871 0.505012 -0.108702
C61   C     C_R   0.096572 0.725652 0.579867 -0.146801
C62   C     C_R   0.106172 0.725693 0.705081 -0.091089
C63   C     C_R   0.152523 0.668226 0.755426 -0.083047
C64   C     C_R   0.191124 0.612213 0.680270 -0.051915
H28   H     H_    0.122455 0.668674 0.409016 0.194014
H29   H     H_    0.060726 0.770341 0.540657 0.131295
H30   H     H_    0.077078 0.769688 0.763218 0.148211
H31   H     H_    0.158338 0.666713 0.853230 0.192796
H32   H     H_    0.224564 0.567758 0.724260 0.218764
S11   S     S_3+6 0.718851 0.395368 0.270737 0.061535
O39   O     O_2   0.655720 0.451613 0.246516 -0.353513
O40   O     O_2   0.771835 0.393294 0.158610 -0.216040
O41   O     O_3   0.683277 0.303562 0.298976 -0.429070
H33   H     H_    0.629235 0.312588 0.324300 0.352974
S12   S     S_3+6 0.281308 0.395135 0.729209 0.061790
O42   O     O_2   0.344282 0.451502 0.753639 -0.353724
O43   O     O_2   0.228289 0.392803 0.841287 -0.214613
O44   O     O_3   0.317119 0.303442 0.700761 -0.429026
H34   H     H_    0.371200 0.312602 0.675860 0.352802
S13   S     S_3+6 0.891483 0.330964 0.319911 0.117814
O45   O     O_2   0.930401 0.370984 0.210676 -0.241880
O46   O     O_2   0.950439 0.289329 0.391385 -0.232716
O47   O     O_3   0.831820 0.260388 0.272081 -0.411020
H35   H     H_    0.862691 0.227783 0.212358 0.373435
S14   S     S_3+6 0.108800 0.330467 0.679750 0.118357
O48   O     O_2   0.069394 0.370082 0.788907 -0.238039
O49   O     O_2   0.050256 0.288713 0.607629 -0.233986
O50   O     O_3   0.168634 0.260075 0.727744 -0.410711
H36   H     H_    0.137326 0.226157 0.785085 0.373031
C65   C     C_R   0.625855 0.715356 0.607298 0.137968
C66   C     C_R   0.696535 0.747889 0.565401 -0.154133
C67   C     C_R   0.754441 0.758786 0.646163 -0.173742
C68   C     C_R   0.747611 0.726179 0.763100 0.013664
C69   C     C_R   0.680772 0.686958 0.801568 -0.051598
C70   C     C_R   0.619300 0.685592 0.726691 -0.146204
H37   H     H_    0.702773 0.775274 0.475701 0.159670
H38   H     H_    0.804746 0.792696 0.617927 0.150840
H39   H     H_    0.793491 0.732368 0.824356 0.171624
H40   H     H_    0.674545 0.662531 0.892324 0.213583
H41   H     H_    0.565141 0.669887 0.767109 0.149027
C71   C     C_R   0.374184 0.715584 0.392612 0.138080
C72   C     C_R   0.303546 0.748381 0.434223 -0.154604
C73   C     C_R   0.245868 0.759690 0.353147 -0.174130
C74   C     C_R   0.252790 0.727155 0.236192 0.015325
C75   C     C_R   0.319489 0.687538 0.198076 -0.052599
C76   C     C_R   0.380811 0.685824 0.273243 -0.146230
H42   H     H_    0.297248 0.775726 0.523932 0.159780
H43   H     H_    0.195645 0.793813 0.381183 0.150598
H44   H     H_    0.207079 0.733664 0.174681 0.171634
H45   H     H_    0.325778 0.663109 0.107353 0.213248
H46   H     H_    0.434966 0.669932 0.233014 0.149266

loop_
_geom_bond_atom_site_label_1
_geom_bond_atom_site_label_2
_geom_bond_distance
_ccdc_geom_bond_type
C68   H39   1.082349 S    
C20   C22   1.438584 A    
C67   C68   1.391198 A    
O6    Cu1   1.987266 S    
C17   C19   1.417370 A    
O20   H16   0.990729 S    
C65   C66   1.411167 A    
C9    C10   1.404708 A    
S3    O15   1.503058 D    
C54   C55   1.397379 A    
C32   C71   1.477967 S    
S9    O34   1.500416 D    
S8    O31   1.501548 D    
S5    O21   1.498497 D    
C31   C65   1.477906 S    
S11   O39   1.488533 D    
C43   H4    1.082580 S    
C29   H1    1.085854 S    
C72   C73   1.397146 A    
O35   H21   0.990705 S    
C30   C33   1.374359 A    
C45   H6    1.082208 S    
C37   C40   1.399218 A    
O1    C1    1.322103 A    
S14   O48   1.503107 D    
C25   C27   1.446337 S    
C8    S8    1.789094 S    
C55   C56   1.391456 A    
C24   S14   1.793739 S    
C59   C64   1.415700 A    
C7    S7    1.789153 S    
S13   O45   1.503096 D    
O14   H14   0.990506 S    
C52   H12   1.083284 S    
C21   S11   1.756007 S    
C66   C67   1.397077 A    
C36   C40   1.399171 A    
C4    C12   1.508988 S    
C42   C43   1.398095 A    
S6    O26   1.683984 S    
C48   H8    1.067350 S    
O2    Cu1   1.925039 S    
C53   C58   1.415669 A    
O23   H17   0.989899 S    
S6    O24   1.498460 D    
C73   C74   1.391138 A    
C17   C53   1.513885 S    
O44   H34   0.987883 S    
C56   H25   1.082267 S    
C49   C50   1.395874 A    
C36   C38   1.438180 A    
C37   C39   1.438224 A    
S7    O27   1.503338 D    
S13   O46   1.502936 D    
C51   C52   1.399131 A    
O6    C4    1.304141 A    
S12   O43   1.502547 D    
S3    O17   1.675568 S    
C14   C47   1.488989 S    
C30   H2    1.085851 S    
C47   C48   1.403997 A    
C45   C46   1.399123 A    
C69   C70   1.392677 A    
C41   C46   1.407554 A    
S7    O28   1.501553 D    
O2    C2    1.322024 A    
C54   H23   1.077541 S    
C5    S5    1.774368 S    
S8    O30   1.503338 D    
S5    O22   1.501417 D    
O5    C3    1.304156 A    
C43   C44   1.395891 A    
C66   H37   1.084006 S    
S1    O10   1.503841 D    
C11   C13   1.416096 A    
C5    C10   1.419028 A    
C21   C23   1.429559 A    
C48   C49   1.398087 A    
C76   H46   1.061989 S    
C9    C12   1.427226 A    
C18   C59   1.513602 S    
C61   C62   1.391483 A    
S12   O44   1.676604 S    
O4    C2    1.300214 A    
C57   H26   1.082329 S    
O8    Cu2   1.987249 S    
S9    O35   1.681460 S    
C38   S3    1.813920 S    
O50   H36   0.990542 S    
C29   C31   1.426667 A    
C49   H9    1.082581 S    
S1    O9    1.503241 D    
C3    C11   1.509049 S    
S4    O20   1.675553 S    
O29   H19   0.990500 S    
C38   N2    1.414365 A    
C22   C24   1.429381 A    
C2    C19   1.528723 S    
C35   C40   1.482523 S    
O7    Cu2   1.987165 S    
C74   C75   1.391426 A    
C27   C28   1.206725 T    
O7    C3    1.309609 A    
C60   H28   1.077465 S    
C34   C35   1.224653 T    
O5    Cu1   1.987352 S    
C65   C70   1.398216 A    
C72   H42   1.084009 S    
C41   C42   1.403986 A    
S4    O19   1.495688 D    
C7    C8    1.420044 A    
S13   O47   1.679944 S    
C50   H10   1.082167 S    
C39   N2    1.414343 A    
O41   H33   0.987890 S    
S6    O25   1.501442 D    
C31   N1    1.404838 A    
S12   O42   1.488602 D    
O3    Cu2   1.924781 S    
O8    C4    1.309602 A    
C47   C52   1.407530 A    
C15   C25   1.401252 A    
C29   C33   1.374402 A    
C22   S12   1.756063 S    
C62   H30   1.082267 S    
C6    S6    1.774431 S    
C46   H7    1.083289 S    
S2    O13   1.503843 D    
C62   C63   1.391361 A    
O38   H22   0.990995 S    
S7    O29   1.679514 S    
C12   C14   1.416093 A    
S11   O41   1.676554 S    
O1    Cu1   1.925130 S    
S10   O37   1.500359 D    
C57   C58   1.397247 A    
S5    O23   1.683966 S    
C68   C69   1.391487 A    
C37   S2    1.796929 S    
C1    C20   1.529083 S    
O26   H18   0.989893 S    
S1    O11   1.676026 S    
C16   C26   1.401390 A    
C44   H5    1.082166 S    
C5    C7    1.418137 A    
C33   C34   1.470127 S    
C42   H3    1.067364 S    
C63   H31   1.082383 S    
S14   O50   1.679877 S    
C32   N1    1.404789 A    
O11   H13   0.990507 S    
O3    C1    1.300307 A    
C15   S9    1.767548 S    
C61   H29   1.080143 S    
C60   C61   1.397440 A    
C13   C41   1.488969 S    
C53   C54   1.411095 A    
O47   H35   0.990460 S    
S2    O14   1.676000 S    
C67   H38   1.081698 S    
C74   H44   1.082357 S    
C16   C18   1.412125 A    
S10   O38   1.681444 S    
S11   O40   1.502526 D    
C56   C57   1.391347 A    
C58   H27   1.076228 S    
C18   C20   1.417620 A    
C19   C21   1.438652 A    
S9    O33   1.503445 D    
C26   C28   1.446486 S    
Cu1   N1    2.014386 S    
O17   H15   0.990735 S    
C69   H40   1.074795 S    
C6    C9    1.419000 A    
S14   O49   1.502990 D    
S4    O18   1.503055 D    
C23   C25   1.407195 A    
C36   S1    1.796948 S    
C24   C26   1.407028 A    
C73   H43   1.081748 S    
O4    Cu2   1.924871 S    
C50   C51   1.396386 A    
C44   C45   1.396400 A    
C64   H32   1.076286 S    
C39   S4    1.813886 S    
C59   C60   1.410866 A    
C13   C14   1.399208 A    
C55   H24   1.079992 S    
C23   S13   1.793643 S    
C30   C32   1.426720 A    
Cu2   N2    2.014386 S    
C10   C11   1.427264 A    
C6    C8    1.418114 A    
S2    O12   1.503243 D    
C71   C76   1.398173 A    
C51   H11   1.082207 S    
S3    O16   1.495704 D    
C63   C64   1.397238 A    
C75   C76   1.392635 A    
C16   S10   1.767916 S    
S10   O36   1.503518 D    
Cu1   Cu2   2.682073 S    
C70   H41   1.062105 S    
C75   H45   1.074675 S    
S8    O32   1.679499 S    
C71   C72   1.411217 A    
O32   H20   0.990503 S    
C15   C17   1.411880 A    
