data_mof_unit_33166.cif
_audit_creation_date              2012-12-10T18:42:31-0500
_audit_creation_method            fapswitch 2.2
_symmetry_space_group_name_H-M    P1
_symmetry_Int_Tables_number       1
_space_group_crystal_system       triclinic
_cell_length_a                    8.581365
_cell_length_b                    10.640626
_cell_length_c                    9.869754
_cell_angle_alpha                 90.038405
_cell_angle_beta                  98.92054
_cell_angle_gamma                 90.164193
_cell_volume                      890.313000835

loop_
_atom_site_label
_atom_site_type_symbol
_atom_type_description
_atom_site_fract_x
_atom_site_fract_y
_atom_site_fract_z
_atom_type_partial_charge
C1    C     C_R   0.496542 0.260268 0.499489 0.949057
C2    C     C_R   0.503458 0.739732 0.500510 0.949057
C3    C     C_R   0.201082 0.499953 0.463937 0.979892
C4    C     C_R   0.798918 0.500047 0.536062 0.979892
C5    C     C_2   0.035710 0.500128 0.444694 -0.330306
C6    C     C_2   0.964290 0.499872 0.555306 -0.330307
C7    C     C_R   0.605373 0.067008 0.432272 -0.263022
C8    C     C_R   0.394627 0.932992 0.567728 -0.263021
C9    C     C_R   0.611304 0.938015 0.433088 0.406062
C10   C     C_R   0.388696 0.061985 0.566912 0.406062
C11   C     C_R   0.504615 0.872111 0.500739 -0.179731
C12   C     C_R   0.495385 0.127889 0.499261 -0.179731
C13   C     C_R   0.595939 0.579644 0.085279 -0.172773
C14   C     C_R   0.404061 0.420356 0.914721 -0.172774
C15   C     C_R   0.597379 0.579257 0.941402 0.268321
C16   C     C_R   0.402621 0.420743 0.058598 0.268323
H1    H     H_    0.973249 0.500588 0.339962 0.173945
H2    H     H_    0.026751 0.499412 0.660037 0.173945
H3    H     H_    0.688322 0.119966 0.382100 0.196080
H4    H     H_    0.311678 0.880034 0.617900 0.196079
H5    H     H_    0.672326 0.643177 0.150756 0.198092
H6    H     H_    0.327674 0.356822 0.849244 0.198092
N1    N     N_R   0.499960 0.499970 0.857200 -0.106957
N2    N     N_R   0.500040 0.500030 0.142800 -0.106957
O1    O     O_R   0.499990 0.316750 0.614620 -0.586417
O2    O     O_R   0.500010 0.683250 0.385380 -0.586417
O3    O     O_R   0.499990 0.316780 0.385290 -0.617290
O4    O     O_R   0.500010 0.683220 0.614710 -0.617291
O5    O     O_R   0.271750 0.499990 0.587840 -0.613435
O6    O     O_R   0.728250 0.500010 0.412160 -0.613435
O7    O     O_R   0.271750 0.500010 0.358510 -0.609430
O8    O     O_R   0.728250 0.499990 0.641490 -0.609429
Zn1   Zn    Zn3+2 0.500000 0.499980 0.653120 0.991918
Zn2   Zn    Zn3+2 0.500000 0.500020 0.346880 0.991918
Cl1   Cl    Cl    0.758067 0.863271 0.355223 -0.635771
Cl2   Cl    Cl    0.241932 0.136729 0.644775 -0.635770
N3    N     N_2   0.698498 0.662623 0.883919 -0.253898
H7    H     H_    0.677112 0.755539 0.904255 0.232249
C17   C     C_3   0.864367 0.632380 0.916577 -0.749171
H8    H     H_    0.907602 0.649215 0.027185 0.225416
H9    H     H_    0.932632 0.692790 0.855135 0.250596
H10   H     H_    0.885034 0.532584 0.891595 0.246575
N4    N     N_2   0.301503 0.337375 0.116081 -0.253898
H11   H     H_    0.322893 0.244460 0.095745 0.232249
C18   C     C_3   0.135635 0.367615 0.083423 -0.749182
H12   H     H_    0.092403 0.350786 0.972814 0.225418
H13   H     H_    0.114962 0.467408 0.108412 0.246578
H14   H     H_    0.067370 0.307199 0.144858 0.250597

loop_
_geom_bond_atom_site_label_1
_geom_bond_atom_site_label_2
_ccdc_geom_bond_type
C14   N1    A    
C3    O7    A    
N4    H11   S    
C7    C9    A    
N3    H7    S    
N4    C18   S    
C16   N2    A    
O8    Zn1   S    
C14   H6    S    
C15   N1    A    
O7    Zn2   S    
C13   H5    S    
C2    O2    A    
C4    O8    A    
C18   H12   S    
C1    O1    A    
C9    C11   A    
C16   N4    S    
C3    O5    A    
C8    H4    S    
C1    C12   S    
C10   C12   A    
C8    C11   A    
C2    C11   S    
C4    C6    S    
O4    Zn1   S    
C17   H10   S    
C7    H3    S    
C13   C15   A    
O3    Zn2   S    
C5    C6    D    
C6    H2    S    
C14   C16   A    
C7    C12   A    
C18   H14   S    
C5    H1    S    
O6    Zn2   S    
C9    Cl1   S    
O5    Zn1   S    
N3    C17   S    
C17   H9    S    
C18   H13   S    
C17   H8    S    
C1    O3    A    
C2    O4    A    
C15   N3    S    
C10   Cl2   S    
C3    C5    S    
O2    Zn2   S    
C8    C10   A    
C4    O6    A    
C13   N2    A    
O1    Zn1   S    
N1    Zn1   S    
N2    Zn2   S    
