data_mof_unit_33315.cif
_audit_creation_date              2012-12-10T18:48:41-0500
_audit_creation_method            fapswitch 2.2
_symmetry_space_group_name_H-M    P1
_symmetry_Int_Tables_number       1
_space_group_crystal_system       triclinic
_cell_length_a                    15.694512
_cell_length_b                    14.626374
_cell_length_c                    9.922923
_cell_angle_alpha                 89.999033
_cell_angle_beta                  89.25255
_cell_angle_gamma                 89.99933
_cell_volume                      2277.65087996

loop_
_atom_site_label
_atom_site_type_symbol
_atom_type_description
_atom_site_fract_x
_atom_site_fract_y
_atom_site_fract_z
_atom_type_partial_charge
Br1   Br    Br    0.762199 0.377718 0.224685 -0.275052
Br2   Br    Br    0.737793 0.122302 0.775321 -0.275053
Br3   Br    Br    0.711805 0.159584 0.199437 -0.266962
Br4   Br    Br    0.288176 0.840442 0.800556 -0.266966
Br5   Br    Br    0.737802 0.877700 0.775320 -0.275043
Br6   Br    Br    0.262201 0.122301 0.224675 -0.275050
Br7   Br    Br    0.288166 0.159548 0.800552 -0.266972
Br8   Br    Br    0.711832 0.840450 0.199444 -0.266996
Br9   Br    Br    0.237793 0.622302 0.775321 -0.275053
Br10  Br    Br    0.211805 0.659583 0.199437 -0.266962
Br11  Br    Br    0.788176 0.340442 0.800556 -0.266966
Br12  Br    Br    0.237802 0.377700 0.775320 -0.275043
Br13  Br    Br    0.762201 0.622301 0.224675 -0.275050
Br14  Br    Br    0.788166 0.659548 0.800552 -0.266972
Br15  Br    Br    0.211832 0.340450 0.199444 -0.266996
Br16  Br    Br    0.262199 0.877718 0.224685 -0.275052
C1    C     C_R   0.125801 0.386854 0.498951 0.966930
C2    C     C_R   0.002931 0.419194 0.928383 -0.006330
C3    C     C_R   0.997078 0.419194 0.071620 -0.006335
C4    C     C_R   0.002922 0.580806 0.928380 -0.006317
C5    C     C_R   0.497066 0.080806 0.071616 -0.006328
C6    C     C_R   0.502931 0.919194 0.928383 -0.006330
C7    C     C_R   0.497078 0.919193 0.071620 -0.006335
C8    C     C_R   0.502922 0.080806 0.928380 -0.006317
C9    C     C_R   0.766338 0.298460 0.380474 0.209454
C10   C     C_R   0.233652 0.701557 0.619526 0.209446
C11   C     C_R   0.222877 0.716587 0.374879 0.263523
C12   C     C_R   0.874199 0.613146 0.501049 0.966940
C13   C     C_R   0.777111 0.283431 0.625120 0.263537
C14   C     C_R   0.233658 0.298449 0.619526 0.209455
C15   C     C_R   0.766342 0.701550 0.380471 0.209452
C16   C     C_R   0.777109 0.716568 0.625119 0.263539
C17   C     C_R   0.222890 0.283430 0.374879 0.263540
C18   C     C_R   0.266338 0.798460 0.380474 0.209454
C19   C     C_R   0.733652 0.201557 0.619526 0.209446
C20   C     C_R   0.722877 0.216587 0.374879 0.263523
C21   C     C_R   0.277110 0.783431 0.625120 0.263537
C22   C     C_R   0.733658 0.798449 0.619526 0.209455
C23   C     C_R   0.874200 0.386852 0.501050 0.966923
C24   C     C_R   0.266342 0.201550 0.380471 0.209452
C25   C     C_R   0.277109 0.216567 0.625119 0.263539
C26   C     C_R   0.722890 0.783430 0.374879 0.263540
C27   C     C_R   0.198832 0.673366 0.496495 -0.317758
C28   C     C_R   0.801160 0.326647 0.503505 -0.317757
C29   C     C_R   0.801159 0.673354 0.503503 -0.317757
C30   C     C_R   0.198841 0.326645 0.496496 -0.317755
C31   C     C_R   0.698832 0.173367 0.496495 -0.317758
C32   C     C_R   0.301160 0.826647 0.503505 -0.317757
C33   C     C_R   0.301159 0.173353 0.503503 -0.317757
C34   C     C_R   0.125797 0.613152 0.498950 0.966938
C35   C     C_R   0.698841 0.826645 0.496496 -0.317755
C36   C     C_2   0.975415 0.669297 0.138232 1.016967
C37   C     C_2   0.024568 0.330701 0.861764 1.017055
C38   C     C_2   0.975444 0.330700 0.138243 1.017081
C39   C     C_2   0.024557 0.669300 0.861760 1.017073
C40   C     C_2   0.475415 0.169296 0.138232 1.016967
C41   C     C_2   0.524568 0.830701 0.861764 1.017055
C42   C     C_2   0.475444 0.830700 0.138243 1.017081
C43   C     C_2   0.524557 0.169300 0.861760 1.017073
C44   C     C_R   0.625801 0.886854 0.498951 0.966930
C45   C     C_R   0.374199 0.113146 0.501049 0.966940
C46   C     C_R   0.374200 0.886852 0.501050 0.966923
C47   C     C_R   0.625798 0.113152 0.498950 0.966938
C48   C     C_R   0.997066 0.580806 0.071616 -0.006328
H1    H     H_    0.905401 0.785042 0.131951 0.379148
H2    H     H_    0.094578 0.214960 0.868020 0.379155
H3    H     H_    0.905433 0.214958 0.132006 0.379136
H4    H     H_    0.094568 0.785040 0.868015 0.379155
H5    H     H_    0.405401 0.285042 0.131951 0.379148
H6    H     H_    0.594578 0.714960 0.868020 0.379155
H7    H     H_    0.405433 0.714958 0.132006 0.379136
H8    H     H_    0.594568 0.285040 0.868015 0.379155
N1    N     N_R   0.000000 0.500000 0.857200 -0.152498
N2    N     N_R   1.000000 0.500000 0.142800 -0.152489
N3    N     N_R   0.500000 0.000000 0.857200 -0.152498
N4    N     N_R   0.500000 0.000000 0.142800 -0.152489
O1    O     O_R   0.091610 0.408380 0.614620 -0.600962
O2    O     O_R   0.408390 0.091620 0.385380 -0.600939
O3    O     O_R   0.408390 0.091620 0.614620 -0.554800
O4    O     O_R   0.591610 0.908380 0.385380 -0.554798
O5    O     O_R   0.408390 0.908380 0.385380 -0.600971
O6    O     O_R   0.591610 0.091620 0.614620 -0.600966
O7    O     O_R   0.591610 0.091620 0.385380 -0.554785
O8    O     O_R   0.408390 0.908380 0.614620 -0.554795
O9    O     O_2   0.014268 0.696677 0.235489 -0.551157
O10   O     O_R   0.913187 0.725318 0.081402 -0.732409
O11   O     O_2   0.985701 0.303314 0.764544 -0.551184
O12   O     O_R   0.908390 0.591620 0.385380 -0.600939
O13   O     O_R   0.086799 0.274681 0.918563 -0.732449
O14   O     O_2   0.014314 0.303310 0.235460 -0.551188
O15   O     O_R   0.913214 0.274682 0.081453 -0.732445
O16   O     O_2   0.985690 0.696688 0.764540 -0.551182
O17   O     O_R   0.086785 0.725320 0.918562 -0.732465
O18   O     O_2   0.514268 0.196677 0.235489 -0.551157
O19   O     O_R   0.413187 0.225318 0.081402 -0.732409
O20   O     O_2   0.485701 0.803314 0.764544 -0.551184
O21   O     O_R   0.586799 0.774681 0.918563 -0.732449
O22   O     O_2   0.514314 0.803310 0.235460 -0.551188
O23   O     O_R   0.908390 0.591620 0.614620 -0.554800
O24   O     O_R   0.413214 0.774683 0.081453 -0.732445
O25   O     O_2   0.485690 0.196688 0.764540 -0.551182
O26   O     O_R   0.586785 0.225320 0.918562 -0.732465
O27   O     O_R   0.091610 0.408380 0.385380 -0.554798
O28   O     O_R   0.908390 0.408380 0.385380 -0.600971
O29   O     O_R   0.091610 0.591620 0.614620 -0.600966
O30   O     O_R   0.091610 0.591620 0.385380 -0.554785
O31   O     O_R   0.908390 0.408380 0.614620 -0.554795
O32   O     O_R   0.591610 0.908380 0.614620 -0.600962
Zn1   Zn    Zn3+2 1.000000 0.500000 0.653120 1.091231
Zn2   Zn    Zn3+2 1.000000 0.500000 0.346880 1.091236
Zn3   Zn    Zn3+2 0.500000 1.000000 0.653120 1.091231
Zn4   Zn    Zn3+2 0.500000 0.000000 0.346880 1.091236

loop_
_geom_bond_atom_site_label_1
_geom_bond_atom_site_label_2
_ccdc_geom_bond_type
Br2   C19   S    
Br10  C11   S    
C40   O19   S    
C15   C26   A    
C7    C42   S    
C16   C29   A    
C42   O22   D    
C7    N4    A    
C39   O17   S    
C19   C31   A    
C6    C41   S    
H1    O10   S    
C40   O18   D    
C5    N4    A    
O27   Zn2   S    
C36   O9    D    
Br8   C26   S    
C38   O14   D    
C31   C47   S    
C24   C33   A    
O23   Zn1   S    
C20   C31   A    
C2    C3    A    
C46   O8    A    
C2    C37   S    
Br16  C18   S    
C41   O20   D    
C10   C27   A    
C34   O29   A    
C14   C25   A    
C16   C22   A    
O8    Zn3   S    
C44   O32   A    
H6    O21   S    
C26   C35   A    
O12   Zn2   S    
Br5   C22   S    
Br1   C9    S    
C17   C30   A    
O31   Zn1   S    
C6    N3    A    
C4    C39   S    
C9    C28   A    
C25   C33   A    
Br13  C15   S    
Br9   C10   S    
H2    O13   S    
C11   C18   A    
C12   C29   S    
C17   C24   A    
C33   C45   S    
H3    O15   S    
C47   O6    A    
C43   O25   D    
C23   O28   A    
C42   O24   S    
C1    C30   S    
C37   O11   D    
C36   C48   S    
C22   C35   A    
C47   O7    A    
C4    C48   A    
C23   O31   A    
C12   O12   A    
C39   O16   D    
C32   C46   S    
O5    Zn4   S    
C45   O2    A    
N4    Zn4   S    
C41   O21   S    
O4    Zn4   S    
C1    O1    A    
C27   C34   S    
C8    N3    A    
C21   C32   A    
O1    Zn1   S    
C3    C38   S    
C46   O5    A    
C2    N1    A    
C13   C28   A    
C37   O13   S    
Br6   C24   S    
C18   C32   A    
C12   O23   A    
O30   Zn2   S    
O29   Zn1   S    
C44   O4    A    
Br12  C14   S    
C6    C7    A    
C43   O26   S    
C14   C30   A    
C3    N2    A    
Br14  C16   S    
H5    O19   S    
N2    Zn2   S    
C5    C40   S    
C10   C21   A    
N1    Zn1   S    
C23   C28   S    
H7    O24   S    
C13   C19   A    
N3    Zn3   S    
H4    O17   S    
O32   Zn3   S    
O3    Zn3   S    
O6    Zn3   S    
C36   O10   S    
C1    O27   A    
C38   O15   S    
O28   Zn2   S    
H8    O26   S    
Br3   C20   S    
C45   O3    A    
C8    C43   S    
C4    N1    A    
Br7   C25   S    
C9    C20   A    
C11   C27   A    
Br4   C21   S    
Br11  C13   S    
C15   C29   A    
C5    C8    A    
C34   O30   A    
C48   N2    A    
O7    Zn4   S    
O2    Zn4   S    
C35   C44   S    
Br15  C17   S    
