data_mof_unit_33583.cif
_audit_creation_date              2012-10-26T19:02:36-0400
_audit_creation_method            fapswitch 2.2
_symmetry_space_group_name_H-M    P1
_symmetry_Int_Tables_number       1
_space_group_crystal_system       triclinic
_cell_length_a                    17.29798
_cell_length_b                    8.688705
_cell_length_c                    7.440372
_cell_angle_alpha                 102.911729
_cell_angle_beta                  90.229616
_cell_angle_gamma                 93.002123
_cell_volume                      1088.35340788

loop_
_atom_site_label
_atom_site_type_symbol
_atom_type_description
_atom_site_fract_x
_atom_site_fract_y
_atom_site_fract_z
_atom_type_partial_charge
C1    C     C_R   0.497632 0.199750 0.453660 0.551421
C2    C     C_R   0.775377 0.456467 0.605484 -0.128186
C3    C     C_R   0.145066 0.551679 0.405486 -0.108283
C4    C     C_R   0.854934 0.448321 0.594514 -0.108283
C5    C     C_R   0.107104 0.531702 0.565482 0.044580
C6    C     C_R   0.892896 0.468298 0.434518 0.044580
C7    C     C_R   0.150199 0.513103 0.718392 -0.113886
C8    C     C_R   0.849801 0.486897 0.281608 -0.113886
C9    C     C_R   0.230386 0.505868 0.707868 -0.129099
C10   C     C_R   0.769614 0.494132 0.292132 -0.129099
C11   C     C_2   0.022561 0.528442 0.574916 -0.133419
C12   C     C_R   0.502367 0.800250 0.546340 0.551421
C13   C     C_2   0.977439 0.471558 0.425084 -0.133419
C14   C     C_2   0.496506 0.031917 0.427504 -0.154835
C15   C     C_2   0.503494 0.968083 0.572496 -0.154835
C16   C     C_R   0.351293 0.505377 0.526569 0.545768
C17   C     C_R   0.648707 0.494623 0.473431 0.545769
C18   C     C_R   0.267734 0.517901 0.544203 0.016997
C19   C     C_R   0.732266 0.482099 0.455797 0.016997
C20   C     C_R   0.224623 0.543533 0.394516 -0.128186
Cu1   Cu    Cu3+1 0.508700 0.517250 0.683000 0.955339
Cu2   Cu    Cu3+1 0.491300 0.482750 0.317000 0.955339
H1    H     H_    0.252295 0.557624 0.268369 0.128095
H2    H     H_    0.510078 0.039484 0.712311 0.134710
H3    H     H_    0.439177 0.379246 0.958135 0.237877
H4    H     H_    0.560823 0.620754 0.041865 0.237877
H5    H     H_    0.737217 0.512039 0.174273 0.121780
H6    H     H_    0.262783 0.487961 0.825727 0.121780
H7    H     H_    0.747705 0.442375 0.731631 0.128095
H8    H     H_    0.002662 0.429933 0.290751 0.114040
H9    H     H_    0.997338 0.570067 0.709249 0.114040
H10   H     H_    0.121600 0.500020 0.843859 0.096434
H11   H     H_    0.878400 0.499980 0.156141 0.096434
H12   H     H_    0.886350 0.426060 0.711389 0.099374
H13   H     H_    0.113649 0.573940 0.288610 0.099374
H14   H     H_    0.489922 0.960516 0.287689 0.134710
N1    N     N_2   0.478180 0.456750 0.041980 -0.259406
N2    N     N_2   0.521820 0.543250 0.958020 -0.259406
O1    O     O_R   0.505650 0.286040 0.618880 -0.505876
O2    O     O_R   0.494350 0.713960 0.381120 -0.505876
O3    O     O_R   0.490960 0.256910 0.309800 -0.496171
O4    O     O_R   0.509040 0.743090 0.690200 -0.496171
O5    O     O_R   0.394600 0.516230 0.672450 -0.509502
O6    O     O_R   0.605400 0.483770 0.327550 -0.509502
O7    O     O_R   0.379910 0.487100 0.363380 -0.507750
O8    O     O_R   0.620090 0.512900 0.636620 -0.507750

loop_
_geom_bond_atom_site_label_1
_geom_bond_atom_site_label_2
_ccdc_geom_bond_type
C10   H5    S    
C12   O2    A    
C2    C4    A    
C20   H1    S    
N1    N2    D    
C7    H10   S    
C13   H8    S    
Cu1   O1    S    
C12   C15   S    
C3    H13   S    
C10   C19   A    
Cu2   O2    S    
C17   O6    A    
C11   H9    S    
C3    C20   A    
Cu1   Cu2   S    
C6    C13   S    
C11   C13   D    
C16   O5    A    
C2    H7    S    
C8    C10   A    
C15   H2    S    
C17   C19   S    
C5    C11   S    
C18   C20   A    
C8    H11   S    
C14   H14   S    
C4    H12   S    
Cu2   O3    S    
C1    O1    A    
C16   O7    A    
C12   O4    A    
Cu1   O4    S    
Cu1   O8    S    
C7    C9    A    
C9    C18   A    
Cu2   O7    S    
C17   O8    A    
C16   C18   S    
C4    C6    A    
C1    O3    A    
C5    C7    A    
C14   C15   D    
H4    N2    S    
C6    C8    A    
C1    C14   S    
H3    N1    S    
C2    C19   A    
Cu1   O5    S    
Cu2   N1    S    
Cu2   O6    S    
Cu1   N2    S    
C9    H6    S    
C3    C5    A    
