data_mof_unit_63335.cif
_audit_creation_date              2012-12-10T18:30:54-0500
_audit_creation_method            fapswitch 2.2
_symmetry_space_group_name_H-M    P1
_symmetry_Int_Tables_number       1
_space_group_crystal_system       tetragonal
_cell_length_a                    18.243588
_cell_length_b                    18.243588
_cell_length_c                    42.949913
_cell_angle_alpha                 90.0
_cell_angle_beta                  90.0
_cell_angle_gamma                 90.0
_cell_volume                      14294.9552527

loop_
_atom_site_label
_atom_site_type_symbol
_atom_type_description
_atom_site_fract_x
_atom_site_fract_y
_atom_site_fract_z
_atom_type_partial_charge
C1    C     C_R   1.000000 0.500000 0.665823 0.799360
C2    C     C_R   0.500000 0.000000 0.131536 -0.009093
C3    C     C_3   0.198294 0.699686 0.750772 0.091478
C4    C     C_3   0.300314 0.801706 0.750772 0.091479
C5    C     C_3   0.198294 0.300314 0.249228 0.091478
C6    C     C_3   0.699686 0.198294 0.750772 0.091478
C7    C     C_3   0.801706 0.699686 0.249228 0.091478
C8    C     C_R   0.066318 0.503230 0.884990 -0.183484
C9    C     C_R   0.503230 0.933682 0.115010 -0.183484
C10   C     C_R   0.933682 0.496770 0.884990 -0.183484
C11   C     C_R   0.496770 0.066318 0.115010 -0.183484
C12   C     C_R   0.933682 0.503230 0.115010 -0.183483
C13   C     C_R   0.000000 0.500000 0.131536 -0.009093
C14   C     C_R   0.496770 0.933682 0.884990 -0.183483
C15   C     C_R   0.066318 0.496770 0.115010 -0.183483
C16   C     C_R   0.503230 0.066318 0.884990 -0.183484
C17   C     C_R   0.566318 0.003230 0.384990 -0.183483
C18   C     C_R   0.003230 0.433682 0.615010 -0.183484
C19   C     C_R   0.433682 0.996770 0.384990 -0.183483
C20   C     C_R   0.996770 0.566318 0.615010 -0.183483
C21   C     C_R   0.433682 0.003230 0.615010 -0.183483
C22   C     C_R   0.996770 0.433682 0.384990 -0.183482
C23   C     C_R   0.566318 0.996770 0.615010 -0.183483
C24   C     C_R   0.500000 0.000000 0.868464 -0.009092
C25   C     C_R   0.003230 0.566318 0.384990 -0.183483
C26   C     C_R   0.066327 0.503192 0.917451 -0.153813
C27   C     C_R   0.503192 0.933673 0.082548 -0.153813
C28   C     C_R   0.933673 0.496808 0.917451 -0.153813
C29   C     C_R   0.496809 0.066327 0.082548 -0.153813
C30   C     C_R   0.933673 0.503191 0.082548 -0.153813
C31   C     C_R   0.496809 0.933673 0.917451 -0.153812
C32   C     C_R   0.066327 0.496809 0.082548 -0.153813
C33   C     C_R   0.503192 0.066327 0.917451 -0.153813
C34   C     C_R   0.566327 0.003191 0.417451 -0.153813
C35   C     C_R   0.500000 1.000000 0.368464 -0.009095
C36   C     C_R   0.003192 0.433673 0.582548 -0.153813
C37   C     C_R   0.433673 0.996809 0.417451 -0.153813
C38   C     C_R   0.996808 0.566327 0.582548 -0.153813
C39   C     C_R   0.433673 0.003191 0.582548 -0.153813
C40   C     C_R   0.996809 0.433673 0.417451 -0.153813
C41   C     C_R   0.566327 0.996808 0.582548 -0.153813
C42   C     C_R   0.003191 0.566327 0.417451 -0.153813
C43   C     C_R   0.000000 0.500000 0.934028 0.078574
C44   C     C_R   0.500000 0.000000 0.065972 0.078574
C45   C     C_R   0.000000 0.500000 0.065972 0.078574
C46   C     C_R   0.000000 0.500000 0.631536 -0.009094
C47   C     C_R   0.500000 0.000000 0.934028 0.078574
C48   C     C_R   0.500000 0.000000 0.434028 0.078574
C49   C     C_R   0.000000 0.500000 0.565971 0.078574
C50   C     C_R   0.500000 0.000000 0.565971 0.078573
C51   C     C_R   1.000000 0.500000 0.434028 0.078573
C52   C     C_2   0.200426 0.311326 0.688875 0.956944
C53   C     C_2   0.311333 0.799568 0.311125 0.956938
C54   C     C_2   0.799571 0.688671 0.688875 0.956942
C55   C     C_2   0.688676 0.200426 0.311125 0.956949
C56   C     C_2   0.799571 0.311331 0.311125 0.956938
C57   C     C_R   0.500000 0.000000 0.631536 -0.009094
C58   C     C_2   0.688671 0.799571 0.688875 0.956943
C59   C     C_2   0.200429 0.688672 0.311125 0.956945
C60   C     C_2   0.311326 0.200426 0.688875 0.956944
C61   C     C_2   0.700426 0.811326 0.188875 0.956944
C62   C     C_2   0.811322 0.299578 0.811125 0.956948
C63   C     C_2   0.299574 0.188674 0.188875 0.956945
C64   C     C_2   0.188675 0.700425 0.811125 0.956944
C65   C     C_2   0.299575 0.811324 0.811125 0.956945
C66   C     C_2   0.188674 0.299574 0.188875 0.956944
C67   C     C_2   0.700423 0.188677 0.811125 0.956946
C68   C     C_R   0.000000 0.500000 0.368464 -0.009095
C69   C     C_2   0.811326 0.700426 0.188875 0.956944
C70   C     C_R   0.500000 0.000000 0.531606 0.294244
C71   C     C_R   0.000000 0.500000 0.468394 0.294244
C72   C     C_R   0.500000 0.000000 0.468394 0.294244
C73   C     C_R   0.500000 0.000000 0.334176 0.799360
C74   C     C_R   1.000000 0.500000 0.531606 0.294244
C75   C     C_R   0.000000 0.500000 0.031606 0.294244
C76   C     C_R   0.500000 0.000000 0.968394 0.294244
C77   C     C_R   0.000000 0.500000 0.968394 0.294244
C78   C     C_R   0.500000 0.000000 0.031606 0.294244
C79   C     C_R   0.141206 0.641359 0.750062 0.759841
C80   C     C_R   0.641359 0.858794 0.249937 0.759844
C81   C     C_R   0.858794 0.358640 0.750063 0.759841
C82   C     C_R   0.358641 0.141206 0.249937 0.759842
C83   C     C_R   0.858794 0.641359 0.249937 0.759843
C84   C     C_R   0.000000 0.500000 0.334176 0.799359
C85   C     C_R   0.358640 0.858794 0.750062 0.759842
C86   C     C_R   0.141206 0.358641 0.249937 0.759842
C87   C     C_R   0.641359 0.141206 0.750063 0.759841
C88   C     C_R   0.641206 0.141359 0.250063 0.759843
C89   C     C_R   0.141359 0.358794 0.749937 0.759841
C90   C     C_R   0.358793 0.858641 0.250062 0.759844
C91   C     C_R   0.858641 0.641206 0.749937 0.759843
C92   C     C_R   0.358794 0.141359 0.749937 0.759842
C93   C     C_R   0.858641 0.358793 0.250063 0.759843
C94   C     C_R   0.641206 0.858641 0.749937 0.759842
C95   C     C_R   0.500000 0.000000 0.665823 0.799360
C96   C     C_R   0.141359 0.641207 0.250062 0.759843
C97   C     C_3   0.164774 0.224448 0.752606 -0.365482
C98   C     C_3   0.224448 0.835226 0.247395 -0.365479
C99   C     C_3   0.835226 0.775552 0.752606 -0.365482
C100  C     C_3   0.775552 0.164774 0.247393 -0.365485
C101  C     C_3   0.835226 0.224448 0.247394 -0.365479
C102  C     C_3   0.775552 0.835226 0.752606 -0.365482
C103  C     C_3   0.164774 0.775552 0.247394 -0.365484
C104  C     C_3   0.224448 0.164774 0.752606 -0.365482
C105  C     C_3   0.664774 0.724448 0.252606 -0.365480
C106  C     C_R   0.500000 1.000000 0.165823 0.799359
C107  C     C_3   0.724449 0.335225 0.747392 -0.365482
C108  C     C_3   0.335225 0.275552 0.252606 -0.365481
C109  C     C_3   0.275552 0.664775 0.747393 -0.365481
C110  C     C_3   0.335225 0.724448 0.747393 -0.365481
C111  C     C_3   0.275552 0.335225 0.252607 -0.365481
C112  C     C_3   0.664775 0.275551 0.747392 -0.365482
C113  C     C_3   0.724448 0.664774 0.252606 -0.365481
C114  C     C_3   0.246040 0.306893 0.718509 -0.256712
C115  C     C_3   0.306895 0.753957 0.281490 -0.256711
C116  C     C_3   0.753958 0.693106 0.718509 -0.256711
C117  C     C_R   0.000000 0.500000 0.834176 0.799360
C118  C     C_3   0.693107 0.246040 0.281491 -0.256712
C119  C     C_3   0.753958 0.306894 0.281491 -0.256711
C120  C     C_3   0.693106 0.753958 0.718509 -0.256711
C121  C     C_3   0.246042 0.693106 0.281490 -0.256710
C122  C     C_3   0.306893 0.246040 0.718509 -0.256713
C123  C     C_3   0.746040 0.806893 0.218509 -0.256711
C124  C     C_3   0.806891 0.253962 0.781492 -0.256713
C125  C     C_3   0.253960 0.193107 0.218509 -0.256711
C126  C     C_3   0.193108 0.746040 0.781492 -0.256712
C127  C     C_3   0.253960 0.806892 0.781492 -0.256712
C128  C     C_R   0.500000 0.000000 0.834176 0.799360
C129  C     C_3   0.193107 0.253960 0.218509 -0.256712
C130  C     C_3   0.746038 0.193109 0.781492 -0.256712
C131  C     C_3   0.806893 0.746040 0.218509 -0.256711
C132  C     C_3   0.252833 0.312364 0.777231 -0.402011
C133  C     C_3   0.312361 0.747169 0.222768 -0.402013
C134  C     C_3   0.747168 0.687637 0.777232 -0.402012
C135  C     C_3   0.687636 0.252833 0.222769 -0.402011
C136  C     C_3   0.747168 0.312363 0.222768 -0.402014
C137  C     C_3   0.687637 0.747168 0.777232 -0.402013
C138  C     C_3   0.252831 0.687638 0.222768 -0.402011
C139  C     C_R   0.000000 0.500000 0.165823 0.799360
C140  C     C_3   0.312364 0.252833 0.777231 -0.402010
C141  C     C_3   0.752833 0.812364 0.277231 -0.402013
C142  C     C_3   0.812366 0.247165 0.722770 -0.402011
C143  C     C_3   0.247167 0.187636 0.277231 -0.402013
C144  C     C_3   0.187635 0.752834 0.722769 -0.402012
C145  C     C_3   0.247166 0.812365 0.722769 -0.402012
C146  C     C_3   0.187636 0.247167 0.277231 -0.402013
C147  C     C_3   0.752835 0.187634 0.722770 -0.402012
C148  C     C_3   0.812364 0.752833 0.277231 -0.402010
C149  C     C_3   0.199686 0.301706 0.749228 0.091479
C150  C     C_R   0.000000 0.500000 0.868464 -0.009092
C151  C     C_3   0.301706 0.800314 0.250771 0.091477
C152  C     C_3   0.800314 0.698294 0.749228 0.091478
C153  C     C_3   0.698294 0.199686 0.250771 0.091479
C154  C     C_3   0.800314 0.301706 0.250771 0.091477
C155  C     C_3   0.698294 0.800314 0.749228 0.091478
C156  C     C_3   0.199686 0.698294 0.250771 0.091478
C157  C     C_3   0.301706 0.199686 0.749228 0.091479
C158  C     C_3   0.699686 0.801706 0.249228 0.091478
C159  C     C_3   0.801706 0.300314 0.750772 0.091478
C160  C     C_3   0.300314 0.198294 0.249228 0.091479
H1    H     H_    0.124883 0.213328 0.733679 0.229578
H2    H     H_    0.713327 0.375118 0.766319 0.229577
H3    H     H_    0.494198 0.118378 0.070488 0.158327
H4    H     H_    0.881622 0.505801 0.070488 0.158328
H5    H     H_    0.494198 0.881622 0.929512 0.158327
H6    H     H_    0.118378 0.494198 0.070488 0.158327
H7    H     H_    0.505802 0.118378 0.929512 0.158327
H8    H     H_    0.618378 0.005801 0.429512 0.158328
H9    H     H_    0.005802 0.381622 0.570488 0.158328
H10   H     H_    0.381622 0.994199 0.429512 0.158328
H11   H     H_    0.994198 0.618378 0.570488 0.158328
H12   H     H_    0.381622 0.005802 0.570488 0.158327
H13   H     H_    0.375117 0.286672 0.233679 0.229578
H14   H     H_    0.994199 0.381622 0.429512 0.158328
H15   H     H_    0.618378 0.994199 0.570488 0.158328
H16   H     H_    0.005801 0.618378 0.429512 0.158327
H17   H     H_    0.173727 0.370468 0.650830 0.345573
H18   H     H_    0.370480 0.826262 0.349169 0.345573
H19   H     H_    0.826268 0.629528 0.650830 0.345573
H20   H     H_    0.629536 0.173725 0.349170 0.345573
H21   H     H_    0.826265 0.370477 0.349169 0.345573
H22   H     H_    0.629528 0.826268 0.650830 0.345573
H23   H     H_    0.173732 0.629529 0.349169 0.345573
H24   H     H_    0.286673 0.624883 0.766320 0.229578
H25   H     H_    0.370468 0.173727 0.650830 0.345573
H26   H     H_    0.673728 0.870468 0.150830 0.345572
H27   H     H_    0.870460 0.326279 0.849171 0.345572
H28   H     H_    0.326272 0.129532 0.150830 0.345572
H29   H     H_    0.129534 0.673726 0.849170 0.345573
H30   H     H_    0.326275 0.870465 0.849170 0.345573
H31   H     H_    0.129532 0.326273 0.150830 0.345573
H32   H     H_    0.673722 0.129538 0.849171 0.345572
H33   H     H_    0.870468 0.673728 0.150830 0.345573
H34   H     H_    0.375117 0.713327 0.766320 0.229578
H35   H     H_    0.286672 0.375117 0.233679 0.229578
H36   H     H_    0.624883 0.286673 0.766319 0.229578
H37   H     H_    0.713328 0.624883 0.233679 0.229578
H38   H     H_    0.133386 0.221436 0.774802 0.157011
H39   H     H_    0.221434 0.866618 0.225201 0.157010
H40   H     H_    0.866615 0.778565 0.774801 0.157011
H41   H     H_    0.213329 0.875114 0.266324 0.229581
H42   H     H_    0.778565 0.133387 0.225198 0.157013
H43   H     H_    0.866617 0.221435 0.225200 0.157010
H44   H     H_    0.778565 0.866615 0.774801 0.157011
H45   H     H_    0.133385 0.778566 0.225199 0.157013
H46   H     H_    0.221436 0.133386 0.774802 0.157011
H47   H     H_    0.633385 0.721436 0.274802 0.157013
H48   H     H_    0.721438 0.366612 0.725196 0.157012
H49   H     H_    0.366614 0.278564 0.274802 0.157011
H50   H     H_    0.278563 0.633386 0.725198 0.157011
H51   H     H_    0.366613 0.721437 0.725197 0.157012
H52   H     H_    0.875116 0.786672 0.733678 0.229578
H53   H     H_    0.278564 0.366614 0.274802 0.157012
H54   H     H_    0.633387 0.278562 0.725197 0.157012
H55   H     H_    0.721436 0.633386 0.274802 0.157012
H56   H     H_    0.279494 0.367199 0.776047 0.192945
H57   H     H_    0.367197 0.720510 0.223950 0.192947
H58   H     H_    0.720508 0.632802 0.776049 0.192946
H59   H     H_    0.632802 0.279494 0.223952 0.192945
H60   H     H_    0.720509 0.367198 0.223951 0.192947
H61   H     H_    0.632802 0.720508 0.776049 0.192946
H62   H     H_    0.279492 0.632803 0.223951 0.192946
H63   H     H_    0.786672 0.124882 0.266321 0.229575
H64   H     H_    0.367199 0.279494 0.776047 0.192945
H65   H     H_    0.779493 0.867199 0.276048 0.192945
H66   H     H_    0.867201 0.220504 0.723954 0.192943
H67   H     H_    0.220507 0.132801 0.276047 0.192945
H68   H     H_    0.132800 0.779494 0.723953 0.192944
H69   H     H_    0.220506 0.867200 0.723953 0.192944
H70   H     H_    0.132801 0.220507 0.276047 0.192945
H71   H     H_    0.779495 0.132799 0.723954 0.192944
H72   H     H_    0.867199 0.779493 0.276048 0.192944
H73   H     H_    0.221903 0.309906 0.799561 0.191547
H74   H     H_    0.875114 0.213328 0.266323 0.229581
H75   H     H_    0.309900 0.778102 0.200438 0.191546
H76   H     H_    0.778100 0.690096 0.799561 0.191548
H77   H     H_    0.690094 0.221902 0.200439 0.191548
H78   H     H_    0.778100 0.309902 0.200438 0.191548
H79   H     H_    0.690096 0.778100 0.799561 0.191548
H80   H     H_    0.221899 0.690097 0.200438 0.191546
H81   H     H_    0.309906 0.221903 0.799561 0.191547
H82   H     H_    0.721903 0.809905 0.299561 0.191548
H83   H     H_    0.809910 0.278093 0.700439 0.191549
H84   H     H_    0.278097 0.190094 0.299561 0.191548
H85   H     H_    0.786672 0.875116 0.733678 0.229578
H86   H     H_    0.190093 0.721904 0.700439 0.191548
H87   H     H_    0.278096 0.809907 0.700439 0.191549
H88   H     H_    0.190094 0.278097 0.299561 0.191548
H89   H     H_    0.721906 0.190091 0.700439 0.191550
H90   H     H_    0.809906 0.721903 0.299561 0.191547
H91   H     H_    0.275402 0.360443 0.719584 0.126934
H92   H     H_    0.360445 0.724595 0.280413 0.126936
H93   H     H_    0.724597 0.639556 0.719585 0.126934
H94   H     H_    0.639556 0.275401 0.280416 0.126932
H95   H     H_    0.724595 0.360443 0.280414 0.126936
H96   H     H_    0.124883 0.786671 0.266322 0.229577
H97   H     H_    0.639556 0.724597 0.719585 0.126934
H98   H     H_    0.275402 0.639555 0.280415 0.126933
H99   H     H_    0.360443 0.275402 0.719584 0.126934
H100  H     H_    0.775402 0.860443 0.219584 0.126934
H101  H     H_    0.860441 0.224600 0.780418 0.126932
H102  H     H_    0.224598 0.139557 0.219584 0.126933
H103  H     H_    0.139558 0.775401 0.780416 0.126933
H104  H     H_    0.224599 0.860442 0.780417 0.126933
H105  H     H_    0.139557 0.224598 0.219584 0.126933
H106  H     H_    0.775400 0.139559 0.780417 0.126933
H107  H     H_    0.213327 0.124883 0.733679 0.229578
H108  H     H_    0.860443 0.775402 0.219584 0.126933
H109  H     H_    0.118299 0.505908 0.872863 0.171894
H110  H     H_    0.505908 0.881700 0.127137 0.171894
H111  H     H_    0.881701 0.494092 0.872863 0.171893
H112  H     H_    0.494092 0.118299 0.127137 0.171894
H113  H     H_    0.881700 0.505907 0.127137 0.171894
H114  H     H_    0.494092 0.881701 0.872863 0.171893
H115  H     H_    0.118300 0.494092 0.127137 0.171894
H116  H     H_    0.505908 0.118299 0.872863 0.171893
H117  H     H_    0.618300 0.005908 0.372862 0.171893
H118  H     H_    0.624884 0.713328 0.233679 0.229579
H119  H     H_    0.005908 0.381700 0.627137 0.171894
H120  H     H_    0.381700 0.994093 0.372862 0.171896
H121  H     H_    0.994092 0.618299 0.627137 0.171895
H122  H     H_    0.381700 0.005908 0.627137 0.171894
H123  H     H_    0.994093 0.381700 0.372862 0.171896
H124  H     H_    0.618300 0.994092 0.627137 0.171894
H125  H     H_    0.005907 0.618300 0.372862 0.171894
H126  H     H_    0.118378 0.505802 0.929512 0.158327
H127  H     H_    0.505802 0.881622 0.070488 0.158328
H128  H     H_    0.881622 0.494198 0.929512 0.158327
N1    N     N_R   0.936000 0.499985 0.984513 -0.169955
N2    N     N_R   0.999985 0.564000 0.515486 -0.169955
N3    N     N_R   0.564000 0.000014 0.484513 -0.169955
N4    N     N_R   0.000015 0.436000 0.515486 -0.169955
N5    N     N_R   0.564000 0.999986 0.515486 -0.169955
N6    N     N_R   0.000014 0.564000 0.484513 -0.169955
N7    N     N_R   0.436000 0.000015 0.515486 -0.169955
N8    N     N_R   0.999986 0.435999 0.484513 -0.169955
N9    N     N_R   0.499986 0.064000 0.015487 -0.169955
N10   N     N_R   0.064000 0.500015 0.984513 -0.169955
N11   N     N_R   0.500015 0.936000 0.015487 -0.169955
N12   N     N_R   0.064000 0.499986 0.015487 -0.169955
N13   N     N_R   0.500015 0.064000 0.984513 -0.169955
N14   N     N_R   0.936000 0.500014 0.015487 -0.169955
N15   N     N_R   0.499986 0.936000 0.984513 -0.169955
N16   N     N_R   0.435999 0.999986 0.484513 -0.169955
O1    O     O_3   0.000000 0.500000 0.750000 -0.486237
O2    O     O_R   0.561290 0.999980 0.680680 -0.637250
O3    O     O_R   0.000020 0.561290 0.319320 -0.637250
O4    O     O_R   0.438710 0.000020 0.680680 -0.637250
O5    O     O_R   0.500020 0.938710 0.180680 -0.637250
O6    O     O_R   0.938710 0.499980 0.819320 -0.637250
O7    O     O_R   0.499980 0.061290 0.180680 -0.637250
O8    O     O_R   0.061290 0.500020 0.819320 -0.637250
O9    O     O_R   0.499980 0.938710 0.819320 -0.637250
O10   O     O_R   0.061290 0.499980 0.180680 -0.637250
O11   O     O_R   0.500020 0.061290 0.819320 -0.637250
O12   O     O_3   0.500000 0.000000 0.250000 -0.486237
O13   O     O_R   0.938710 0.500020 0.180680 -0.637250
O14   O     O_R   0.086240 0.647480 0.731820 -0.647220
O15   O     O_R   0.647480 0.913760 0.268180 -0.647221
O16   O     O_R   0.913760 0.352520 0.731820 -0.647220
O17   O     O_R   0.352520 0.086240 0.268180 -0.647221
O18   O     O_R   0.913760 0.647480 0.268180 -0.647221
O19   O     O_R   0.352520 0.913760 0.731820 -0.647220
O20   O     O_R   0.086240 0.352520 0.268180 -0.647220
O21   O     O_R   0.647480 0.086240 0.731820 -0.647220
O22   O     O_R   0.586240 0.147480 0.231820 -0.647220
O23   O     O_3   0.000000 0.500000 0.250000 -0.486237
O24   O     O_R   0.147480 0.413760 0.768180 -0.647220
O25   O     O_R   0.413760 0.852520 0.231820 -0.647221
O26   O     O_R   0.852520 0.586240 0.768180 -0.647219
O27   O     O_R   0.413760 0.147480 0.768180 -0.647220
O28   O     O_R   0.852520 0.413760 0.231820 -0.647220
O29   O     O_R   0.586240 0.852520 0.768180 -0.647220
O30   O     O_R   0.147480 0.586240 0.231820 -0.647220
O31   O     O_R   0.852520 0.413810 0.768170 -0.626174
O32   O     O_R   0.413810 0.147480 0.231830 -0.626174
O33   O     O_R   0.147480 0.586190 0.768170 -0.626174
O34   O     O_3   0.500000 0.000000 0.750000 -0.486237
O35   O     O_R   0.586190 0.852520 0.231830 -0.626174
O36   O     O_R   0.147480 0.413810 0.231830 -0.626174
O37   O     O_R   0.586190 0.147480 0.768170 -0.626174
O38   O     O_R   0.852520 0.586190 0.231830 -0.626174
O39   O     O_R   0.413810 0.852520 0.768170 -0.626174
O40   O     O_R   0.352520 0.913810 0.268170 -0.626174
O41   O     O_R   0.913810 0.647480 0.731830 -0.626175
O42   O     O_R   0.647480 0.086190 0.268170 -0.626177
O43   O     O_R   0.086190 0.352520 0.731830 -0.626175
O44   O     O_R   0.647480 0.913810 0.731830 -0.626175
O45   O     O_R   0.000020 0.438710 0.680680 -0.637250
O46   O     O_R   0.086190 0.647480 0.268170 -0.626176
O47   O     O_R   0.352520 0.086190 0.731830 -0.626175
O48   O     O_R   0.913810 0.352520 0.268170 -0.626173
O49   O     O_2   0.157222 0.262705 0.682027 -0.581329
O50   O     O_R   0.207331 0.372721 0.669612 -0.817404
O51   O     O_2   0.262713 0.842773 0.317974 -0.581328
O52   O     O_R   0.372730 0.792660 0.330386 -0.817407
O53   O     O_2   0.842775 0.737293 0.682027 -0.581329
O54   O     O_R   0.792665 0.627275 0.669613 -0.817405
O55   O     O_2   0.737299 0.157224 0.317972 -0.581331
O56   O     O_R   0.438710 0.999980 0.319320 -0.637250
O57   O     O_R   0.627281 0.207329 0.330388 -0.817403
O58   O     O_2   0.842776 0.262712 0.317973 -0.581328
O59   O     O_R   0.792662 0.372727 0.330387 -0.817406
O60   O     O_2   0.737292 0.842775 0.682027 -0.581329
O61   O     O_R   0.627275 0.792665 0.669613 -0.817404
O62   O     O_2   0.157227 0.737294 0.317973 -0.581330
O63   O     O_R   0.207334 0.627276 0.330387 -0.817405
O64   O     O_2   0.262705 0.157222 0.682027 -0.581329
O65   O     O_R   0.372721 0.207331 0.669612 -0.817404
O66   O     O_2   0.657222 0.762705 0.182027 -0.581329
O67   O     O_R   0.999980 0.561290 0.680680 -0.637250
O68   O     O_R   0.707332 0.872722 0.169612 -0.817404
O69   O     O_2   0.762700 0.342782 0.817972 -0.581329
O70   O     O_R   0.872715 0.292674 0.830389 -0.817403
O71   O     O_2   0.342778 0.237295 0.182027 -0.581330
O72   O     O_R   0.292669 0.127279 0.169612 -0.817404
O73   O     O_2   0.237296 0.657220 0.817972 -0.581329
O74   O     O_R   0.127280 0.707330 0.830388 -0.817404
O75   O     O_2   0.342780 0.762703 0.817972 -0.581329
O76   O     O_R   0.292671 0.872719 0.830388 -0.817404
O77   O     O_2   0.237295 0.342778 0.182027 -0.581329
O78   O     O_R   0.561290 0.000020 0.319320 -0.637250
O79   O     O_R   0.127279 0.292669 0.169612 -0.817404
O80   O     O_2   0.657218 0.237299 0.817972 -0.581329
O81   O     O_R   0.707327 0.127283 0.830389 -0.817403
O82   O     O_2   0.762705 0.657222 0.182027 -0.581329
O83   O     O_R   0.872721 0.707332 0.169612 -0.817405
O84   O     O_R   0.999980 0.438710 0.319320 -0.637249
Zn1   Zn    Zn3+2 0.087550 0.500010 0.775970 0.998776
Zn2   Zn    Zn3+2 0.000010 0.412450 0.724030 0.998776
Zn3   Zn    Zn3+2 0.412450 0.999990 0.275970 0.998777
Zn4   Zn    Zn3+2 0.999990 0.587550 0.724030 0.998776
Zn5   Zn    Zn3+2 0.412450 0.000010 0.724030 0.998776
Zn6   Zn    Zn3+2 0.999990 0.412450 0.275970 0.998777
Zn7   Zn    Zn3+2 0.587550 0.999990 0.724030 0.998775
Zn8   Zn    Zn3+2 0.000010 0.587550 0.275970 0.998775
Zn9   Zn    Zn3+2 0.500010 0.912450 0.224030 0.998777
Zn10  Zn    Zn3+2 0.912450 0.499990 0.775970 0.998777
Zn11  Zn    Zn3+2 0.499990 0.087550 0.224030 0.998776
Zn12  Zn    Zn3+2 0.912450 0.500010 0.224030 0.998776
Zn13  Zn    Zn3+2 0.499990 0.912450 0.775970 0.998777
Zn14  Zn    Zn3+2 0.087550 0.499990 0.224030 0.998777
Zn15  Zn    Zn3+2 0.500010 0.087550 0.775970 0.998777
Zn16  Zn    Zn3+2 0.587550 0.000010 0.275970 0.998775

loop_
_geom_bond_atom_site_label_1
_geom_bond_atom_site_label_2
_ccdc_geom_bond_type
C100  C153  S    
C9    H110  S    
C126  C127  S    
C136  H78   S    
O46   Zn8   S    
C11   H112  S    
C29   H3    S    
C30   C45   A    
C110  H51   S    
C133  C151  S    
C30   H4    S    
C104  C157  S    
O1    Zn2   S    
C3    C79   S    
C61   O68   S    
O8    Zn1   S    
O38   Zn12  S    
C15   C32   A    
C23   H124  S    
C94   O29   A    
C65   C127  S    
C72   N3    A    
C47   C76   S    
O34   Zn5   S    
C32   H6    S    
C106  O7    A    
O84   Zn6   S    
C63   O71   D    
C118  C153  S    
C107  C112  S    
O14   Zn4   S    
C75   N12   A    
O42   Zn16  S    
C19   C37   A    
C147  H71   S    
C78   N9    A    
C54   C116  S    
C125  H102  S    
C132  H56   S    
C121  H98   S    
C12   C30   A    
H30   O76   S    
C19   H120  S    
O26   Zn10  S    
C117  O8    A    
C103  H96   S    
C51   C71   S    
C58   O60   D    
C38   H11   S    
O78   Zn16  S    
O2    Zn7   S    
C69   O82   D    
O27   Zn15  S    
C120  C155  S    
C135  H77   S    
C8    C150  A    
C139  O10   A    
C82   C160  S    
C105  C158  S    
C107  H2    S    
O32   Zn11  S    
C108  H13   S    
C124  C130  S    
C15   H115  S    
C63   C125  S    
C109  H24   S    
O1    Zn4   S    
C10   H111  S    
C29   C44   A    
C33   C47   A    
C34   C48   A    
C17   C34   A    
C64   O73   D    
C13   C139  S    
O15   Zn16  S    
C61   O66   D    
C59   O62   D    
C4    C127  S    
H33   O83   S    
C111  H53   S    
C143  H67   S    
C144  C145  S    
C12   H113  S    
C84   O3    A    
C106  O5    A    
C4    C85   S    
C141  H82   S    
C23   C41   A    
C108  C111  S    
C50   C70   S    
C19   C35   A    
C40   H14   S    
C60   O65   S    
C96   C156  S    
C114  H91   S    
C126  H103  S    
O5    Zn9   S    
C85   O39   A    
C1    C46   S    
C18   H119  S    
C125  C129  S    
C103  C156  S    
O23   Zn14  S    
C115  C151  S    
C101  H74   S    
C134  H76   S    
C42   H16   S    
C92   O47   A    
C53   C115  S    
C139  O13   A    
C7    C83   S    
C115  C121  S    
C121  C156  S    
C146  H88   S    
H18   O52   S    
C14   C31   A    
C6    C130  S    
C90   O25   A    
C62   C124  S    
O34   Zn15  S    
C125  C160  S    
C143  C160  S    
C92   O27   A    
C8    H109  S    
C98   H39   S    
C105  C113  S    
N3    N5    A    
C88   O42   A    
C93   O48   A    
C140  C157  S    
O31   Zn10  S    
O67   Zn4   S    
C138  H62   S    
C128  O9    A    
C127  H104  S    
C137  C155  S    
C14   C24   A    
C85   O19   A    
C27   C44   A    
C54   O54   S    
C31   H5    S    
C94   C155  S    
C99   H40   S    
H20   O57   S    
C112  H54   S    
C22   C40   A    
O41   Zn4   S    
H19   O54   S    
C105  H118  S    
C48   C72   S    
C2    C11   A    
C65   O75   D    
O16   Zn2   S    
C62   O70   S    
C145  H87   S    
N4    N8    A    
O45   Zn2   S    
C101  H43   S    
C88   O22   A    
C93   O28   A    
C140  H64   S    
C100  H63   S    
C2    C106  S    
C116  C120  S    
C75   N14   A    
C137  H79   S    
C14   H114  S    
C80   C158  S    
C69   C131  S    
O1    Zn10  S    
C83   O18   A    
C70   N7    A    
C53   O51   D    
H26   O68   S    
O12   Zn3   S    
O17   Zn3   S    
C97   H1    S    
C56   C119  S    
O29   Zn13  S    
O34   Zn13  S    
C66   O79   S    
C52   O49   D    
C23   C57   A    
C145  H69   S    
H25   O65   S    
N2    N6    A    
C142  C147  S    
C73   O56   A    
C103  H45   S    
O40   Zn3   S    
C59   O63   S    
O10   Zn14  S    
C52   C114  S    
C128  O11   A    
O12   Zn16  S    
C99   C152  S    
H21   O59   S    
C61   C123  S    
C44   C78   S    
C6    C147  S    
O24   Zn1   S    
C67   O81   S    
C18   C36   A    
C124  H101  S    
C4    C145  S    
C5    C129  S    
C100  C101  S    
H27   O70   S    
C96   O46   A    
C25   H125  S    
C80   O15   A    
C87   O21   A    
C27   H127  S    
C28   H128  S    
O18   Zn8   S    
C12   C13   A    
C24   C128  S    
N9    N13   A    
C86   O20   A    
C2    C9    A    
C20   C46   A    
C111  H35   S    
O21   Zn7   S    
C143  C146  S    
C56   O59   S    
N1    N14   A    
C55   O55   D    
C98   H41   S    
O20   Zn6   S    
C104  H107  S    
C142  C159  S    
C16   H116  S    
C134  C137  S    
C3    C126  S    
C135  C136  S    
C38   C49   A    
C25   C68   A    
C60   O64   D    
O56   Zn3   S    
H28   O72   S    
O9    Zn13  S    
C72   N16   A    
O48   Zn6   S    
C91   C152  S    
C34   H8    S    
C120  H97   S    
C137  H61   S    
C140  H81   S    
C70   N5    A    
C102  H44   S    
C112  H36   S    
O1    Zn1   S    
C100  H42   S    
C91   O41   A    
C148  H72   S    
C104  H46   S    
C132  H73   S    
C7    C131  S    
C66   O77   D    
C116  H93   S    
C66   C129  S    
O3    Zn8   S    
C89   C149  S    
C41   H15   S    
C133  C138  S    
C31   C47   A    
C132  C149  S    
C33   H7    S    
C102  H85   S    
N10   N12   A    
C64   O74   S    
C18   C46   A    
C52   O50   S    
C76   N13   A    
C142  H66   S    
C98   C151  S    
O7    Zn11  S    
C68   C84   S    
C1    O45   A    
O35   Zn9   S    
C131  H108  S    
C1    O67   A    
C134  H58   S    
C92   C157  S    
C79   O14   A    
C41   C50   A    
C21   H122  S    
C39   H12   S    
O12   Zn9   S    
C136  C154  S    
O13   Zn12  S    
C134  C152  S    
C58   C120  S    
O4    Zn5   S    
C36   H9    S    
C60   C122  S    
C22   C68   A    
C107  H48   S    
C55   O57   S    
O28   Zn12  S    
C119  C154  S    
C64   C126  S    
C67   C130  S    
C43   C77   S    
C73   O78   A    
C40   C51   A    
C95   O4    A    
C129  H105  S    
H32   O81   S    
C9    C27   A    
C10   C28   A    
C4    C110  S    
C147  H89   S    
C123  C131  S    
C6    C112  S    
C3    C144  S    
H22   O61   S    
H29   O74   S    
C119  H95   S    
C25   C42   A    
C81   O16   A    
O33   Zn1   S    
O23   Zn8   S    
C136  H60   S    
C123  H100  S    
C132  C140  S    
C28   C43   A    
C96   O30   A    
C82   O32   A    
C87   O37   A    
C109  C110  S    
C10   C150  A    
O43   Zn2   S    
C3    C109  S    
C80   O35   A    
C90   O40   A    
C122  C157  S    
C86   O36   A    
C71   N8    A    
C97   C104  S    
O30   Zn14  S    
C130  H106  S    
C141  C158  S    
C99   C102  S    
C49   C74   S    
C82   O17   A    
C17   C35   A    
C114  C149  S    
O44   Zn7   S    
N11   N15   A    
C84   O84   A    
C76   N15   A    
C36   C49   A    
C77   N10   A    
C55   C118  S    
O11   Zn15  S    
C59   C121  S    
C81   C159  S    
C144  H86   S    
C69   O83   S    
C108  H49   S    
O25   Zn9   S    
C56   O58   D    
O22   Zn11  S    
C101  C154  S    
C93   C154  S    
C26   H126  S    
C22   H123  S    
O12   Zn11  S    
C77   N1    A    
C142  H83   S    
C58   O61   S    
C124  C159  S    
C133  H75   S    
C74   N2    A    
C118  C119  S    
C118  H94   S    
C141  C148  S    
H31   O79   S    
C98   C103  S    
C110  H34   S    
C138  H80   S    
C117  C150  S    
C95   O2    A    
C42   C51   A    
C94   O44   A    
C16   C24   A    
C67   O80   D    
C26   C43   A    
C105  H47   S    
O23   Zn6   S    
C99   H52   S    
C141  H65   S    
C8    C26   A    
O47   Zn5   S    
C83   O38   A    
C37   H10   S    
C115  H92   S    
C5    C111  S    
H17   O50   S    
C133  H57   S    
C6    C87   S    
C90   C151  S    
C71   N6    A    
C74   N4    A    
C21   C57   A    
O34   Zn7   S    
C16   C33   A    
C20   C38   A    
C54   O53   D    
C21   C39   A    
C81   O31   A    
C135  H59   S    
C122  H99   S    
C32   C45   A    
C37   C48   A    
C5    C86   S    
C78   N11   A    
O6    Zn10  S    
C13   C15   A    
C57   C95   S    
N7    N16   A    
C91   O26   A    
C113  H55   S    
C63   O72   S    
C116  C152  S    
C79   O33   A    
C7    C148  S    
C146  H70   S    
C65   O76   S    
C138  C156  S    
C117  O6    A    
C35   C73   S    
C62   O69   D    
C97   C149  S    
C5    C146  S    
O39   Zn13  S    
C97   H38   S    
O37   Zn15  S    
C107  C159  S    
C108  C160  S    
C123  C158  S    
O36   Zn14  S    
C89   O43   A    
C148  H90   S    
C135  C153  S    
C45   C75   S    
C88   C153  S    
C7    C113  S    
C53   O52   S    
O19   Zn5   S    
C17   H117  S    
C114  C122  S    
C39   C50   A    
C11   C29   A    
C20   H121  S    
C89   O24   A    
C113  H37   S    
C143  H84   S    
C144  H68   S    
H23   O63   S    
C102  C155  S    
C109  H50   S    
O23   Zn12  S    
