data_mof_unit_12924.cif
_audit_creation_date              2013-03-05T16:41:26-0500
_audit_creation_method            fapswitch 2.2
_symmetry_space_group_name_H-M    P1
_symmetry_Int_Tables_number       1
_space_group_crystal_system       triclinic
_cell_length_a                    10.835707
_cell_length_b                    10.673863
_cell_length_c                    9.873612
_cell_angle_alpha                 89.409249
_cell_angle_beta                  104.745598
_cell_angle_gamma                 90.666834
_cell_volume                      1104.25371732

loop_
_atom_site_label
_atom_site_type_symbol
_atom_site_description
_atom_site_fract_x
_atom_site_fract_y
_atom_site_fract_z
_atom_type_partial_charge
O1    O     O_R   0.500020 0.316790 0.614700 -0.615609
O2    O     O_R   0.500000 0.316760 0.385350 -0.582157
C1    C     C_R   0.510580 0.260235 0.503235 0.926405
O3    O     O_R   0.317820 0.500020 0.571850 -0.642061
O4    O     O_R   0.317800 0.499980 0.342510 -0.548956
C2    C     C_R   0.258567 0.504282 0.440841 0.843790
Zn1   Zn    Zn3+2 0.500010 0.500020 0.653140 0.988305
Zn2   Zn    Zn3+2 0.499990 0.499980 0.346860 1.044020
O5    O     O_R   0.500000 0.683240 0.614650 -0.595653
O6    O     O_R   0.499980 0.683210 0.385300 -0.612830
O7    O     O_R   0.682200 0.500020 0.657490 -0.615125
O8    O     O_R   0.682180 0.499980 0.428150 -0.602574
C3    C     C_R   0.504660 0.740220 0.500764 0.899981
C4    C     C_R   0.740857 0.503262 0.559246 0.943441
H1    H     H_    0.878289 0.587704 0.398807 0.204189
H2    H     H_    0.121020 0.502425 0.620303 0.178773
C5    C     C_2   0.121143 0.521284 0.406426 0.162095
C6    C     C_2   0.066394 0.522223 0.513869 -0.271480
H3    H     H_    0.931946 0.472391 0.695684 0.184190
C7    C     C_2   0.877729 0.508544 0.594947 -0.325260
C8    C     C_2   0.933420 0.546878 0.496424 -0.070923
C9    C     C_R   0.533583 0.062343 0.631998 0.069828
C10   C     C_R   0.541962 0.129562 0.512868 -0.230280
C11   C     C_R   0.577369 0.065635 0.403225 0.300802
C12   C     C_R   0.567026 0.935184 0.400086 -0.234886
H4    H     H_    0.584492 0.884640 0.312250 0.222386
C13   C     C_R   0.529624 0.871499 0.508195 -0.213182
C14   C     C_R   0.528444 0.934720 0.630038 0.127056
C15   C     C_3   0.435393 0.927908 0.718562 0.136496
C16   C     C_3   0.441830 0.069652 0.721709 -0.484836
H5    H     H_    0.340504 0.889518 0.662245 0.132858
H6    H     H_    0.350109 0.114218 0.667152 0.182330
H7    H     H_    0.489463 0.107033 0.826785 0.257013
C17   C     C_R   0.391976 0.467942 0.041642 0.217231
N1    N     N_R   0.499160 0.499140 0.142600 -0.137311
C18   C     C_R   0.603463 0.540608 0.100199 -0.020459
H8    H     H_    0.687551 0.572497 0.176980 0.173901
C19   C     C_R   0.603829 0.539672 0.956578 -0.016663
H9    H     H_    0.688275 0.570286 0.925753 0.181375
N2    N     N_R   0.499160 0.499180 0.856960 -0.114340
C20   C     C_R   0.391535 0.470051 0.898703 0.179168
C21   C     C_3   0.321855 0.348635 0.872110 -0.538173
C22   C     C_3   0.326258 0.342983 0.026582 0.072378
H10   H     H_    0.224673 0.359240 0.801783 0.225014
H11   H     H_    0.379808 0.276329 0.840013 0.202710
H12   H     H_    0.387856 0.267096 0.084388 0.183943
Br1   Br    Br    0.157520 0.346881 0.058924 -0.363652
N3    N     N_R   0.050591 0.544859 0.264092 0.225351
O9    O     O_R   0.096741 0.620834 0.185057 -0.341818
O10   O     O_R   0.946772 0.481620 0.209268 -0.352051
N4    N     N_R   0.620200 0.130173 0.294782 0.218545
O11   O     O_R   0.706717 0.218025 0.327551 -0.347256
O12   O     O_R   0.589848 0.087582 0.167411 -0.369019
Br2   Br    Br    0.508856 0.852365 0.900656 -0.437018

loop_
_geom_bond_atom_site_label_1
_geom_bond_atom_site_label_2
_geom_bond_distance
_ccdc_geom_bond_type
O4    Zn2   1.963665 S    
C16   H6    1.112384 S    
C10   C11   1.420396 A    
O6    C3    1.287139 A    
N2    C20   1.363873 A    
C15   C16   1.514022 S    
C12   C13   1.401631 A    
C6    C8    1.434073 S    
C20   C21   1.483875 S    
C1    C10   1.435941 S    
H3    C7    1.087777 S    
C5    N3    1.439801 S    
Zn2   O8    1.932590 S    
C11   N4    1.437608 S    
C18   C19   1.419213 A    
C5    C6    1.340961 D    
C15   H5    1.112715 S    
H2    C6    1.086766 S    
C9    C14   1.362851 A    
C11   C12   1.395640 A    
Zn1   O7    1.963664 S    
C14   C15   1.493811 S    
C22   H12   1.111980 S    
C19   H9    1.081406 S    
C17   C20   1.410054 A    
C21   H10   1.110308 S    
O3    Zn1   1.932590 S    
N3    O10   1.301560 A    
C18   H8    1.080400 S    
C19   N2    1.367503 A    
O8    C4    1.289342 A    
O2    C1    1.284974 A    
O4    C2    1.294405 A    
O7    C4    1.287926 A    
C21   C22   1.514351 S    
N4    O11   1.301633 A    
C4    C7    1.435049 S    
H1    C8    1.086292 S    
C7    C8    1.327689 D    
O3    C2    1.290045 A    
C17   N1    1.364525 A    
C15   Br2   1.942379 S    
C13   C14   1.388371 A    
Zn1   O5    1.988393 S    
C2    C5    1.453688 S    
O5    C3    1.284896 A    
C9    C10   1.393566 A    
N3    O9    1.301094 A    
C3    C13   1.423124 S    
C9    C16   1.493538 S    
C16   H7    1.110464 S    
N4    O12   1.301611 A    
C12   H4    1.083796 S    
O1    Zn1   1.996103 S    
Zn1   N2    2.014731 S    
C22   Br1   1.935457 S    
C21   H11   1.099116 S    
Zn2   O6    1.996102 S    
O2    Zn2   1.988395 S    
C17   C22   1.495423 S    
N1    C18   1.368910 A    
O1    C1    1.291565 A    
Zn2   N1    2.014625 S    
