data_mof_unit_25377.cif
_audit_creation_date              2012-12-10T17:51:28-0500
_audit_creation_method            fapswitch 2.2
_symmetry_space_group_name_H-M    P1
_symmetry_Int_Tables_number       1
_space_group_crystal_system       triclinic
_cell_length_a                    14.689579
_cell_length_b                    14.776795
_cell_length_c                    17.361324
_cell_angle_alpha                 106.016578
_cell_angle_beta                  73.139471
_cell_angle_gamma                 114.864287
_cell_volume                      3220.38519215

loop_
_atom_site_label
_atom_site_type_symbol
_atom_type_description
_atom_site_fract_x
_atom_site_fract_y
_atom_site_fract_z
_atom_type_partial_charge
C1    C     C_R   0.118677 0.687924 0.514099 0.799740
C2    C     C_R   0.881323 0.312076 0.485901 0.799741
C3    C     C_R   0.185422 0.795514 0.522780 -0.052570
C4    C     C_R   0.814579 0.204485 0.477220 -0.052570
C5    C     C_R   0.210258 0.972910 0.558132 -0.210957
C6    C     C_R   0.789745 0.027090 0.441869 -0.210958
C7    C     C_R   0.145309 0.871702 0.546393 -0.190139
C8    C     C_R   0.854693 0.128298 0.453606 -0.190138
C9    C     C_R   0.291106 0.821605 0.507681 -0.243572
C10   C     C_R   0.708895 0.178393 0.492320 -0.243576
C11   C     C_R   0.359271 0.923177 0.513255 0.079546
C12   C     C_R   0.640732 0.076821 0.486747 0.079547
C13   C     C_R   0.317543 0.000467 0.544263 0.115597
C14   C     C_R   0.682460 0.999532 0.455739 0.115597
C15   C     C_R   0.467302 0.948879 0.491399 0.022915
C16   C     C_R   0.532701 0.051119 0.508603 0.022914
C17   C     C_R   0.488613 0.124865 0.548783 -0.224462
C18   C     C_R   0.511390 0.875131 0.451222 -0.224459
C19   C     C_R   0.382910 0.102458 0.563754 0.069761
C20   C     C_R   0.617094 0.897540 0.436251 0.069761
C21   C     C_R   0.296031 0.330064 0.362296 -0.325030
C22   C     C_R   0.703969 0.669935 0.637705 -0.325031
C23   C     C_R   0.988846 0.501970 0.652402 0.794067
C24   C     C_R   0.011155 0.498031 0.347598 0.794066
C25   C     C_R   0.212278 0.359495 0.383889 0.071731
C26   C     C_R   0.787722 0.640505 0.616111 0.071730
C27   C     C_R   0.285688 0.490365 0.488255 -0.011558
C28   C     C_R   0.714311 0.509633 0.511745 -0.011560
C29   C     C_R   0.373614 0.464405 0.469179 -0.032037
C30   C     C_R   0.626385 0.535593 0.530823 -0.032036
C31   C     C_R   0.376655 0.381856 0.404783 0.168617
C32   C     C_R   0.623344 0.618142 0.595218 0.168617
C33   C     C_R   0.457428 0.516220 0.511518 0.082841
C34   C     C_R   0.542570 0.483778 0.488484 0.082845
C35   C     C_R   0.540846 0.400556 0.424116 -0.257581
C36   C     C_R   0.459152 0.599441 0.575886 -0.257584
C37   C     C_R   0.459664 0.351024 0.383322 -0.201277
C38   C     C_R   0.540334 0.648973 0.616680 -0.201275
C39   C     C_R   0.980865 0.498368 0.737390 -0.029492
C40   C     C_R   0.019140 0.501640 0.262611 -0.029490
C41   C     C_R   0.048276 0.467464 0.756998 -0.207170
C42   C     C_R   0.951748 0.532571 0.243005 -0.207170
C43   C     C_R   0.040534 0.462645 0.837371 -0.149457
C44   C     C_R   0.959497 0.537398 0.162633 -0.149463
C45   C     C_R   0.966052 0.490012 0.899457 0.193237
C46   C     C_R   0.033968 0.510013 0.100545 0.193234
C47   C     C_R   0.897028 0.518383 0.879818 -0.171900
C48   C     C_R   0.102973 0.481614 0.120182 -0.171895
C49   C     C_R   0.904583 0.523043 0.799183 -0.195763
C50   C     C_R   0.095410 0.476945 0.200816 -0.195764
C51   C     C_2   0.958633 0.489498 0.985210 -0.231649
C52   C     C_2   0.041390 0.510534 0.014794 -0.231656
Cu1   Cu    Cu3+1 0.916740 0.524770 0.521640 0.933844
Cu2   Cu    Cu3+1 0.083260 0.475230 0.478360 0.933845
H1    H     H_    0.106670 0.446286 0.710274 0.154730
H2    H     H_    0.893365 0.553764 0.289731 0.154731
H3    H     H_    0.535916 0.200479 0.570992 0.138647
H4    H     H_    0.464088 0.799516 0.429015 0.138646
H5    H     H_    0.461903 0.287517 0.334283 0.142560
H6    H     H_    0.538095 0.712481 0.665719 0.142559
H7    H     H_    0.724045 0.449126 0.462996 0.125285
H8    H     H_    0.275954 0.550873 0.537005 0.125283
H9    H     H_    0.850343 0.680920 0.648432 0.122111
H10   H     H_    0.149657 0.319080 0.351567 0.122108
H11   H     H_    0.297525 0.266779 0.312885 0.135972
H12   H     H_    0.702475 0.733220 0.687116 0.135972
H13   H     H_    0.601278 0.371191 0.403662 0.135989
H14   H     H_    0.398720 0.628806 0.596341 0.135988
H15   H     H_    0.148892 0.453751 0.214621 0.151401
H16   H     H_    0.851085 0.546214 0.785376 0.151403
H17   H     H_    0.116462 0.525975 0.975004 0.144997
H18   H     H_    0.883562 0.474056 0.025002 0.144999
H19   H     H_    0.838496 0.538636 0.927106 0.122939
H20   H     H_    0.161495 0.461346 0.072892 0.122940
H21   H     H_    0.907898 0.563642 0.149610 0.123136
H22   H     H_    0.092149 0.436420 0.850394 0.123131
H23   H     H_    0.681742 0.239232 0.505190 0.146591
H24   H     H_    0.318257 0.760765 0.494813 0.146591
H25   H     H_    0.936511 0.146798 0.441989 0.151540
H26   H     H_    0.063492 0.853204 0.558010 0.151540
H27   H     H_    0.174798 0.028659 0.578939 0.130147
H28   H     H_    0.825207 0.971342 0.421062 0.130146
N1    N     N_R   0.208390 0.438070 0.445820 -0.175336
N2    N     N_R   0.791610 0.561930 0.554180 -0.175337
O1    O     O_R   0.020090 0.662480 0.528530 -0.588865
O2    O     O_R   0.979910 0.337520 0.471470 -0.588865
O3    O     O_R   0.160710 0.620650 0.491980 -0.591178
O4    O     O_R   0.839290 0.379350 0.508020 -0.591178
O5    O     O_R   0.921540 0.523360 0.633990 -0.588968
O6    O     O_R   0.078460 0.476640 0.366010 -0.588967
O7    O     O_R   0.062170 0.481520 0.597440 -0.589901
O8    O     O_R   0.937830 0.518480 0.402560 -0.589901
C53   C     C_3   0.337940 0.185036 0.603050 -0.410197
C54   C     C_3   0.413614 0.292666 0.627951 -0.348318
C55   C     C_3   0.358375 0.366811 0.665649 -0.831733
H29   H     H_    0.318248 0.369168 0.621401 0.257990
H30   H     H_    0.301696 0.343927 0.721853 0.243021
H31   H     H_    0.414893 0.443915 0.682238 0.253032
H32   H     H_    0.452962 0.292704 0.673854 0.216990
H33   H     H_    0.471497 0.319219 0.573396 0.230896
H34   H     H_    0.297781 0.188561 0.559241 0.202549
H35   H     H_    0.280676 0.162293 0.659157 0.196699
C56   C     C_3   0.662065 0.814962 0.396956 -0.410199
C57   C     C_3   0.586392 0.707332 0.372055 -0.348316
C58   C     C_3   0.641633 0.633188 0.334357 -0.831728
H36   H     H_    0.698311 0.656072 0.278152 0.243019
H37   H     H_    0.681762 0.630833 0.378605 0.257987
H38   H     H_    0.585116 0.556083 0.317769 0.253034
H39   H     H_    0.528509 0.680779 0.426610 0.230896
H40   H     H_    0.547043 0.707293 0.326152 0.216990
H41   H     H_    0.719329 0.837704 0.340849 0.196699
H42   H     H_    0.702224 0.811439 0.440765 0.202549

loop_
_geom_bond_atom_site_label_1
_geom_bond_atom_site_label_2
_ccdc_geom_bond_type
C1    O3    A    
C15   C18   A    
C30   C32   A    
C53   C54   S    
C6    H28   S    
C29   C33   A    
C27   C29   A    
C55   H29   S    
C4    C8    A    
C55   H31   S    
C39   C41   A    
C20   C56   S    
Cu1   Cu2   S    
C58   H37   S    
C22   C32   A    
Cu1   N2    S    
C35   C37   A    
C50   H15   S    
Cu2   O6    S    
C3    C7    A    
Cu2   O3    S    
C23   C39   S    
C28   N2    A    
C45   C51   S    
C15   C16   A    
C46   C52   S    
C33   C36   A    
C56   H41   S    
C34   C35   A    
Cu2   N1    S    
C42   H2    S    
C11   C15   A    
C18   H4    S    
C22   H12   S    
C12   C16   A    
C16   C17   A    
C8    H25   S    
C23   O5    A    
C2    O4    A    
C32   C38   A    
C41   H1    S    
C5    C13   A    
C19   C53   S    
C28   H7    S    
C40   C42   A    
C41   C43   A    
C42   C44   A    
C24   O8    A    
C57   C58   S    
C10   H23   S    
C44   C46   A    
C45   C47   A    
C1    O1    A    
C58   H38   S    
C46   C48   A    
C30   C34   A    
C51   C52   D    
C48   H20   S    
C47   H19   S    
C47   C49   A    
C53   H34   S    
Cu2   O2    S    
C13   C19   A    
C17   C19   A    
C6    C8    A    
C31   C37   A    
C56   H42   S    
C1    C3    S    
C25   H10   S    
C44   H21   S    
C2    C4    S    
C26   H9    S    
C3    C9    A    
C27   H8    S    
C14   C20   A    
C6    C14   A    
C5    H27   S    
C54   H33   S    
C21   C31   A    
Cu1   O8    S    
C36   H14   S    
C33   C34   A    
C9    C11   A    
C37   H5    S    
C10   C12   A    
C38   H6    S    
C39   C49   A    
C12   C14   A    
C49   H16   S    
Cu1   O5    S    
C23   O7    A    
C51   H18   S    
C4    C10   A    
C5    C7    A    
C43   H22   S    
C21   C25   A    
C26   N2    A    
C21   H11   S    
C24   O6    A    
C53   H35   S    
C55   H30   S    
C58   H36   S    
C36   C38   A    
Cu2   O7    S    
C43   C45   A    
C52   H17   S    
C57   H40   S    
C11   C13   A    
C57   H39   S    
C54   H32   S    
C40   C50   A    
C48   C50   A    
C24   C40   S    
C28   C30   A    
C2    O2    A    
Cu1   O4    S    
C18   C20   A    
C9    H24   S    
C54   C55   S    
C35   H13   S    
C27   N1    A    
C29   C31   A    
C22   C26   A    
C56   C57   S    
C25   N1    A    
Cu1   O1    S    
C17   H3    S    
C7    H26   S    
