data_mof_unit_18194.cif
_audit_creation_date              2012-12-10T19:42:53-0500
_audit_creation_method            fapswitch 2.2
_symmetry_space_group_name_H-M    P1
_symmetry_Int_Tables_number       1
_space_group_crystal_system       triclinic
_cell_length_a                    10.932915
_cell_length_b                    13.004712
_cell_length_c                    11.67226
_cell_angle_alpha                 100.209096
_cell_angle_beta                  94.868887
_cell_angle_gamma                 90.347744
_cell_volume                      1627.00925248

loop_
_atom_site_label
_atom_site_type_symbol
_atom_type_description
_atom_site_fract_x
_atom_site_fract_y
_atom_site_fract_z
_atom_type_partial_charge
C1    C     C_R   0.500256 0.299306 0.478422 0.887242
C2    C     C_R   0.499744 0.700694 0.521578 0.887242
C3    C     C_R   0.872067 0.492952 0.502185 -0.222194
C4    C     C_R   0.127933 0.507048 0.497815 -0.222195
C5    C     C_R   0.946979 0.531773 0.606431 -0.123042
C6    C     C_R   0.053021 0.468227 0.393569 -0.123042
C7    C     C_R   0.503446 0.813832 0.533963 -0.186109
C8    C     C_R   0.496554 0.186168 0.466037 -0.186110
C9    C     C_R   0.410175 0.021696 0.361895 0.488209
C10   C     C_R   0.589825 0.978304 0.638105 0.488209
C11   C     C_R   0.423766 0.128826 0.372977 -0.284759
C12   C     C_R   0.576234 0.871174 0.627022 -0.284759
C13   C     C_R   0.563472 0.136257 0.547310 0.397510
C14   C     C_R   0.436528 0.863743 0.452690 0.397510
C15   C     C_R   0.539393 0.029278 0.547265 -0.115374
C16   C     C_R   0.460607 0.970722 0.452735 -0.115374
C17   C     C_R   0.463914 0.365847 0.021752 0.329172
C18   C     C_R   0.536086 0.634152 0.978248 0.329171
C19   C     C_R   0.455648 0.383834 0.142990 0.039840
C20   C     C_R   0.544351 0.616166 0.857009 0.039840
C21   C     C_R   0.503285 0.563280 0.157313 0.152125
C22   C     C_R   0.496715 0.436720 0.842687 0.152126
C23   C     C_R   0.262080 0.503985 0.499559 0.878214
C24   C     C_R   0.737919 0.496015 0.500441 0.878214
C25   C     C_R   0.509505 0.550254 0.034381 -0.078425
C26   C     C_R   0.490494 0.449745 0.965619 -0.078425
C27   C     C_R   0.137041 0.508145 0.097172 -0.169620
C28   C     C_R   0.862959 0.491856 0.902828 -0.169619
C29   C     C_R   0.110916 0.528904 0.214072 -0.066478
C30   C     C_R   0.889085 0.471096 0.785928 -0.066478
C31   C     C_R   0.101167 0.446804 0.276600 0.175490
C32   C     C_R   0.898832 0.553197 0.723400 0.175490
C33   C     C_R   0.122665 0.344074 0.222152 -0.156476
C34   C     C_R   0.877334 0.655926 0.777847 -0.156476
C35   C     C_R   0.147761 0.323454 0.104766 -0.154298
C36   C     C_R   0.852239 0.676546 0.895234 -0.154298
C37   C     C_R   0.152669 0.405252 0.041651 0.400620
C38   C     C_R   0.847331 0.594749 0.958349 0.400620
C39   C     C_R   0.926441 0.456944 0.397296 0.383418
C40   C     C_R   0.073559 0.543055 0.602704 0.383418
Cu1   Cu    Cu3+1 0.509250 0.507730 0.615930 1.030518
Cu2   Cu    Cu3+1 0.490750 0.492270 0.384070 1.030518
H1    H     H_    0.477194 0.361137 0.788762 0.209427
H2    H     H_    0.522806 0.638863 0.211238 0.209427
H3    H     H_    0.565670 0.681767 0.816731 0.166551
H4    H     H_    0.434330 0.318233 0.183269 0.166551
H5    H     H_    0.093868 0.608434 0.254750 0.209586
H6    H     H_    0.906133 0.391566 0.745250 0.209586
H7    H     H_    0.621540 0.832280 0.693312 0.190774
H8    H     H_    0.378461 0.167720 0.306688 0.190775
N1    N     N_R   0.523180 0.519350 0.790130 -0.227389
N2    N     N_R   0.476820 0.480650 0.209870 -0.227389
O1    O     O_R   0.506570 0.354460 0.582000 -0.566066
O2    O     O_R   0.493430 0.645540 0.418000 -0.566067
O3    O     O_R   0.490940 0.341410 0.386200 -0.601908
O4    O     O_R   0.509060 0.658590 0.613800 -0.601908
O5    O     O_R   0.327460 0.506540 0.597900 -0.513448
O6    O     O_R   0.672540 0.493460 0.402100 -0.513448
O7    O     O_R   0.311830 0.493480 0.402100 -0.596557
O8    O     O_R   0.688170 0.506520 0.597900 -0.596557
Cl1   Cl    Cl    0.173872 0.378770 0.892033 -0.561445
Cl2   Cl    Cl    0.826128 0.621230 0.107967 -0.561444
Cl3   Cl    Cl    0.442509 0.236577 0.945047 -0.477591
Cl4   Cl    Cl    0.557491 0.763422 0.054953 -0.477590
H9    H     H_    0.141253 0.571680 0.048841 0.214382
H10   H     H_    0.858748 0.428320 0.951160 0.214382
H11   H     H_    0.114909 0.279926 0.269122 0.176181
H12   H     H_    0.885090 0.720074 0.730877 0.176181
H13   H     H_    0.160743 0.243755 0.062313 0.217264
H14   H     H_    0.839256 0.756245 0.937686 0.217264
Cl5   Cl    Cl    0.839357 0.390380 0.269057 -0.518014
Cl6   Cl    Cl    0.160643 0.609620 0.730943 -0.518013
Cl7   Cl    Cl    0.309468 0.793620 0.368699 -0.520809
Cl8   Cl    Cl    0.690531 0.206380 0.631301 -0.520809
Cl9   Cl    Cl    0.339774 0.958807 0.225492 -0.406522
Cl10  Cl    Cl    0.660227 0.041192 0.774508 -0.406522

loop_
_geom_bond_atom_site_label_1
_geom_bond_atom_site_label_2
_ccdc_geom_bond_type
C8    C13   A    
C27   C29   A    
C1    C8    S    
Cu1   Cu2   S    
C2    C7    S    
Cu2   O6    S    
C12   H7    S    
C19   H4    S    
C23   O7    A    
C29   H5    S    
C17   C26   A    
C30   H6    S    
C35   C37   A    
C9    C16   A    
C20   N1    A    
C10   C15   A    
C15   C16   A    
C1    O1    A    
C17   C19   A    
C10   Cl10  S    
C19   N2    A    
C7    C14   A    
C4    C40   A    
C31   C33   A    
C34   C36   A    
C20   H3    S    
C5    C32   S    
C6    C31   S    
C3    C39   A    
C3    C24   S    
C18   C25   A    
C36   H14   S    
C7    C12   A    
C14   Cl7   S    
C4    C6    A    
C2    O2    A    
C34   H12   S    
C4    C23   S    
C25   C26   A    
C32   C34   A    
C28   H10   S    
Cu1   O4    S    
C27   H9    S    
Cu2   O3    S    
C21   H2    S    
C22   H1    S    
C28   C38   A    
C24   O8    A    
C9    C11   A    
Cu1   O1    S    
C10   C12   A    
C13   C15   A    
C14   C16   A    
C33   H11   S    
C23   O5    A    
C21   C25   A    
C40   Cl6   S    
Cu1   O8    S    
C3    C5    A    
Cu2   O7    S    
C37   Cl1   S    
C28   C30   A    
C1    O3    A    
Cu1   O5    S    
C29   C31   A    
C11   H8    S    
C2    O4    A    
Cu2   O2    S    
C30   C32   A    
C18   Cl4   S    
C27   C37   A    
C8    C11   A    
C36   C38   A    
C33   C35   A    
C18   C20   A    
C13   Cl8   S    
C35   H13   S    
C24   O6    A    
C22   C26   A    
C5    C40   A    
C39   Cl5   S    
C6    C39   A    
C9    Cl9   S    
Cu1   N1    S    
C21   N2    A    
C17   Cl3   S    
Cu2   N2    S    
C22   N1    A    
C38   Cl2   S    
