data_mof_unit_68138.cif
_audit_creation_date              2012-12-11T16:11:42-0500
_audit_creation_method            fapswitch 2.2
_symmetry_space_group_name_H-M    P1
_symmetry_Int_Tables_number       1
_space_group_crystal_system       triclinic
_cell_length_a                    7.03353
_cell_length_b                    14.335523
_cell_length_c                    15.818529
_cell_angle_alpha                 90.076897
_cell_angle_beta                  87.564297
_cell_angle_gamma                 90.685853
_cell_volume                      1593.41598598

loop_
_atom_site_label
_atom_site_type_symbol
_atom_type_description
_atom_site_fract_x
_atom_site_fract_y
_atom_site_fract_z
_atom_type_partial_charge
O1    O     O_R   0.638960 0.835150 0.161940 -0.531152
O2    O     O_R   0.361040 0.164850 0.838060 -0.527799
O3    O     O_R   0.309170 0.846340 0.337470 -0.545324
O4    O     O_R   0.690830 0.153660 0.662530 -0.551810
O5    O     O_R   0.138810 0.664830 0.338070 -0.527395
O6    O     O_R   0.861190 0.335170 0.661930 -0.526325
C1    C     C_R   0.475867 0.869946 0.364554 0.675658
C2    C     C_R   0.523276 0.129317 0.634964 0.677212
O7    O     O_R   0.309250 0.846350 0.162570 -0.521272
O8    O     O_R   0.690750 0.153650 0.837430 -0.521365
O9    O     O_R   0.138880 0.664840 0.161920 -0.532346
O10   O     O_R   0.861120 0.335160 0.838080 -0.530957
C3    C     C_R   0.481180 0.864985 0.131198 0.724936
C4    C     C_R   0.518833 0.135082 0.868841 0.729160
O11   O     O_R   0.638880 0.835150 0.338090 -0.544159
O12   O     O_R   0.361120 0.164850 0.661910 -0.541455
O13   O     O_3   0.472380 0.690440 0.250000 -0.362064
O14   O     O_3   0.527620 0.309560 0.750000 -0.359503
V1    V     V_3+5 0.197550 0.761040 0.250010 1.462139
V2    V     V_3+5 0.802450 0.238960 0.749990 1.443385
O15   O     O_R   0.809160 0.653640 0.162540 -0.540075
O16   O     O_R   0.190840 0.346360 0.837460 -0.539308
C5    C     C_R   0.979520 0.632937 0.132743 0.726965
C6    C     C_R   0.020486 0.366962 0.867338 0.730958
O17   O     O_R   0.809090 0.653640 0.337440 -0.539084
O18   O     O_R   0.190910 0.346360 0.662560 -0.540226
C7    C     C_R   0.975382 0.631019 0.366145 0.724896
C8    C     C_R   0.024652 0.368723 0.633673 0.718500
V3    V     V_3+5 0.697540 0.738950 0.250000 1.455370
V4    V     V_3+5 0.302460 0.261050 0.750000 1.453135
O19   O     O_3   0.972580 0.809550 0.250010 -0.363422
O20   O     O_3   0.027420 0.190450 0.749990 -0.365740
C9    C     C_3   0.069803 0.583068 0.522872 -0.179541
C10   C     C_3   0.930172 0.416338 0.476774 -0.181019
C11   C     C_3   0.901898 0.530093 0.568163 0.190809
C12   C     C_3   0.098066 0.469320 0.431457 0.191358
H1    H     H_    0.126370 0.652180 0.542149 0.132660
H2    H     H_    0.873672 0.347197 0.457516 0.135727
C13   C     C_3   0.016284 0.439105 0.562763 -0.070901
C14   C     C_3   0.983713 0.560345 0.436866 -0.073745
C15   C     C_3   0.184619 0.491155 0.517752 -0.147764
C16   C     C_3   0.815360 0.508260 0.481869 -0.147219
H3    H     H_    0.336584 0.484072 0.532537 0.149042
H4    H     H_    0.663392 0.515324 0.467084 0.148900
C17   C     C_3   0.919483 0.421007 0.028200 0.183770
C18   C     C_3   0.080557 0.578753 0.972008 0.184188
C19   C     C_3   0.093558 0.468863 0.066933 -0.180442
C20   C     C_3   0.906473 0.530914 0.933272 -0.180495
H5    H     H_    0.170497 0.442962 0.121857 0.152248
H6    H     H_    0.829572 0.556829 0.878339 0.152029
C21   C     C_3   0.991866 0.563324 0.061570 -0.082016
C22   C     C_3   0.008154 0.436451 0.938621 -0.083331
C23   C     C_3   0.816688 0.515304 0.023681 -0.150406
C24   C     C_3   0.183329 0.484454 0.976525 -0.150471
H7    H     H_    0.665363 0.527687 0.042851 0.123531
H8    H     H_    0.334654 0.472045 0.957372 0.123625
C25   C     C_3   0.646915 0.009307 0.445610 0.199749
C26   C     C_3   0.347495 0.989340 0.551791 0.210635
C27   C     C_3   0.504610 0.087284 0.470398 -0.157643
C28   C     C_3   0.486616 0.911246 0.527012 -0.218330
H9    H     H_    0.508936 0.160575 0.447795 0.125745
H10   H     H_    0.476006 0.838255 0.550410 0.126581
C29   C     C_3   0.513921 0.057368 0.564284 -0.049063
C30   C     C_3   0.481118 0.940966 0.433958 -0.073585
C31   C     C_3   0.655488 0.978827 0.539493 -0.208566
C32   C     C_3   0.337289 0.017855 0.457918 -0.172709
H11   H     H_    0.765365 0.942191 0.573787 0.134647
H12   H     H_    0.210797 0.034490 0.422513 0.131419
C33   C     C_3   0.592882 0.925427 0.969315 0.152694
C34   C     C_3   0.407165 0.074743 0.030785 0.152760
C35   C     C_3   0.415797 0.968497 0.931332 -0.231937
C36   C     C_3   0.584251 0.031668 0.068781 -0.232611
H13   H     H_    0.345255 0.943528 0.873839 0.144359
H14   H     H_    0.654785 0.056643 0.126277 0.146935
C37   C     C_3   0.503550 0.066852 0.941579 -0.149626
C38   C     C_3   0.496494 0.933299 0.058520 -0.148011
C39   C     C_3   0.681568 0.024944 0.979119 0.228276
C40   C     C_3   0.318473 0.975219 0.020986 0.228754
I1    I     I_    0.744187 0.581666 0.676465 -0.534824
I2    I     I_    0.255356 0.417181 0.323283 -0.537849
C41   C     C_3   0.667307 0.835242 0.928447 -0.341938
C42   C     C_3   0.779539 0.854315 0.845425 -0.710135
H15   H     H_    0.688120 0.889244 0.799754 0.214183
H16   H     H_    0.905463 0.899428 0.856297 0.256450
H17   H     H_    0.829246 0.787348 0.817465 0.232779
H18   H     H_    0.753608 0.795887 0.972622 0.193264
H19   H     H_    0.544203 0.789339 0.915234 0.178192
C43   C     C_3   0.332813 0.165005 0.071549 -0.339461
C44   C     C_3   0.220584 0.146109 0.154596 -0.715507
H20   H     H_    0.094596 0.101007 0.143813 0.258687
H21   H     H_    0.311992 0.111259 0.200323 0.215685
H22   H     H_    0.170942 0.213133 0.182473 0.233403
H23   H     H_    0.455954 0.210904 0.084715 0.178370
H24   H     H_    0.246546 0.204307 0.027321 0.192968
I3    I     I_    0.943399 0.103534 0.960132 -0.467686
I4    I     I_    0.056707 0.896554 0.039856 -0.468981
C45   C     C_3   0.828887 0.330878 0.062635 -0.388786
C46   C     C_3   0.743770 0.343803 0.152224 -0.714506
H25   H     H_    0.853191 0.371028 0.194768 0.245116
H26   H     H_    0.622994 0.392990 0.152031 0.238189
H27   H     H_    0.690868 0.275629 0.177446 0.223767
H28   H     H_    0.716335 0.307218 0.020091 0.183044
H29   H     H_    0.940324 0.277151 0.064077 0.208030
C47   C     C_3   0.171375 0.668836 0.937601 -0.389963
C48   C     C_3   0.257445 0.655660 0.848214 -0.713801
H30   H     H_    0.378453 0.606634 0.848812 0.237967
H31   H     H_    0.148613 0.628107 0.805530 0.244639
H32   H     H_    0.310283 0.723789 0.822895 0.223173
H33   H     H_    0.059932 0.722552 0.935835 0.207529
H34   H     H_    0.283489 0.692621 0.980325 0.183234
C49   C     C_3   0.810993 0.022694 0.379432 -0.339732
C50   C     C_3   0.887410 0.123062 0.375650 -0.795729
H35   H     H_    0.779729 0.169939 0.349707 0.234073
H36   H     H_    0.924302 0.148695 0.439114 0.223528
H37   H     H_    0.016377 0.126635 0.332776 0.231581
H38   H     H_    0.925361 0.973099 0.393081 0.179377
H39   H     H_    0.759685 0.005580 0.315740 0.182805
C51   C     C_3   0.184430 0.974157 0.615846 -0.405318
C52   C     C_3   0.036470 0.048446 0.606154 -0.660022
H40   H     H_    0.087450 0.120626 0.609035 0.246296
H41   H     H_    0.983675 0.043777 0.541969 0.201570
H42   H     H_    0.924689 0.036920 0.656449 0.228694
H43   H     H_    0.118164 0.904638 0.605025 0.174902
H44   H     H_    0.238237 0.975772 0.680879 0.180206

loop_
_geom_bond_atom_site_label_1
_geom_bond_atom_site_label_2
_ccdc_geom_bond_type
C6    C22   S    
C32   H12   S    
C29   C31   S    
C34   C40   S    
O13   V3    S    
C33   C39   S    
C49   C50   S    
C10   C16   S    
O4    C2    A    
V1    O19   S    
C50   H36   S    
C41   C42   S    
C13   C15   S    
C48   H31   S    
O9    V1    S    
C38   C40   S    
O3    C1    A    
C27   C32   S    
C47   H33   S    
C25   C27   S    
O12   V4    S    
C45   C46   S    
C26   C51   S    
C33   C38   S    
C28   H10   S    
C17   C19   S    
C11   I1    S    
C33   C35   S    
C11   C16   S    
O7    C3    A    
C51   C52   S    
C47   C48   S    
O13   V1    S    
O5    C7    A    
O7    V1    S    
O6    C8    A    
O8    V2    S    
C31   H11   S    
O3    V1    S    
C49   H38   S    
O14   V4    S    
C44   H21   S    
C10   C12   S    
C41   H18   S    
C36   C38   S    
C52   H41   S    
C17   C23   S    
C2    O12   A    
C15   H3    S    
C18   C24   S    
C12   C15   S    
C16   H4    S    
C19   H5    S    
C50   H35   S    
C22   C24   S    
O11   V3    S    
C18   C20   S    
C23   H7    S    
O17   V3    S    
C20   C23   S    
C48   H32   S    
C43   H24   S    
C27   H9    S    
C9    C14   S    
C10   C13   S    
V4    O20   S    
C12   C14   S    
C36   H14   S    
C12   I2    S    
C40   I4    S    
C35   H13   S    
C19   C21   S    
C1    O11   A    
C8    C13   S    
O15   V3    S    
C18   C21   S    
C39   I3    S    
C9    H1    S    
C21   C23   S    
C30   C32   S    
C11   C13   S    
C36   C39   S    
C5    C21   S    
C3    C38   S    
C7    C14   S    
O10   V2    S    
O1    V3    S    
C51   H44   S    
C44   H22   S    
C20   H6    S    
C37   C39   S    
C45   H29   S    
C19   C24   S    
C28   C31   S    
O18   V4    S    
C42   H16   S    
O15   C5    A    
O8    C4    A    
O16   C6    A    
O1    C3    A    
O2    V4    S    
C46   H27   S    
C47   H34   S    
C25   C30   S    
C26   C32   S    
V2    O20   S    
C52   H42   S    
C26   C29   S    
C43   H23   S    
O16   V4    S    
C10   H2    S    
O18   C8    A    
C34   C43   S    
C45   H28   S    
C25   C31   S    
C14   C16   S    
C52   H40   S    
C24   H8    S    
O5    V1    S    
O17   C7    A    
C42   H17   S    
O6    V2    S    
C48   H30   S    
O10   C6    A    
C27   C29   S    
C17   C22   S    
C49   H39   S    
C28   C30   S    
C9    C15   S    
C4    C37   S    
V3    O19   S    
C17   C45   S    
C35   C37   S    
C41   H19   S    
C25   C49   S    
C18   C47   S    
O9    C5    A    
C9    C11   S    
O14   V2    S    
C51   H43   S    
C50   H37   S    
O2    C4    A    
C46   H26   S    
C1    C30   S    
C33   C41   S    
C2    C29   S    
O4    V2    S    
C20   C22   S    
C43   C44   S    
C46   H25   S    
C34   C37   S    
C34   C36   S    
C42   H15   S    
C44   H20   S    
C26   C28   S    
C35   C40   S    
