data_mof_unit_34670.cif
_audit_creation_date              2012-10-26T19:21:57-0400
_audit_creation_method            fapswitch 2.2
_symmetry_space_group_name_H-M    P1
_symmetry_Int_Tables_number       1
_space_group_crystal_system       triclinic
_cell_length_a                    23.368324
_cell_length_b                    11.015063
_cell_length_c                    9.869498
_cell_angle_alpha                 112.413703
_cell_angle_beta                  96.80993
_cell_angle_gamma                 90.966307
_cell_volume                      2326.61833591

loop_
_atom_site_label
_atom_site_type_symbol
_atom_type_description
_atom_site_fract_x
_atom_site_fract_y
_atom_site_fract_z
_atom_type_partial_charge
C1    C     C_R   0.494122 0.253413 0.439302 0.535447
C2    C     C_R   0.710542 0.578203 0.587079 -0.201237
C3    C     C_R   0.248180 0.362527 0.537420 -0.097403
C4    C     C_R   0.769495 0.562908 0.584327 -0.077602
C5    C     C_R   0.209826 0.436474 0.485403 0.186946
C6    C     C_R   0.789031 0.447406 0.484543 0.187616
C7    C     C_2   0.487318 0.111679 0.404080 0.222375
C8    C     C_2   0.508293 0.888526 0.595739 0.224913
C9    C     C_2   0.508941 0.067812 0.507456 -0.129700
C10   C     C_2   0.501438 0.929381 0.483443 -0.126484
C11   C     C_2   0.509844 0.493567 0.073163 0.347415
C12   C     C_R   0.504128 0.746747 0.560744 0.546481
C13   C     C_2   0.489598 0.511118 0.929797 0.347826
C14   C     C_R   0.391279 0.497943 0.502035 0.560099
C15   C     C_R   0.608644 0.495857 0.496411 0.578903
C16   C     C_R   0.872387 0.409145 0.351682 0.420994
C17   C     C_R   0.126438 0.440408 0.611432 0.420427
C18   C     C_R   0.884888 0.443952 0.607682 0.398824
C19   C     C_R   0.113151 0.386614 0.350894 0.394368
C20   C     C_R   0.944849 0.438238 0.609463 0.009493
C21   C     C_R   0.053049 0.385145 0.347619 0.008675
C22   C     C_R   0.968708 0.414269 0.477995 -0.066462
C23   C     C_R   0.231566 0.532562 0.440508 -0.039790
C24   C     C_R   0.029290 0.410860 0.479589 -0.066558
C25   C     C_R   0.932161 0.395713 0.345666 0.072121
C26   C     C_R   0.066059 0.435099 0.613257 0.069939
C27   C     C_R   0.981207 0.457146 0.740401 -0.123510
C28   C     C_R   0.016549 0.361018 0.215505 -0.124406
C29   C     C_R   0.041226 0.456449 0.744013 0.088118
C30   C     C_R   0.956725 0.366774 0.213137 0.088382
C31   C     C_3   0.317662 0.777145 0.524437 -0.001968
C32   C     C_3   0.265001 0.855056 0.511299 -0.268789
C33   C     C_3   0.273192 0.996963 0.623446 -0.481829
C34   C     C_R   0.748686 0.347693 0.386701 -0.063248
C35   C     C_3   0.649246 0.151210 0.315058 -0.002745
C36   C     C_3   0.609704 0.044907 0.190044 -0.249550
C37   C     C_3   0.608898 0.914296 0.210399 -0.447942
C38   C     C_3   0.477627 0.996854 0.821200 0.008394
C39   C     C_3   0.441279 0.104610 0.800220 -0.271189
C40   C     C_3   0.395505 0.141309 0.904117 -0.485680
C41   C     C_3   0.404954 0.052995 0.229154 -0.001708
C42   C     C_3   0.362707 0.031384 0.326829 -0.290242
C43   C     C_3   0.301068 0.052050 0.272611 -0.476325
C44   C     C_3   0.400814 0.592995 0.947172 -0.001693
C45   C     C_R   0.291119 0.558012 0.451470 0.241864
C46   C     C_3   0.339323 0.546419 0.952068 -0.260268
C47   C     C_3   0.303746 0.662126 0.027463 -0.440529
C48   C     C_3   0.602168 0.433307 0.066557 0.006013
C49   C     C_3   0.664503 0.491437 0.099826 -0.256467
C50   C     C_3   0.705160 0.388663 0.021136 -0.428616
C51   C     C_R   0.689181 0.361906 0.389077 0.211325
C52   C     C_R   0.329240 0.482891 0.503028 0.009424
C53   C     C_R   0.670252 0.479563 0.487948 0.013765
C54   C     C_R   0.307578 0.385427 0.545667 -0.220338
Cu1   Cu    Cu3+1 0.509980 0.521810 0.644910 0.957494
Cu2   Cu    Cu3+1 0.490020 0.478190 0.355090 0.984122
H1    H     H_    0.963336 0.475153 0.842105 0.147202
H2    H     H_    0.800090 0.641349 0.659462 0.152958
H3    H     H_    0.488692 0.859307 0.370707 0.169888
H4    H     H_    0.530669 0.135632 0.613870 0.154592
H5    H     H_    0.067489 0.567858 0.959783 0.231414
H6    H     H_    0.064072 0.403624 0.916682 0.231771
H7    H     H_    0.929251 0.249410 0.999886 0.229956
H8    H     H_    0.934631 0.412221 0.034929 0.234725
H9    H     H_    0.356818 0.831100 0.516029 0.141007
H10   H     H_    0.324705 0.772222 0.636227 0.106737
H11   H     H_    0.257283 0.854161 0.397707 0.176442
H12   H     H_    0.034294 0.339419 0.112928 0.147898
H13   H     H_    0.226133 0.808338 0.530947 0.156677
H14   H     H_    0.276780 0.999126 0.737482 0.155603
H15   H     H_    0.235247 0.051197 0.606022 0.156211
H16   H     H_    0.312441 0.047208 0.610248 0.141535
H17   H     H_    0.632466 0.169961 0.421828 0.137399
H18   H     H_    0.693155 0.114062 0.319659 0.127996
H19   H     H_    0.565174 0.078153 0.186326 0.205164
H20   H     H_    0.624889 0.029642 0.082490 0.181620
H21   H     H_    0.652332 0.874723 0.203030 0.144172
H22   H     H_    0.577437 0.841798 0.122264 0.170898
H23   H     H_    0.566786 0.582505 0.913752 0.200312
H24   H     H_    0.596008 0.927580 0.319521 0.167477
H25   H     H_    0.495358 0.029617 0.940044 0.172018
H26   H     H_    0.449777 0.905093 0.793637 0.121102
H27   H     H_    0.469722 0.193872 0.822400 0.186952
H28   H     H_    0.419502 0.069272 0.684442 0.145342
H29   H     H_    0.368297 0.052615 0.889836 0.127963
H30   H     H_    0.367615 0.213338 0.880243 0.159902
H31   H     H_    0.416625 0.186745 0.020137 0.156614
H32   H     H_    0.390186 0.985923 0.112788 0.140566
H33   H     H_    0.402883 0.154333 0.232157 0.152938
H34   H     H_    0.433300 0.418411 0.085637 0.200332
H35   H     H_    0.364902 0.930103 0.324736 0.169266
H36   H     H_    0.374612 0.102379 0.442783 0.143291
H37   H     H_    0.299006 0.149683 0.264264 0.168508
H38   H     H_    0.271642 0.048648 0.351417 0.152924
H39   H     H_    0.285942 0.973954 0.162391 0.150485
H40   H     H_    0.399001 0.660195 0.886753 0.159011
H41   H     H_    0.420584 0.651053 0.063905 0.122091
H42   H     H_    0.317655 0.490395 0.838389 0.191654
H43   H     H_    0.340731 0.480113 0.013382 0.170596
H44   H     H_    0.323205 0.716572 0.144110 0.173023
H45   H     H_    0.201955 0.587897 0.397670 0.138496
H46   H     H_    0.259152 0.625105 0.026572 0.202331
H47   H     H_    0.301574 0.730042 0.968076 0.131065
H48   H     H_    0.590215 0.389134 0.943909 0.097408
H49   H     H_    0.598938 0.352581 0.106933 0.216428
H50   H     H_    0.666909 0.574329 0.062241 0.156451
H51   H     H_    0.678712 0.530718 0.220940 0.191364
H52   H     H_    0.704860 0.306234 0.059696 0.190262
H53   H     H_    0.749745 0.434763 0.045411 0.214656
H54   H     H_    0.691970 0.349462 0.899538 0.147845
H55   H     H_    0.763660 0.259546 0.307676 0.139063
H56   H     H_    0.336700 0.325968 0.583641 0.134816
H57   H     H_    0.696255 0.667842 0.665385 0.128792
H58   H     H_    0.231966 0.286966 0.570758 0.144602
N1    N     N_R   0.850061 0.432378 0.481021 -0.401436
N2    N     N_R   0.148511 0.417666 0.481921 -0.403536
N3    N     N_2   0.475010 0.445410 0.137370 -0.342485
N4    N     N_2   0.524990 0.554590 0.862630 -0.338145
N5    N     N_3   0.076294 0.477239 0.881333 -0.542561
N6    N     N_3   0.921534 0.342573 0.075068 -0.541941
O1    O     O_R   0.505330 0.332340 0.577400 -0.516586
O2    O     O_2   0.162947 0.471775 0.738191 -0.468472
O3    O     O_2   0.861508 0.460909 0.731834 -0.503227
O4    O     O_2   0.136238 0.358584 0.224128 -0.501523
O5    O     O_3   0.311958 0.652352 0.405732 -0.574490
O6    O     O_3   0.649448 0.267257 0.286166 -0.594332
O7    O     O_3   0.525068 0.977046 0.740019 -0.584969
O8    O     O_3   0.461883 0.022477 0.265985 -0.605897
O9    O     O_3   0.431816 0.482847 0.872039 -0.569052
O10   O     O_3   0.566187 0.533544 0.138614 -0.561264
O11   O     O_R   0.494670 0.667660 0.422600 -0.506028
O12   O     O_R   0.488470 0.295500 0.332650 -0.499312
O13   O     O_R   0.511530 0.704500 0.667350 -0.483291
O14   O     O_R   0.426310 0.518390 0.622390 -0.464328
O15   O     O_R   0.573690 0.481610 0.377610 -0.417964
O16   O     O_R   0.409450 0.481550 0.377650 -0.487239
O17   O     O_R   0.590550 0.518450 0.622350 -0.518220
O18   O     O_2   0.836873 0.402168 0.230518 -0.480997

loop_
_geom_bond_atom_site_label_1
_geom_bond_atom_site_label_2
_ccdc_geom_bond_type
C31   H10   S    
C41   H33   S    
C46   H43   S    
Cu1   O1    S    
C35   H18   S    
C23   C45   A    
C12   O11   A    
C27   C29   A    
Cu2   N3    S    
C35   C36   S    
Cu1   Cu2   S    
C1    O12   A    
C49   H50   S    
C38   O7    S    
C16   N1    A    
C49   H51   S    
C29   N5    S    
C34   C51   A    
C14   O16   A    
C17   C26   A    
C15   C53   S    
C40   H31   S    
C36   C37   S    
C19   C21   A    
C24   C26   A    
C39   H28   S    
C38   C39   S    
C3    C54   A    
H5    N5    S    
C48   H48   S    
H23   N4    S    
C50   H54   S    
C43   H38   S    
C31   H9    S    
C42   H35   S    
C41   C42   S    
C40   H30   S    
C36   H20   S    
C33   H16   S    
C14   C52   S    
C31   C32   S    
C44   C46   S    
C22   C25   A    
C43   H39   S    
C7    O8    S    
C9    C10   S    
C42   H36   S    
C18   O3    S    
C46   H42   S    
C47   H46   S    
C38   H26   S    
C50   H52   S    
C34   H55   S    
C41   O8    S    
C48   O10   S    
Cu2   O16   S    
C52   C54   A    
C13   N4    D    
C37   H24   S    
C19   O4    S    
C47   H47   S    
H34   N3    S    
C4    C6    A    
C27   H1    S    
C45   O5    S    
C39   C40   S    
C25   C30   A    
C14   O14   A    
C45   C52   A    
C44   O9    S    
Cu1   O13   S    
C37   H21   S    
C2    C53   A    
C50   H53   S    
C47   H44   S    
C6    C34   A    
C51   C53   A    
C40   H29   S    
C35   O6    S    
C2    C4    A    
C44   H40   S    
C36   H19   S    
C44   H41   S    
C8    O7    S    
C48   H49   S    
C5    C23   A    
C8    C12   S    
C54   H56   S    
H6    N5    S    
Cu2   O12   S    
C33   H14   S    
C32   H11   S    
C48   C49   S    
C21   C28   A    
C20   C22   A    
C12   O13   A    
C38   H25   S    
C22   C24   A    
C42   C43   S    
C31   O5    S    
C11   N3    D    
C11   O10   S    
Cu2   O15   S    
C16   C25   A    
C7    C9    D    
C41   H32   S    
C46   C47   S    
C35   H17   S    
C28   H12   S    
C1    C7    S    
C51   O6    S    
C16   O18   S    
C3    C5    A    
C3    H58   S    
H8    N6    S    
C18   N1    A    
C32   H13   S    
C20   C27   A    
Cu1   O14   S    
C37   H22   S    
Cu1   O17   S    
C9    H4    S    
C2    H57   S    
C32   C33   S    
C28   C30   A    
C10   H3    S    
C39   H27   S    
C5    N2    S    
H7    N6    S    
C11   C13   S    
C23   H45   S    
C30   N6    S    
C19   N2    A    
C43   H37   S    
C18   C20   A    
C1    O1    A    
C6    N1    S    
Cu2   O11   S    
C33   H15   S    
C17   O2    S    
C15   O15   A    
C26   C29   A    
C8    C10   D    
C49   C50   S    
C21   C24   A    
C4    H2    S    
C13   O9    S    
C17   N2    A    
C15   O17   A    
Cu1   N4    S    
