data_mof_unit_64523.cif
_audit_creation_date              2012-12-10T19:27:27-0500
_audit_creation_method            fapswitch 2.2
_symmetry_space_group_name_H-M    P1
_symmetry_Int_Tables_number       1
_space_group_crystal_system       triclinic
_cell_length_a                    18.930421
_cell_length_b                    18.640344
_cell_length_c                    18.572098
_cell_angle_alpha                 108.900124
_cell_angle_beta                  109.212858
_cell_angle_gamma                 109.793565
_cell_volume                      5075.99705216

loop_
_atom_site_label
_atom_site_type_symbol
_atom_type_description
_atom_site_fract_x
_atom_site_fract_y
_atom_site_fract_z
_atom_type_partial_charge
C1    C     C_R   0.377411 0.379992 0.497858 0.961989
C2    C     C_R   0.757943 0.581961 0.758489 0.071698
C3    C     C_R   0.818153 0.503225 0.813809 -0.148753
C4    C     C_R   0.756218 0.424257 0.735920 0.048904
C5    C     C_R   0.682696 0.420156 0.679557 -0.066961
C6    C     C_R   0.686240 0.500117 0.687790 -0.162787
C7    C     C_R   0.764733 0.348568 0.714369 -0.248328
C8    C     C_R   0.697109 0.268579 0.642748 -0.291100
C9    C     C_R   0.618065 0.261263 0.597333 0.678804
C10   C     C_R   0.609171 0.335768 0.618443 0.176568
C11   C     C_R   0.251349 0.233152 0.421479 0.195777
C12   C     C_R   0.619384 0.499233 0.620486 0.928696
C13   C     C_R   0.307697 0.315228 0.495823 -0.085180
C14   C     C_R   0.293622 0.335798 0.567880 -0.165688
C15   C     C_R   0.231124 0.270748 0.568980 -0.205464
C16   C     C_R   0.181961 0.186260 0.497376 -0.067013
C17   C     C_R   0.187765 0.169694 0.421581 0.143230
C18   C     C_3   0.198651 0.098736 0.368860 -0.550215
C19   C     C_3   0.269234 0.168873 0.369140 -0.391358
C20   C     C_R   0.247273 0.424477 0.239378 0.098720
C21   C     C_R   0.314708 0.500903 0.314725 -0.098569
C22   C     C_R   0.316353 0.580229 0.326726 -0.200219
C23   C     C_R   0.619940 0.620121 0.500121 0.856636
C24   C     C_R   0.251641 0.580271 0.262355 -0.198329
C25   C     C_R   0.184010 0.500732 0.187348 -0.071533
C26   C     C_R   0.183990 0.424397 0.179039 0.066822
C27   C     C_3   0.137743 0.328332 0.119853 -0.509741
C28   C     C_3   0.209409 0.327887 0.189710 0.102899
C29   C     C_R   0.770345 0.704306 0.542664 0.078561
C30   C     C_R   0.685997 0.687407 0.502304 -0.059142
C31   C     C_R   0.668568 0.745598 0.477726 -0.212690
C32   C     C_R   0.733460 0.811519 0.479901 -0.209477
C33   C     C_R   0.815773 0.819728 0.508488 -0.108806
C34   C     C_R   0.379838 0.499822 0.379870 0.895007
C35   C     C_R   0.834840 0.770055 0.545871 0.125873
C36   C     C_3   0.877772 0.717365 0.529064 -0.401839
C37   C     C_3   0.806352 0.644751 0.525486 -0.507957
C38   C     C_R   0.000614 0.379871 0.880425 0.871102
C39   C     C_R   0.881140 0.502003 0.881254 0.870491
C40   C     C_R   0.999542 0.620529 0.119947 0.867125
C41   C     C_R   0.119357 0.499626 0.120147 0.886072
C42   C     C_R   0.999849 0.119350 0.619912 0.871011
C43   C     C_R   0.119118 0.119079 0.498448 0.864689
C44   C     C_R   0.999312 0.879819 0.379954 0.876826
C45   C     C_R   0.770324 0.663341 0.763506 -0.158962
C46   C     C_R   0.880358 0.880506 0.501465 0.867532
C47   C     C_R   0.934635 0.229214 0.765599 0.133276
C48   C     C_R   0.002411 0.314617 0.815631 -0.117901
C49   C     C_R   0.072990 0.335675 0.800056 -0.200545
C50   C     C_R   0.072887 0.270782 0.735381 -0.217601
C51   C     C_R   0.001590 0.185726 0.685477 -0.069107
C52   C     C_R   0.933683 0.167812 0.702234 0.115923
C53   C     C_3   0.848641 0.097424 0.677311 -0.514991
C54   C     C_3   0.849431 0.167937 0.750027 -0.445220
C55   C     C_R   0.936015 0.664331 0.210326 0.030884
C56   C     C_R   0.835151 0.742110 0.839029 -0.132998
C57   C     C_R   0.995222 0.687273 0.181405 -0.065369
C58   C     C_R   0.048427 0.776125 0.210629 -0.198018
C59   C     C_R   0.049835 0.840096 0.276596 -0.212324
C60   C     C_R   0.998295 0.814974 0.312854 0.010245
C61   C     C_R   0.937078 0.727726 0.275018 -0.027601
C62   C     C_3   0.918351 0.672469 0.316586 0.445457
C63   C     C_3   0.917247 0.602457 0.245183 -0.463314
C64   C     C_R   0.889263 0.741806 0.910562 -0.131086
C65   C     C_R   0.882084 0.663036 0.904761 -0.154995
C66   C     C_R   0.819458 0.582612 0.826687 0.073446
H1    H     H_    0.222889 0.285449 0.626114 0.142082
H2    H     H_    0.222796 0.067820 0.405705 0.220659
H3    H     H_    0.140914 0.052383 0.302894 0.214746
H4    H     H_    0.334386 0.178735 0.406316 0.250313
H5    H     H_    0.252358 0.162471 0.303282 0.227462
H6    H     H_    0.367877 0.641659 0.384577 0.162898
H7    H     H_    0.254033 0.641599 0.271245 0.160875
H8    H     H_    0.072708 0.295129 0.112462 0.245877
H9    H     H_    0.139537 0.311851 0.057583 0.175676
H10   H     H_    0.731604 0.667820 0.709392 0.152834
H11   H     H_    0.251285 0.308924 0.167444 0.137449
H12   H     H_    0.604283 0.737321 0.453043 0.147229
H13   H     H_    0.718437 0.853342 0.456154 0.171583
H14   H     H_    0.876310 0.700526 0.465310 0.224478
H15   H     H_    0.942170 0.746104 0.586106 0.218838
H16   H     H_    0.763409 0.585680 0.459593 0.221729
H17   H     H_    0.829456 0.631712 0.580584 0.209003
H18   H     H_    0.127964 0.401305 0.837801 0.173104
H19   H     H_    0.127312 0.286885 0.723869 0.143812
H20   H     H_    0.798118 0.074035 0.610328 0.215007
H21   H     H_    0.842840 0.803526 0.842279 0.141382
H22   H     H_    0.853986 0.045476 0.691714 0.206315
H23   H     H_    0.799347 0.185285 0.725295 0.200330
H24   H     H_    0.855033 0.156535 0.806316 0.211932
H25   H     H_    0.091585 0.796236 0.185807 0.170847
H26   H     H_    0.093140 0.908450 0.301500 0.133832
H27   H     H_    0.855015 0.654153 0.314242 0.049936
H28   H     H_    0.970841 0.589085 0.269443 0.232922
H29   H     H_    0.852269 0.543407 0.199560 0.162019
H30   H     H_    0.938330 0.802881 0.969984 0.141618
H31   H     H_    0.926550 0.666338 0.961723 0.145632
H32   H     H_    0.823599 0.350807 0.752213 0.170252
H33   H     H_    0.704020 0.211030 0.626443 0.175748
H34   H     H_    0.333891 0.400258 0.625088 0.174662
O1    O     O_R   0.408400 0.356680 0.448290 -0.593100
O2    O     O_R   0.051700 0.460090 0.908430 -0.622614
O3    O     O_R   0.856640 0.448300 0.908430 -0.609581
O4    O     O_R   0.960090 0.551710 0.908400 -0.626922
O5    O     O_R   0.948250 0.539920 0.091630 -0.615292
O6    O     O_R   0.051690 0.643330 0.091610 -0.637683
O7    O     O_R   0.039870 0.448310 0.091660 -0.613534
O8    O     O_R   0.143310 0.551720 0.091640 -0.623875
O9    O     O_R   0.051740 0.091620 0.643380 -0.623876
O10   O     O_R   0.948300 0.091670 0.539990 -0.617874
O11   O     O_R   0.143340 0.091640 0.551750 -0.614883
O12   O     O_R   0.408370 0.460100 0.551700 -0.626681
O13   O     O_R   0.039900 0.091690 0.448360 -0.613733
O14   O     O_R   0.051700 0.908430 0.460110 -0.572060
O15   O     O_R   0.948260 0.908480 0.356720 -0.635476
O16   O     O_R   0.960100 0.908410 0.551740 -0.610949
O17   O     O_R   0.856660 0.908460 0.448350 -0.628629
O18   O     O_R   0.591630 0.448290 0.539910 -0.603031
O19   O     O_R   0.591590 0.551710 0.643320 -0.622772
O20   O     O_R   0.591630 0.539900 0.448300 -0.624103
O21   O     O_R   0.591600 0.643320 0.551710 -0.633126
O22   O     O_R   0.408410 0.448290 0.356680 -0.625520
O23   O     O_R   0.408370 0.551710 0.460090 -0.621062
O24   O     O_R   0.948260 0.356680 0.908450 -0.625951
Zn1   Zn    Zn3+2 0.500020 0.430950 0.430950 0.994978
Zn2   Zn    Zn3+2 0.499980 0.569050 0.569050 0.976737
Zn3   Zn    Zn3+2 0.930910 0.430960 0.000050 0.972429
Zn4   Zn    Zn3+2 0.069050 0.569060 0.000020 0.959374
Zn5   Zn    Zn3+2 0.069070 0.000020 0.569080 1.009474
Zn6   Zn    Zn3+2 0.930930 0.000080 0.431020 0.975248
F1    F     F_    0.548662 0.180784 0.536666 -0.637226
Br1   Br    Br    0.167983 0.271006 0.249695 -0.553171
F2    F     F_    0.986951 0.706546 0.398495 -0.641285
Br2   Br    Br    0.495352 0.314683 0.590654 -0.490393

loop_
_geom_bond_atom_site_label_1
_geom_bond_atom_site_label_2
_ccdc_geom_bond_type
C34   O23   A    
C7    H32   S    
O6    Zn4   S    
C19   H5    S    
C35   C36   S    
C7    C8    A    
C23   O21   A    
C53   C54   S    
C63   H28   S    
C11   C19   S    
C26   C27   S    
C29   C30   A    
C45   H10   S    
C49   H18   S    
C36   C37   S    
C41   O8    A    
C42   O9    A    
C54   H24   S    
O2    Zn4   S    
C1    O12   A    
C6    C12   S    
C5    C6    A    
C24   H7    S    
C18   H2    S    
C15   C16   A    
C63   H29   S    
C18   C19   S    
C50   H19   S    
O11   Zn5   S    
O16   Zn5   S    
C31   C32   A    
C44   O15   A    
C8    C9    A    
C55   C63   S    
O1    Zn1   S    
C56   C64   A    
C53   H20   S    
O18   Zn1   S    
C27   H8    S    
O3    Zn3   S    
C58   H25   S    
O12   Zn2   S    
C45   C56   A    
C42   C51   S    
C18   H3    S    
C44   O14   A    
C59   C60   A    
C34   O22   A    
C21   C22   A    
C33   C46   S    
C2    C6    A    
C43   O11   A    
C4    C7    A    
C27   H9    S    
C22   H6    S    
C17   C18   S    
C9    F1    S    
C2    C45   A    
O13   Zn6   S    
O5    Zn3   S    
C51   C52   A    
C23   C30   S    
C39   O4    A    
C24   C25   A    
C64   H30   S    
C54   H23   S    
C36   H14   S    
C25   C41   S    
C23   O20   A    
O20   Zn1   S    
C16   C17   A    
C56   H21   S    
C21   C34   S    
C20   C28   S    
C58   C59   A    
O23   Zn2   S    
C46   O17   A    
C60   C61   A    
C28   Br1   S    
C62   C63   S    
C28   H11   S    
C12   O19   A    
C47   C48   A    
O4    Zn4   S    
C36   H15   S    
C15   H1    S    
C50   C51   A    
O8    Zn4   S    
C14   H34   S    
O17   Zn6   S    
C16   C43   S    
C47   C54   S    
C12   O18   A    
C48   C49   A    
C49   C50   A    
O24   Zn3   S    
O9    Zn5   S    
O14   Zn5   S    
C22   C24   A    
C37   H16   S    
C3    C66   A    
C1    C13   S    
C3    C4    A    
C1    O1    A    
C52   C53   S    
C62   F2    S    
C31   H12   S    
C40   O6    A    
C9    C10   A    
C11   C17   A    
C40   C57   S    
C41   O7    A    
C38   C48   S    
C8    H33   S    
C10   Br2   S    
C4    C5    A    
C2    C66   A    
C39   O3    A    
C47   C52   A    
C29   C35   A    
C46   O16   A    
C32   C33   A    
O22   Zn1   S    
C55   C57   A    
C25   C26   A    
C65   H31   S    
O21   Zn2   S    
C38   O2    A    
C64   C65   A    
C32   H13   S    
C11   C13   A    
C57   C58   A    
C30   C31   A    
C20   C26   A    
C44   C60   S    
C55   C61   A    
C33   C35   A    
O10   Zn6   S    
C53   H22   S    
C59   H26   S    
C42   O10   A    
C61   C62   S    
C38   O24   A    
C3    C39   S    
O19   Zn2   S    
C5    C10   A    
C20   C21   A    
C65   C66   A    
C62   H27   S    
C29   C37   S    
C27   C28   S    
C14   C15   A    
C37   H17   S    
C19   H4    S    
O7    Zn3   S    
C13   C14   A    
C43   O13   A    
C40   O5    A    
O15   Zn6   S    
