data_mof_unit_39888.cif
_audit_creation_date              2012-12-11T17:36:22-0500
_audit_creation_method            fapswitch 2.2
_symmetry_space_group_name_H-M    P1
_symmetry_Int_Tables_number       1
_space_group_crystal_system       triclinic
_cell_length_a                    25.843822
_cell_length_b                    6.903551
_cell_length_c                    21.706326
_cell_angle_alpha                 89.991971
_cell_angle_beta                  96.063156
_cell_angle_gamma                 90.002256
_cell_volume                      3851.05182289

loop_
_atom_site_label
_atom_site_type_symbol
_atom_type_description
_atom_site_fract_x
_atom_site_fract_y
_atom_site_fract_z
_atom_type_partial_charge
O1    O     O_R   0.208650 0.594520 0.175450 -0.533573
O2    O     O_R   0.791350 0.405480 0.824550 -0.533572
O3    O     O_R   0.291350 0.094520 0.324550 -0.533560
O4    O     O_R   0.708650 0.905480 0.675450 -0.533560
O5    O     O_R   0.192980 0.260780 0.300160 -0.541127
O6    O     O_R   0.807020 0.739220 0.699840 -0.541128
O7    O     O_R   0.307020 0.760780 0.199840 -0.541121
O8    O     O_R   0.692980 0.239220 0.800160 -0.541121
C1    C     C_R   0.178820 0.432857 0.318461 0.686137
C2    C     C_R   0.821180 0.567143 0.681539 0.686138
C3    C     C_R   0.321179 0.932872 0.181538 0.686152
C4    C     C_R   0.678821 0.067128 0.818461 0.686152
O9    O     O_R   0.202550 0.264660 0.174420 -0.536636
O10   O     O_R   0.797450 0.735340 0.825580 -0.536636
O11   O     O_R   0.297450 0.764660 0.325580 -0.536641
O12   O     O_R   0.702550 0.235340 0.674420 -0.536641
O13   O     O_R   0.300990 0.096480 0.197920 -0.540040
O14   O     O_R   0.699010 0.903520 0.802080 -0.540040
O15   O     O_R   0.199010 0.596480 0.302080 -0.540034
O16   O     O_R   0.800990 0.403520 0.697920 -0.540034
C5    C     C_R   0.191056 0.433295 0.151134 0.712468
C6    C     C_R   0.808944 0.566705 0.848866 0.712468
C7    C     C_R   0.308943 0.933280 0.348869 0.712456
C8    C     C_R   0.691057 0.066720 0.651131 0.712457
O17   O     O_3   0.282290 0.427760 0.257860 -0.365643
O18   O     O_3   0.717710 0.572240 0.742140 -0.365643
O19   O     O_3   0.217710 0.927760 0.242140 -0.365646
O20   O     O_3   0.782290 0.072240 0.757860 -0.365646
V1    V     V_3+5 0.244010 0.152080 0.248540 1.425707
V2    V     V_3+5 0.755990 0.847920 0.751460 1.425706
V3    V     V_3+5 0.255990 0.652080 0.251460 1.425713
V4    V     V_3+5 0.744010 0.347920 0.748540 1.425713
C9    C     C_R   0.657554 0.061691 0.591774 -0.083818
C10   C     C_R   0.342446 0.938309 0.408226 -0.083818
C11   C     C_R   0.842445 0.561663 0.908223 -0.083820
C12   C     C_R   0.157555 0.438337 0.091776 -0.083819
C13   C     C_R   0.646997 0.131062 0.481801 0.171177
C14   C     C_R   0.353003 0.868938 0.518199 0.171177
C15   C     C_R   0.853016 0.631276 0.018174 0.171172
C16   C     C_R   0.146984 0.368724 0.981826 0.171172
C17   C     C_R   0.678272 0.119209 0.538016 -0.175716
C18   C     C_R   0.321728 0.880791 0.461984 -0.175716
C19   C     C_R   0.821736 0.619314 0.961967 -0.175682
C20   C     C_R   0.178264 0.380686 0.038032 -0.175682
C21   C     C_R   0.604465 0.015980 0.589472 -0.211869
C22   C     C_R   0.395535 0.984020 0.410528 -0.211869
C23   C     C_R   0.895531 0.515909 0.910530 -0.211875
C24   C     C_R   0.104469 0.484091 0.089470 -0.211875
C25   C     C_R   0.570842 0.029731 0.533139 0.064315
C26   C     C_R   0.429158 0.970269 0.466861 0.064315
C27   C     C_R   0.929158 0.529734 0.966858 0.064322
C28   C     C_R   0.070842 0.470266 0.033142 0.064321
C29   C     C_R   0.593223 0.087948 0.478852 0.080072
C30   C     C_R   0.406777 0.912052 0.521147 0.080072
C31   C     C_R   0.906786 0.588109 0.021129 0.080083
C32   C     C_R   0.093213 0.411891 0.978871 0.080083
C33   C     C_R   0.515840 0.990432 0.529047 0.072486
C34   C     C_R   0.484160 0.009568 0.470953 0.072486
C35   C     C_R   0.984158 0.490375 0.970958 0.072487
C36   C     C_R   0.015842 0.509625 0.029041 0.072487
C37   C     C_R   0.508583 0.066695 0.418798 -0.188928
C38   C     C_R   0.491417 0.933305 0.581202 -0.188928
C39   C     C_R   0.991432 0.566937 0.081179 -0.188924
C40   C     C_R   0.008568 0.433063 0.918821 -0.188924
C41   C     C_R   0.561552 0.104278 0.422750 -0.153535
C42   C     C_R   0.438448 0.895722 0.577250 -0.153535
C43   C     C_R   0.938465 0.604561 0.077223 -0.153521
C44   C     C_R   0.061535 0.395439 0.922777 -0.153520
H1    H     H_    0.577269 0.147752 0.380680 0.169658
H2    H     H_    0.422730 0.852248 0.619320 0.169658
H3    H     H_    0.922755 0.648204 0.119280 0.169654
H4    H     H_    0.077244 0.351796 0.880720 0.169654
H5    H     H_    0.409285 0.024640 0.367227 0.102236
H6    H     H_    0.590715 0.975360 0.632772 0.102236
H7    H     H_    0.090727 0.524804 0.132764 0.102242
H8    H     H_    0.909273 0.475196 0.867235 0.102242
H9    H     H_    0.280867 0.843273 0.460064 0.135264
H10   H     H_    0.719133 0.156727 0.539936 0.135264
H11   H     H_    0.219121 0.343111 0.039959 0.135267
H12   H     H_    0.780879 0.656888 0.960041 0.135267
H13   H     H_    0.487830 0.084701 0.373530 0.127723
H14   H     H_    0.512170 0.915299 0.626470 0.127723
H15   H     H_    0.012191 0.585080 0.126435 0.127726
H16   H     H_    0.987809 0.414920 0.873565 0.127726
C45   C     C_R   0.427361 0.793672 0.079407 -0.117399
C46   C     C_R   0.572639 0.206328 0.920593 -0.117399
C47   C     C_R   0.072624 0.293659 0.420594 -0.117380
C48   C     C_R   0.927376 0.706341 0.579406 -0.117380
H17   H     H_    0.445649 0.663149 0.064442 0.108570
H18   H     H_    0.554351 0.336851 0.935558 0.108570
H19   H     H_    0.054325 0.163142 0.435559 0.108574
H20   H     H_    0.945675 0.836858 0.564440 0.108574
C49   C     C_R   0.388104 0.778716 0.119365 -0.158736
C50   C     C_R   0.611896 0.221284 0.880635 -0.158736
C51   C     C_R   0.111881 0.278701 0.380636 -0.158757
C52   C     C_R   0.888119 0.721298 0.619364 -0.158757
H21   H     H_    0.377008 0.636350 0.134247 0.118744
H22   H     H_    0.622992 0.363650 0.865753 0.118744
H23   H     H_    0.122967 0.136344 0.365755 0.118738
H24   H     H_    0.877033 0.863656 0.634245 0.118738
C53   C     C_R   0.363489 0.945817 0.139608 -0.057668
C54   C     C_R   0.636511 0.054183 0.860392 -0.057668
C55   C     C_R   0.136510 0.445794 0.360392 -0.057672
C56   C     C_R   0.863490 0.554206 0.639608 -0.057672
C57   C     C_R   0.379416 0.127782 0.118702 -0.157531
C58   C     C_R   0.620583 0.872218 0.881298 -0.157531
C59   C     C_R   0.120595 0.627753 0.381296 -0.157509
C60   C     C_R   0.879405 0.372247 0.618703 -0.157509
H25   H     H_    0.361535 0.259980 0.132930 0.122473
H26   H     H_    0.638465 0.740020 0.867070 0.122473
H27   H     H_    0.138487 0.759948 0.367069 0.122486
H28   H     H_    0.861513 0.240051 0.632931 0.122487
C61   C     C_R   0.418550 0.142235 0.078874 -0.120832
C62   C     C_R   0.581450 0.857765 0.921126 -0.120832
C63   C     C_R   0.081462 0.642208 0.421124 -0.120850
C64   C     C_R   0.918538 0.357792 0.578876 -0.120850
H29   H     H_    0.429850 0.283974 0.063549 0.108582
H30   H     H_    0.570150 0.716026 0.936451 0.108582
H31   H     H_    0.070173 0.783940 0.436447 0.108591
H32   H     H_    0.929827 0.216060 0.563553 0.108591
C65   C     C_R   0.442762 0.975590 0.058893 0.129281
C66   C     C_R   0.557238 0.024410 0.941107 0.129281
C67   C     C_R   0.057237 0.475570 0.441106 0.129274
C68   C     C_R   0.942763 0.524430 0.558894 0.129274
C69   C     C_1   0.483156 0.992334 0.017357 -0.040028
C70   C     C_1   0.516844 0.007666 0.982642 -0.040029
C71   C     C_1   0.016843 0.492325 0.482642 -0.040026
C72   C     C_1   0.983157 0.507675 0.517358 -0.040026
I1    I     I_    0.685013 0.221062 0.404266 -0.351850
I2    I     I_    0.314987 0.778938 0.595734 -0.351850
I3    I     I_    0.815026 0.721659 0.095674 -0.351884
I4    I     I_    0.184974 0.278340 0.904325 -0.351884

loop_
_geom_bond_atom_site_label_1
_geom_bond_atom_site_label_2
_ccdc_geom_bond_type
O17   V3    S    
C48   C52   A    
O1    C5    A    
C47   H19   S    
O19   V1    S    
C9    C21   A    
O3    C7    A    
C10   C18   A    
C48   C68   A    
C11   C23   A    
C25   C33   A    
C33   C38   A    
C5    C12   S    
C4    C54   S    
C6    C11   S    
O5    C1    A    
C26   C30   A    
C58   C62   A    
C36   C39   A    
C14   I2    S    
C57   C61   A    
C23   H8    S    
C14   C18   A    
C40   C44   A    
C58   H26   S    
O4    C8    A    
C51   H23   S    
C44   H4    S    
C50   H22   S    
O1    V3    S    
O13   V1    S    
C31   C43   A    
O2    V4    S    
C38   H14   S    
O3    V1    S    
C40   H16   S    
C46   C50   A    
C45   C49   A    
C1    O15   A    
C15   C31   A    
C48   H20   S    
C2    O16   A    
C16   C32   A    
C47   C51   A    
O2    C6    A    
C45   C65   A    
C10   C22   A    
C11   C19   A    
C16   C20   A    
C43   H3    S    
C1    C55   S    
C68   C72   S    
C13   C29   A    
C34   C37   A    
O11   C7    A    
C16   I4    S    
O15   V3    S    
C35   C36   A    
O12   C8    A    
O17   V1    S    
C24   H7    S    
O10   V2    S    
C51   C55   A    
O5    V1    S    
C53   C57   A    
C39   C43   A    
C63   C67   A    
C38   C42   A    
O19   V3    S    
O8    V4    S    
O20   V4    S    
O7    V3    S    
C46   H18   S    
C49   C53   A    
C17   H10   S    
C45   H17   S    
O18   V4    S    
C15   C19   A    
C19   H12   S    
C32   C44   A    
C60   H28   S    
C39   H15   S    
C21   H6    S    
C26   C34   A    
C66   C70   S    
O7    C3    A    
C65   C69   S    
C37   C41   A    
C67   C71   S    
C14   C30   A    
C21   C25   A    
O8    C4    A    
C7    C10   S    
C35   C40   A    
O9    C5    A    
C3    C53   S    
C59   C63   A    
C62   H30   S    
C61   H29   S    
O6    V2    S    
O18   V2    S    
C63   H31   S    
C52   C56   A    
C69   C70   T    
C12   C20   A    
C27   C35   A    
C71   C72   T    
C49   H21   S    
C56   C60   A    
C29   C41   A    
O16   V4    S    
O9    V1    S    
C57   H25   S    
C3    O13   A    
C64   C68   A    
C59   H27   S    
C20   H11   S    
O6    C2    A    
C23   C27   A    
O11   V3    S    
C30   C42   A    
O12   V4    S    
C22   C26   A    
C8    C9    S    
C9    C17   A    
O10   C6    A    
C2    C56   S    
C37   H13   S    
C47   C67   A    
C60   C64   A    
C33   C34   A    
C42   H2    S    
C15   I3    S    
C41   H1    S    
C52   H24   S    
O20   V2    S    
C13   I1    S    
C12   C24   A    
C27   C31   A    
C13   C17   A    
C46   C66   A    
C25   C29   A    
O14   V2    S    
C62   C66   A    
C64   H32   S    
C24   C28   A    
C61   C65   A    
C50   C54   A    
C18   H9    S    
C28   C36   A    
C54   C58   A    
C4    O14   A    
C55   C59   A    
C22   H5    S    
O4    V2    S    
C28   C32   A    
