data_mof_unit_56154.cif
_audit_creation_date              2012-12-10T20:42:36-0500
_audit_creation_method            fapswitch 2.2
_symmetry_space_group_name_H-M    P1
_symmetry_Int_Tables_number       1
_space_group_crystal_system       triclinic
_cell_length_a                    8.903054
_cell_length_b                    10.678627
_cell_length_c                    9.878275
_cell_angle_alpha                 90.080625
_cell_angle_beta                  90.004889
_cell_angle_gamma                 90.372643
_cell_volume                      939.130444265

loop_
_atom_site_label
_atom_site_type_symbol
_atom_type_description
_atom_site_fract_x
_atom_site_fract_y
_atom_site_fract_z
_atom_type_partial_charge
C1    C     C_R   0.493989 0.260146 0.500092 0.889480
C2    C     C_R   0.422383 0.935740 0.380738 0.524357
C3    C     C_R   0.464886 0.871594 0.499997 -0.234222
C4    C     C_R   0.477292 0.936674 0.621837 0.068270
C5    C     C_3   0.593257 0.930125 0.731123 -0.394559
C6    C     C_3   0.594181 0.071987 0.731648 -0.518033
C7    C     C_R   0.430932 0.405830 0.071098 0.109167
C8    C     C_R   0.584886 0.583373 0.072708 -0.245764
C9    C     C_R   0.589336 0.581994 0.926675 0.560396
C10   C     C_R   0.429460 0.406599 0.929304 0.018244
C11   C     C_3   0.268010 0.367598 0.924491 0.371870
C12   C     C_R   0.218741 0.499956 0.499958 0.925156
C13   C     C_3   0.270172 0.367054 0.078975 -0.532263
C14   C     C_R   0.492552 0.740072 0.499789 0.902430
C15   C     C_R   0.781254 0.500234 0.500010 0.925184
C16   C     C_1   0.065423 0.500168 0.499851 -0.183430
C17   C     C_1   0.934589 0.500268 0.499890 -0.218569
C18   C     C_R   0.478485 0.064099 0.622493 0.129724
C19   C     C_R   0.467166 0.129128 0.501499 -0.166032
C20   C     C_R   0.421418 0.066602 0.383761 -0.343275
H1    H     H_    0.198311 0.439917 0.126118 0.240719
H2    H     H_    0.256561 0.271715 0.122393 0.148811
H3    H     H_    0.700762 0.889178 0.695441 0.215694
H4    H     H_    0.548470 0.112865 0.826572 0.195271
H5    H     H_    0.702085 0.113565 0.696232 0.200485
H6    H     H_    0.647105 0.652140 0.130573 0.159061
N1    N     N_R   0.499010 0.499140 0.142800 -0.095088
N2    N     N_R   0.499010 0.499180 0.857150 -0.118428
O1    O     O_R   0.500020 0.316790 0.614690 -0.632786
O2    O     O_R   0.500000 0.316760 0.385350 -0.623385
O3    O     O_R   0.285350 0.500020 0.614650 -0.568056
O4    O     O_R   0.285340 0.499980 0.385310 -0.615615
O5    O     O_R   0.500000 0.683240 0.614650 -0.572273
O6    O     O_R   0.499980 0.683210 0.385310 -0.575328
O7    O     O_R   0.714660 0.500020 0.614690 -0.595642
O8    O     O_R   0.714650 0.499980 0.385350 -0.621641
Zn1   Zn    Zn3+2 0.500010 0.500020 0.653130 1.008385
Zn2   Zn    Zn3+2 0.499990 0.499980 0.346870 0.966209
H7    H     H_    0.392240 0.118787 0.293808 0.175250
H8    H     H_    0.254548 0.273480 0.876566 0.057677
O9    O     O_3   0.377003 0.870018 0.266163 -0.578141
C21   C     C_3   0.465725 0.904144 0.153380 -0.292170
H9    H     H_    0.449510 0.832599 0.073161 0.194085
H10   H     H_    0.428856 0.994905 0.110362 0.145649
H11   H     H_    0.587794 0.907000 0.178247 0.143190
H12   H     H_    0.547049 0.889613 0.826051 0.222178
O10   O     O_3   0.675579 0.665001 0.850193 -0.589148
C22   C     C_3   0.801469 0.713131 0.920394 -0.406647
H13   H     H_    0.881213 0.752818 0.845346 0.211235
H14   H     H_    0.862598 0.639244 0.977090 0.178253
H15   H     H_    0.767355 0.790738 0.988559 0.162136
O11   O     O_3   0.176294 0.463399 0.872012 -0.555591
C23   C     C_3   0.030477 0.415200 0.850305 -0.287156
H16   H     H_    0.031108 0.338400 0.774033 0.149659
H17   H     H_    0.959329 0.490906 0.809203 0.217343
H18   H     H_    0.978833 0.382466 0.946650 0.147675

loop_
_geom_bond_atom_site_label_1
_geom_bond_atom_site_label_2
_ccdc_geom_bond_type
C14   O6    A    
C7    C10   A    
O4    Zn2   S    
C8    H6    S    
O9    C21   S    
C19   C20   A    
C5    H3    S    
C6    H4    S    
C14   O5    A    
O8    Zn2   S    
C2    C3    A    
C9    N2    A    
C4    C18   A    
C23   H16   S    
C12   O4    A    
C22   H14   S    
C11   C13   S    
C5    C6    S    
C3    C14   S    
C21   H10   S    
N2    Zn1   S    
C4    C5    S    
C1    O1    A    
C1    O2    A    
O7    Zn1   S    
C13   H2    S    
C9    O10   S    
C10   C11   S    
C23   H17   S    
C12   O3    A    
C11   H8    S    
C6    C18   S    
C1    C19   S    
C6    H5    S    
O1    Zn1   S    
C21   H9    S    
C2    O9    S    
C10   N2    A    
C3    C4    A    
C12   C16   S    
C15   O8    A    
C7    C13   S    
C13   H1    S    
C7    N1    A    
O11   C23   S    
O2    Zn2   S    
C18   C19   A    
C5    H12   S    
C23   H18   S    
C15   O7    A    
C15   C17   S    
C20   H7    S    
C22   H13   S    
C11   O11   S    
N1    Zn2   S    
C8    N1    A    
O6    Zn2   S    
C2    C20   A    
C22   H15   S    
O5    Zn1   S    
O10   C22   S    
C16   C17   T    
O3    Zn1   S    
C8    C9    A    
C21   H11   S    
