data_mof_unit_67878.cif
_audit_creation_date              2013-03-05T15:41:51-0500
_audit_creation_method            fapswitch 2.2
_symmetry_space_group_name_H-M    P1
_symmetry_Int_Tables_number       1
_space_group_crystal_system       triclinic
_cell_length_a                    7.925112
_cell_length_b                    8.5872
_cell_length_c                    10.619838
_cell_angle_alpha                 94.917894
_cell_angle_beta                  86.289104
_cell_angle_gamma                 92.439623
_cell_volume                      718.059341738

loop_
_atom_site_label
_atom_site_type_symbol
_atom_site_description
_atom_site_fract_x
_atom_site_fract_y
_atom_site_fract_z
_atom_type_partial_charge
O1    O     O_R   0.389250 0.738570 0.508410 -0.631442
O2    O     O_R   0.610750 0.261430 0.491590 -0.626054
O3    O     O_R   0.678390 0.711620 0.486450 -0.610488
O4    O     O_R   0.321610 0.288380 0.513550 -0.590045
C1    C     C_R   0.543918 0.793719 0.497658 0.963538
C2    C     C_R   0.455906 0.205913 0.498022 0.963901
O5    O     O_R   0.355460 0.513510 0.697030 -0.605305
O6    O     O_R   0.644540 0.486490 0.302970 -0.657024
O7    O     O_R   0.644600 0.486560 0.675070 -0.615497
O8    O     O_R   0.355400 0.513440 0.324930 -0.606221
C3    C     C_R   0.504951 0.523540 0.741790 0.901242
C4    C     C_R   0.496489 0.492386 0.257986 0.903312
Zn1   Zn    Zn3+2 0.306940 0.517990 0.514670 0.960871
Zn2   Zn    Zn3+2 0.693060 0.482010 0.485330 0.940712
N1    N     N_2   0.950320 0.457950 0.465730 0.030722
N2    N     N_2   0.049680 0.542050 0.534270 0.023784
C5    C     C_3   0.405882 0.644930 0.982401 0.197618
C6    C     C_3   0.596272 0.402087 0.022309 0.128159
C7    C     C_3   0.560786 0.654082 0.065431 0.178014
C8    C     C_3   0.440653 0.392322 0.942941 0.147489
C9    C     C_3   0.494015 0.502653 0.124112 -0.280418
C10   C     C_3   0.507452 0.539420 0.879200 -0.263497
C11   C     C_3   0.339841 0.496647 0.043234 0.156240
C12   C     C_3   0.661954 0.551661 0.962973 0.155782
C13   C     C_2   0.566588 0.956940 0.501144 -0.387110
C14   C     C_2   0.433647 0.041961 0.489361 -0.412088
N3    N     N_2   0.630485 0.772957 0.156213 -0.295747
H1    H     H_    0.737632 0.742004 0.196659 0.243242
C15   C     C_3   0.621863 0.937311 0.140927 -0.806312
H2    H     H_    0.515711 0.987017 0.202348 0.256901
H3    H     H_    0.609849 0.956927 0.040472 0.269701
H4    H     H_    0.739625 0.999082 0.172678 0.223854
N4    N     N_2   0.358111 0.256023 0.879036 -0.279026
H5    H     H_    0.261423 0.205034 0.932494 0.220460
C16   C     C_3   0.463213 0.143822 0.806333 -0.768493
H6    H     H_    0.381711 0.060325 0.749781 0.230134
H7    H     H_    0.531356 0.076346 0.869671 0.240810
H8    H     H_    0.554655 0.202597 0.741243 0.257861
N5    N     N_2   0.306876 0.772436 0.949489 -0.290876
H9    H     H_    0.344593 0.815634 0.864165 0.213592
C17   C     C_3   0.255870 0.891042 0.048553 -0.834079
H10   H     H_    0.124819 0.924115 0.037132 0.227379
H11   H     H_    0.334666 0.999155 0.040811 0.243650
H12   H     H_    0.262499 0.849739 0.144279 0.267248
N6    N     N_2   0.695801 0.271232 0.046803 -0.302884
H13   H     H_    0.734325 0.275671 0.137764 0.238868
C18   C     C_3   0.829909 0.227573 0.952928 -0.837840
H14   H     H_    0.868978 0.107764 0.965228 0.234482
H15   H     H_    0.941231 0.307754 0.964511 0.269558
H16   H     H_    0.789637 0.231054 0.855457 0.257614
N7    N     N_2   0.169146 0.451398 0.085477 -0.307108
H17   H     H_    0.162335 0.347115 0.126906 0.205821
C19   C     C_3   0.062698 0.570847 0.147603 -0.733293
H18   H     H_    0.933777 0.520596 0.167200 0.237481
H19   H     H_    0.048022 0.662842 0.084560 0.291263
H20   H     H_    0.113871 0.622000 0.237151 0.252747
N8    N     N_2   0.832920 0.591260 0.918252 -0.280799
H21   H     H_    0.877434 0.515660 0.844536 0.255016
C20   C     C_3   0.865590 0.755570 0.900610 -0.840553
H22   H     H_    0.998744 0.778578 0.869008 0.250691
H23   H     H_    0.854715 0.825637 0.991374 0.259076
H24   H     H_    0.778970 0.796548 0.833232 0.245995
N9    N     N_2   0.026258 0.341761 0.387928 -0.191427
H25   H     H_    0.990962 0.343583 0.297099 0.206320
C21   C     C_3   0.988957 0.186838 0.427679 -0.700656
H26   H     H_    0.087949 0.107744 0.385104 0.200955
H27   H     H_    0.867744 0.140186 0.390815 0.219223
H28   H     H_    0.985127 0.186792 0.532555 0.242550
N10   N     N_2   0.975337 0.651152 0.617785 -0.190995
H29   H     H_    0.025508 0.640684 0.702286 0.226730
C22   C     C_3   0.005869 0.809286 0.582466 -0.701470
H30   H     H_    0.129595 0.856774 0.614491 0.219552
H31   H     H_    0.907151 0.884904 0.630558 0.208148
H32   H     H_    0.002100 0.814288 0.478397 0.235201
H33   H     H_    0.691380 0.007084 0.518802 0.170121
H34   H     H_    0.308391 0.991215 0.473721 0.173116

loop_
_geom_bond_atom_site_label_1
_geom_bond_atom_site_label_2
_geom_bond_distance
_ccdc_geom_bond_type
N9    C21   1.442953 S    
N3    C15   1.439385 S    
C6    C9    1.535405 S    
C17   H10   1.105152 S    
C16   H6    1.108580 S    
N5    C17   1.450449 S    
C19   H18   1.106242 S    
O5    C3    1.301598 A    
C5    C11   1.534010 S    
O1    C1    1.296738 A    
C16   H7    1.104678 S    
C15   H4    1.110851 S    
N8    C20   1.449450 S    
N1    N2    1.267705 D    
C5    N5    1.452904 S    
O4    Zn1   1.979041 S    
N10   C22   1.445967 S    
N4    C16   1.440750 S    
C12   N8    1.442974 S    
C21   H27   1.107062 S    
C14   H34   1.083968 S    
C7    N3    1.459052 S    
C6    C8    1.533662 S    
N6    C18   1.448007 S    
C20   H22   1.101367 S    
C17   H11   1.102594 S    
O2    C2    1.297217 A    
C18   H16   1.105947 S    
C19   H19   1.092889 S    
C20   H23   1.092143 S    
N7    H17   1.028967 S    
C16   H8    1.105245 S    
C18   H15   1.102441 S    
N5    H9    1.030114 S    
C22   H31   1.108714 S    
C13   C14   1.325488 D    
N6    H13   1.028921 S    
C4    C9    1.433414 S    
N7    C19   1.443842 S    
O7    Zn2   2.024077 S    
C15   H2    1.107791 S    
C11   N7    1.445277 S    
C18   H14   1.107612 S    
C8    C11   1.537040 S    
O6    C4    1.299705 A    
C21   H28   1.112246 S    
N4    H5    1.029043 S    
O7    C3    1.310569 A    
O3    Zn2   1.979041 S    
O8    C4    1.296394 A    
C1    C13   1.403104 S    
C8    N4    1.454128 S    
O4    C2    1.297255 A    
C8    C10   1.541864 S    
C9    C11   1.534987 S    
C17   H12   1.110112 S    
C6    C12   1.535312 S    
O1    Zn1   1.982065 S    
C6    N6    1.450725 S    
C19   H20   1.106769 S    
C20   H24   1.111031 S    
O6    Zn2   2.002577 S    
C7    C9    1.548212 S    
N2    N10   1.359550 S    
O3    C1    1.296178 A    
O8    Zn1   2.024077 S    
C22   H32   1.112073 S    
C3    C10   1.455280 S    
C5    C10   1.564500 S    
C7    C12   1.543799 S    
C22   H30   1.108500 S    
C15   H3    1.104920 S    
N8    H21   1.027315 S    
C2    C14   1.407298 S    
C5    C7    1.552669 S    
C10   C12   1.554295 S    
N10   H29   1.017117 S    
O2    Zn2   1.982065 S    
N9    H25   1.023138 S    
O5    Zn1   2.002579 S    
C21   H26   1.108150 S    
Zn1   N2    2.053371 S    
N3    H1    1.030635 S    
N1    N9    1.373222 S    
Zn2   N1    2.053371 S    
C13   H33   1.082858 S    
