data_mof_unit_22497.cif
_audit_creation_date              2012-12-10T16:57:07-0500
_audit_creation_method            fapswitch 2.2
_symmetry_space_group_name_H-M    P1
_symmetry_Int_Tables_number       1
_space_group_crystal_system       triclinic
_cell_length_a                    7.777349
_cell_length_b                    8.576268
_cell_length_c                    16.567126
_cell_angle_alpha                 91.794698
_cell_angle_beta                  80.669422
_cell_angle_gamma                 93.725841
_cell_volume                      1087.87026631

loop_
_atom_site_label
_atom_site_type_symbol
_atom_type_description
_atom_site_fract_x
_atom_site_fract_y
_atom_site_fract_z
_atom_type_partial_charge
C1    C     C_R   0.546173 0.794767 0.497861 0.969495
C2    C     C_R   0.419403 0.314013 0.238291 -0.012428
C3    C     C_R   0.591334 0.460841 0.863751 -0.185044
C4    C     C_R   0.444934 0.256243 0.158130 -0.191524
C5    C     C_R   0.451201 0.359533 0.898394 0.180332
C6    C     C_R   0.580611 0.320868 0.100774 0.173905
C7    C     C_R   0.310521 0.324602 0.856935 -0.179713
C8    C     C_R   0.695820 0.439207 0.124156 -0.163748
C9    C     C_R   0.315485 0.380500 0.778806 -0.201363
C10   C     C_R   0.670223 0.498842 0.203731 -0.206481
C11   C     C_2   0.441560 0.303969 0.981564 -0.216883
C12   C     C_R   0.453838 0.205234 0.502052 0.968146
C13   C     C_2   0.586192 0.287525 0.013790 -0.232184
C14   C     C_1   0.743760 0.621327 0.752459 0.155974
C15   C     C_1   0.286893 0.234808 0.296663 0.153385
C16   C     C_2   0.570488 0.958249 0.496606 -0.377888
C17   C     C_2   0.429541 0.041762 0.503047 -0.364156
C18   C     C_R   0.477383 0.501367 0.654666 0.858765
C19   C     C_R   0.521474 0.490029 0.345705 0.856695
C20   C     C_R   0.461044 0.472617 0.741697 -0.077424
C21   C     C_R   0.529925 0.439843 0.260690 -0.072165
C22   C     C_R   0.597641 0.516943 0.785538 -0.010222
H1    H     H_    0.759851 0.591244 0.221019 0.151727
H2    H     H_    0.296467 0.990677 0.509094 0.187228
H3    H     H_    0.022426 0.379877 0.439656 0.209873
H4    H     H_    0.977559 0.620753 0.560146 0.206211
H5    H     H_    0.209187 0.345470 0.745911 0.165549
H6    H     H_    0.713313 0.291434 0.975107 0.149212
H7    H     H_    0.314291 0.300879 0.020223 0.152985
H8    H     H_    0.198839 0.251329 0.884323 0.134509
H9    H     H_    0.800416 0.490514 0.079830 0.130218
H10   H     H_    0.358055 0.162317 0.139884 0.139145
H11   H     H_    0.694816 0.498727 0.897843 0.131426
H12   H     H_    0.703566 0.009350 0.490499 0.186755
N1    N     N_2   0.953500 0.457650 0.478520 -0.172190
N2    N     N_2   0.046500 0.542350 0.521480 -0.170795
N3    N     N_1   0.860781 0.705067 0.726216 -0.216473
N4    N     N_1   0.181175 0.169407 0.342828 -0.222268
O1    O     O_R   0.388470 0.738640 0.505270 -0.607981
O2    O     O_R   0.611530 0.261360 0.494730 -0.611038
O3    O     O_R   0.679650 0.711510 0.491500 -0.624933
O4    O     O_R   0.320350 0.288490 0.508500 -0.622103
O5    O     O_R   0.337210 0.515200 0.623500 -0.611936
O6    O     O_R   0.662790 0.484800 0.376500 -0.608719
O7    O     O_R   0.628380 0.488060 0.609730 -0.612534
O8    O     O_R   0.371620 0.511940 0.390270 -0.613749
Zn1   Zn    Zn3+2 0.305580 0.518120 0.509190 0.962522
Zn2   Zn    Zn3+2 0.694420 0.481880 0.490810 0.961887

loop_
_geom_bond_atom_site_label_1
_geom_bond_atom_site_label_2
_ccdc_geom_bond_type
C12   C17   S    
C12   O2    A    
C2    C4    A    
C15   N4    T    
C10   H1    S    
C9    C20   A    
N1    N2    D    
C14   C22   S    
C2    C21   A    
C19   O8    A    
C1    C16   S    
C13   H6    S    
C7    H8    S    
C18   O5    A    
C6    C13   S    
C2    C15   S    
C11   C13   D    
C11   H7    S    
C4    H10   S    
H3    N1    S    
C6    C8    A    
N1    Zn2   S    
H4    N2    S    
C19   C21   S    
O3    Zn2   S    
C20   C22   A    
C5    C11   S    
C18   C20   S    
O4    Zn1   S    
C10   C21   A    
C17   H2    S    
C1    O1    A    
C18   O7    A    
C3    C5    A    
C19   O6    A    
C9    H5    S    
N2    Zn1   S    
C7    C9    A    
C4    C6    A    
O7    Zn2   S    
C1    O3    A    
C5    C7    A    
C3    H11   S    
O2    Zn2   S    
C3    C22   A    
C12   O4    A    
C16   H12   S    
O8    Zn1   S    
O1    Zn1   S    
O5    Zn1   S    
C8    C10   A    
C8    H9    S    
O6    Zn2   S    
C16   C17   D    
C14   N3    T    
