data_mof_unit_18793.cif
_audit_creation_date              2012-12-10T17:18:58-0500
_audit_creation_method            fapswitch 2.2
_symmetry_space_group_name_H-M    P1
_symmetry_Int_Tables_number       1
_space_group_crystal_system       triclinic
_cell_length_a                    10.211222
_cell_length_b                    10.884617
_cell_length_c                    13.598085
_cell_angle_alpha                 93.040872
_cell_angle_beta                  100.176764
_cell_angle_gamma                 93.41654
_cell_volume                      1481.82856726

loop_
_atom_site_label
_atom_site_type_symbol
_atom_type_description
_atom_site_fract_x
_atom_site_fract_y
_atom_site_fract_z
_atom_type_partial_charge
C1    C     C_R   0.051090 0.732913 0.498889 0.958562
C2    C     C_R   0.949529 0.268498 0.506187 0.983778
C3    C     C_R   0.480171 0.623915 0.117171 -0.126473
C4    C     C_R   0.575363 0.533229 0.873673 -0.091474
C5    C     C_R   0.348986 0.652569 0.086478 -0.144543
C6    C     C_R   0.695906 0.482384 0.902935 -0.060433
C7    C     C_2   0.074676 0.866087 0.512968 -0.397903
C8    C     C_2   0.924685 0.138072 0.507361 -0.386368
C9    C     C_2   0.986797 0.938632 0.548733 0.345811
C10   C     C_2   0.016269 0.069065 0.556246 0.305546
C11   C     C_2   0.429380 0.510717 0.508529 -0.066419
C12   C     C_2   0.570652 0.489418 0.491296 -0.098140
C13   C     C_R   0.094698 0.515911 0.686921 0.991814
C14   C     C_R   0.907355 0.487892 0.313991 0.956817
C15   C     C_R   0.151135 0.542698 0.794653 -0.227240
C16   C     C_R   0.863301 0.491452 0.206381 -0.239347
C17   C     C_R   0.151264 0.644745 0.958416 -0.199485
C18   C     C_R   0.865700 0.422067 0.034812 -0.201273
C19   C     C_R   0.085321 0.609474 0.861345 0.351956
C20   C     C_R   0.916758 0.418251 0.136396 0.344488
C21   C     C_R   0.282964 0.512815 0.828977 0.274548
C22   C     C_R   0.763054 0.569739 0.173127 0.254567
C23   C     C_R   0.356727 0.570639 0.918364 -0.002679
C24   C     C_R   0.690985 0.549759 0.075336 0.021099
C25   C     C_R   0.286187 0.625640 0.987430 0.053117
C26   C     C_R   0.751223 0.484382 0.004053 0.035048
C27   C     C_R   0.496328 0.563736 0.945262 0.078312
C28   C     C_R   0.558119 0.583917 0.046939 0.096766
H1    H     H_    0.293615 0.687179 0.141902 0.165795
H2    H     H_    0.745354 0.441004 0.846476 0.185205
H3    H     H_    0.097404 0.688985 0.010846 0.194530
H4    H     H_    0.910206 0.370181 0.980498 0.200092
H5    H     H_    0.515968 0.628824 0.196722 0.202585
H6    H     H_    0.539787 0.538971 0.794369 0.179544
H7    H     H_    0.832710 0.096194 0.462150 0.181697
H8    H     H_    0.165768 0.907560 0.494006 0.170184
H9    H     H_    0.582603 0.416910 0.436359 0.167452
H10   H     H_    0.417407 0.583641 0.563129 0.169623
H11   H     H_    0.661834 0.620573 0.591451 0.233548
H12   H     H_    0.337828 0.377902 0.409621 0.198148
N1    N     N_2   0.322180 0.446120 0.460900 -0.161575
N2    N     N_2   0.677820 0.553880 0.539100 -0.146284
O1    O     O_R   0.935190 0.693030 0.507870 -0.514657
O2    O     O_R   0.064810 0.306970 0.492130 -0.550404
O3    O     O_R   0.142080 0.658430 0.482770 -0.631235
O4    O     O_R   0.857920 0.341570 0.517230 -0.618184
O5    O     O_R   0.969700 0.527180 0.651960 -0.564974
O6    O     O_R   0.030300 0.472820 0.348040 -0.579140
O7    O     O_R   0.176600 0.492580 0.626860 -0.570133
O8    O     O_R   0.823400 0.507420 0.373140 -0.594888
Zn1   Zn    Zn3+2 0.861850 0.523100 0.516760 1.086993
Zn2   Zn    Zn3+2 0.138150 0.476900 0.483240 1.062285
Cl1   Cl    Cl    0.757003 0.710455 0.244311 -0.567839
Cl2   Cl    Cl    0.340931 0.378396 0.776145 -0.501962
Cl3   Cl    Cl    0.046461 0.320707 0.171452 -0.565510
Cl4   Cl    Cl    0.920222 0.649112 0.830672 -0.558721
S1    S     S_3+6 0.150246 0.128057 0.650117 0.074447
O9    O     O_2   0.258626 0.186767 0.602773 -0.222354
O10   O     O_2   0.098328 0.221395 0.716227 -0.284668
O11   O     O_3   0.211695 0.013722 0.719039 -0.537022
H13   H     H_    0.282262 0.054973 0.771868 0.410912
S2    S     S_3+6 0.834639 0.892628 0.589724 0.077785
O12   O     O_2   0.731692 0.843789 0.501022 -0.240585
O13   O     O_2   0.857494 0.794883 0.663007 -0.233987
O14   O     O_3   0.774944 0.013319 0.645864 -0.510837
H14   H     H_    0.840443 0.034529 0.708299 0.383680

loop_
_geom_bond_atom_site_label_1
_geom_bond_atom_site_label_2
_ccdc_geom_bond_type
C19   Cl4   S    
C5    C25   A    
C11   H10   S    
O5    Zn1   S    
C11   C12   S    
S2    O12   D    
C23   C27   A    
H11   N2    S    
C9    C10   S    
N1    Zn2   S    
C18   C20   A    
C18   C26   A    
C13   C15   S    
C15   C21   A    
N2    Zn1   S    
C16   C20   A    
O7    Zn2   S    
C17   C25   A    
O3    Zn2   S    
O2    Zn2   S    
C23   C25   A    
O8    Zn1   S    
C14   O8    A    
C2    O4    A    
C15   C19   A    
C1    O3    A    
S1    O9    D    
C6    C26   A    
O1    Zn1   S    
C20   Cl3   S    
C13   O7    A    
C22   C24   A    
C4    C6    A    
C3    C28   A    
C17   C19   A    
C24   C26   A    
C11   N1    D    
C22   Cl1   S    
C5    H1    S    
C21   C23   A    
C4    H6    S    
C21   Cl2   S    
C17   H3    S    
C14   C16   S    
S1    O10   D    
C18   H4    S    
C3    H5    S    
S2    O13   D    
C9    S2    S    
C3    C5    A    
O6    Zn2   S    
C10   S1    S    
C16   C22   A    
C8    C10   D    
O14   H14   S    
C7    H8    S    
C12   H9    S    
C7    C9    D    
C14   O6    A    
H12   N1    S    
S1    O11   S    
C12   N2    D    
C4    C27   A    
S2    O14   S    
C6    H2    S    
C1    C7    S    
C13   O5    A    
O4    Zn1   S    
C1    O1    A    
C2    C8    S    
C24   C28   A    
C2    O2    A    
O11   H13   S    
C27   C28   A    
C8    H7    S    
