data_mof_unit_15485.cif
_audit_creation_date              2012-12-10T16:57:13-0500
_audit_creation_method            fapswitch 2.2
_symmetry_space_group_name_H-M    P1
_symmetry_Int_Tables_number       1
_space_group_crystal_system       triclinic
_cell_length_a                    15.897634
_cell_length_b                    10.925027
_cell_length_c                    9.743953
_cell_angle_alpha                 89.222097
_cell_angle_beta                  90.41237
_cell_angle_gamma                 89.710713
_cell_volume                      1692.12781037

loop_
_atom_site_label
_atom_site_type_symbol
_atom_type_description
_atom_site_fract_x
_atom_site_fract_y
_atom_site_fract_z
_atom_type_partial_charge
C1    C     C_R   0.497215 0.265706 0.500708 0.845771
C2    C     C_3   0.953359 0.428632 0.634185 -0.079529
C3    C     C_3   0.916639 0.495795 0.502878 0.237687
C4    C     C_3   0.948436 0.630352 0.494676 -0.428545
C5    C     C_3   0.046333 0.635804 0.489845 -0.054299
C6    C     C_1   0.824388 0.497107 0.502110 -0.101764
C7    C     C_1   0.175439 0.501994 0.499302 -0.092541
C8    C     C_1   0.250884 0.501254 0.498875 -0.174961
C9    C     C_2   0.488159 0.934788 0.395696 -0.231874
C10   C     C_2   0.518632 0.864775 0.499319 -0.149529
C11   C     C_2   0.496370 0.067946 0.390307 -0.162477
C12   C     C_R   0.340410 0.500422 0.499630 0.826137
C13   C     C_2   0.487938 0.134353 0.503685 -0.301199
C14   C     C_2   0.562636 0.468014 0.923415 -0.106878
C15   C     C_2   0.554719 0.446185 0.075718 -0.019049
C16   C     C_R   0.503833 0.734236 0.499449 0.794783
C17   C     C_R   0.659549 0.499750 0.500373 0.831237
C18   C     C_3   0.051752 0.440787 0.637747 -0.186695
C19   C     C_3   0.049461 0.425654 0.379530 -0.430374
C20   C     C_3   0.951457 0.431072 0.371243 -0.087276
C21   C     C_1   0.748985 0.498494 0.501367 -0.195697
C22   C     C_3   0.082992 0.502448 0.501249 0.189730
Cu1   Cu    Cu3+1 0.500020 0.500020 0.638630 0.945289
Cu2   Cu    Cu3+1 0.499980 0.499980 0.361370 0.923611
H1    H     H_    0.942371 0.329644 0.617058 0.114870
H2    H     H_    0.920114 0.675168 0.401881 0.167864
H3    H     H_    0.454940 0.892983 0.310874 0.165835
H4    H     H_    0.505489 0.111377 0.290611 0.174757
H5    H     H_    0.472032 0.091874 0.601395 0.162342
H6    H     H_    0.624250 0.458601 0.877766 0.159059
H7    H     H_    0.442232 0.468004 0.882315 0.215459
H8    H     H_    0.601413 0.387096 0.124582 0.130766
H9    H     H_    0.078882 0.346596 0.644046 0.109710
H10   H     H_    0.076164 0.459092 0.280768 0.167816
H11   H     H_    0.071971 0.329549 0.393186 0.172135
H12   H     H_    0.933892 0.490146 0.281318 0.155993
H13   H     H_    0.068637 0.687001 0.581082 0.155364
H14   H     H_    0.925715 0.685700 0.581042 0.149957
N1    N     N_2   0.499090 0.498660 0.846910 -0.279727
N2    N     N_2   0.499070 0.498630 0.153040 -0.178613
O1    O     O_R   0.500010 0.321960 0.617040 -0.575223
O2    O     O_R   0.499990 0.321920 0.382900 -0.577491
O3    O     O_R   0.379450 0.500030 0.617120 -0.574206
O4    O     O_R   0.379420 0.499980 0.382980 -0.593604
O5    O     O_R   0.500010 0.678080 0.617100 -0.559821
O6    O     O_R   0.499990 0.678040 0.382960 -0.606305
O7    O     O_R   0.620580 0.500020 0.617020 -0.576639
O8    O     O_R   0.620550 0.499970 0.382880 -0.578929
C23   C     C_1   0.084690 0.503677 0.760481 0.231633
N3    N     N_1   0.110863 0.552465 0.856343 -0.316196
C24   C     C_3   0.906733 0.446759 0.773378 -0.386178
C25   C     C_3   0.890598 0.579393 0.817514 -0.301816
C26   C     C_3   0.861946 0.583983 0.966575 -0.875267
H15   H     H_    0.804716 0.527506 0.981518 0.250823
H16   H     H_    0.912810 0.549794 0.035962 0.245439
H17   H     H_    0.847073 0.679983 0.993950 0.246037
H18   H     H_    0.948133 0.635522 0.807557 0.227556
H19   H     H_    0.840030 0.620676 0.752481 0.218859
H20   H     H_    0.844733 0.400164 0.767660 0.190566
H21   H     H_    0.942812 0.397215 0.855312 0.198080
C27   C     C_1   0.573173 0.911165 0.606698 0.261885
N4    N     N_1   0.616750 0.947655 0.692410 -0.307632
C28   C     C_3   0.450885 0.606475 0.104706 -0.075712
C29   C     C_3   0.506482 0.716624 0.063403 -0.355801
C30   C     C_3   0.452889 0.822320 0.006670 -0.881815
H22   H     H_    0.421299 0.794919 0.909834 0.270447
H23   H     H_    0.404381 0.849474 0.081949 0.238787
H24   H     H_    0.493572 0.902428 0.984536 0.259016
H25   H     H_    0.542946 0.748685 0.153260 0.232243
H26   H     H_    0.552833 0.692795 0.983893 0.234601
H27   H     H_    0.402984 0.585186 0.026690 0.119079
H28   H     H_    0.410309 0.637253 0.189267 0.198926
C31   C     C_3   0.913623 0.302711 0.342635 -0.405190
C32   C     C_3   0.934056 0.258993 0.197248 -0.363501
C33   C     C_3   0.894464 0.134686 0.169483 -0.849903
H29   H     H_    0.917626 0.065274 0.245239 0.256317
H30   H     H_    0.824845 0.141172 0.175758 0.255045
H31   H     H_    0.911589 0.104470 0.064936 0.241563
H32   H     H_    0.909547 0.326239 0.120066 0.218035
H33   H     H_    0.003228 0.250933 0.184325 0.221940
H34   H     H_    0.937878 0.233851 0.418093 0.196710
H35   H     H_    0.844111 0.305935 0.352239 0.212808
C34   C     C_3   0.076832 0.707960 0.360912 -0.387485
C35   C     C_3   0.059944 0.846151 0.372444 -0.375804
C36   C     C_3   0.089686 0.915365 0.244769 -0.842730
H36   H     H_    0.158124 0.900324 0.229487 0.254262
H37   H     H_    0.054656 0.884214 0.152678 0.257642
H38   H     H_    0.078226 0.014941 0.257223 0.242030
H39   H     H_    0.991663 0.864072 0.385544 0.217728
H40   H     H_    0.093799 0.882158 0.463475 0.216431
H41   H     H_    0.145616 0.694988 0.347816 0.208847
H42   H     H_    0.045281 0.673009 0.267172 0.208769

loop_
_geom_bond_atom_site_label_1
_geom_bond_atom_site_label_2
_ccdc_geom_bond_type
Cu1   O5    S    
C5    H13   S    
C2    C18   S    
Cu2   O2    S    
C31   C32   S    
C19   C20   S    
C17   O8    A    
C3    C6    S    
C7    C8    T    
C36   H36   S    
C34   H42   S    
N2    C28   S    
C13   H5    S    
C12   O3    A    
C5    C34   S    
C36   H38   S    
Cu1   O3    S    
C14   N1    D    
C5    C22   S    
C30   H23   S    
Cu1   Cu2   S    
C29   H26   S    
C9    C10   D    
C36   H37   S    
C32   H33   S    
C35   H40   S    
C14   H6    S    
C31   H34   S    
C18   H9    S    
C26   H16   S    
Cu1   O7    S    
C32   C33   S    
C24   C25   S    
Cu2   O8    S    
C15   H8    S    
C19   C22   S    
C35   C36   S    
C25   H18   S    
C16   O6    A    
C26   H15   S    
C6    C21   T    
C17   C21   S    
C33   H29   S    
C9    C11   S    
C34   C35   S    
C8    C12   S    
C30   H24   S    
C3    C20   S    
C29   H25   S    
C33   H30   S    
C25   H19   S    
C1    O1    A    
C28   H27   S    
C30   H22   S    
C32   H32   S    
Cu2   O4    S    
C10   C27   S    
C24   H20   S    
C35   H39   S    
C3    C4    S    
C31   H35   S    
C25   C26   S    
C9    H3    S    
C26   H17   S    
C18   C22   S    
C17   O7    A    
C4    H14   S    
C4    C5    S    
C19   H10   S    
C16   O5    A    
C4    H2    S    
C7    C22   S    
C34   H41   S    
Cu1   O1    S    
Cu2   O6    S    
C29   C30   S    
C2    C3    S    
C12   O4    A    
C19   H11   S    
C11   C13   D    
C11   H4    S    
Cu1   N1    S    
Cu2   N2    S    
H7    N1    S    
C20   C31   S    
C2    H1    S    
C27   N4    T    
C33   H31   S    
C15   N2    D    
C2    C24   S    
C28   C29   S    
C20   H12   S    
C1    O2    A    
C1    C13   S    
C28   H28   S    
C23   N3    T    
C14   C15   S    
C10   C16   S    
C24   H21   S    
C18   C23   S    
