data_mof_unit_60912.cif
_audit_creation_date              2012-12-10T17:20:58-0500
_audit_creation_method            fapswitch 2.2
_symmetry_space_group_name_H-M    P1
_symmetry_Int_Tables_number       1
_space_group_crystal_system       triclinic
_cell_length_a                    21.902645
_cell_length_b                    21.902645
_cell_length_c                    29.069875
_cell_angle_alpha                 89.99991
_cell_angle_beta                  89.999937
_cell_angle_gamma                 89.999958
_cell_volume                      13945.5707262

loop_
_atom_site_label
_atom_site_type_symbol
_atom_type_description
_atom_site_fract_x
_atom_site_fract_y
_atom_site_fract_z
_atom_type_partial_charge
C1    C     C_R   0.500000 0.120168 0.500000 0.893448
C2    C     C_R   0.719633 0.446060 0.488040 -0.024776
C3    C     C_R   0.194026 0.612807 0.513180 0.160048
C4    C     C_R   0.387193 0.805974 0.486821 0.160048
C5    C     C_R   0.805974 0.612807 0.486820 0.160048
C6    C     C_R   0.612807 0.194026 0.486820 0.160048
C7    C     C_R   0.194026 0.387193 0.486820 0.160048
C8    C     C_R   0.887193 0.694026 0.013180 0.160048
C9    C     C_R   0.305974 0.887193 0.013179 0.160048
C10   C     C_R   0.112807 0.305974 0.013180 0.160048
C11   C     C_R   0.694026 0.112806 0.013182 0.160049
C12   C     C_R   0.887193 0.305974 0.986818 0.160049
C13   C     C_R   0.553940 0.719633 0.488040 -0.024776
C14   C     C_R   0.305974 0.112808 0.986821 0.160049
C15   C     C_R   0.112807 0.694026 0.986820 0.160048
C16   C     C_R   0.694026 0.887193 0.986820 0.160048
C17   C     C_R   0.337272 0.212033 0.486643 -0.086830
C18   C     C_R   0.787966 0.337271 0.486641 -0.086831
C19   C     C_R   0.662728 0.787966 0.486641 -0.086831
C20   C     C_R   0.212033 0.662729 0.486642 -0.086831
C21   C     C_R   0.337271 0.787966 0.513359 -0.086831
C22   C     C_R   0.787966 0.662728 0.513359 -0.086831
C23   C     C_R   0.662729 0.212033 0.513359 -0.086831
C24   C     C_R   0.280367 0.553940 0.488040 -0.024776
C25   C     C_R   0.212034 0.337272 0.513358 -0.086830
C26   C     C_R   0.837271 0.712034 0.986641 -0.086831
C27   C     C_R   0.287966 0.837272 0.986641 -0.086831
C28   C     C_R   0.162729 0.287966 0.986643 -0.086830
C29   C     C_R   0.712033 0.162728 0.986644 -0.086828
C30   C     C_R   0.837272 0.287967 0.013356 -0.086828
C31   C     C_R   0.287966 0.162728 0.013360 -0.086832
C32   C     C_R   0.162728 0.712034 0.013359 -0.086831
C33   C     C_R   0.712034 0.837271 0.013359 -0.086831
C34   C     C_R   0.343423 0.262451 0.457152 0.098757
C35   C     C_R   0.446060 0.719633 0.511960 -0.024776
C36   C     C_R   0.737549 0.343423 0.457150 0.098758
C37   C     C_R   0.656577 0.737549 0.457151 0.098758
C38   C     C_R   0.262451 0.656577 0.457151 0.098758
C39   C     C_R   0.343423 0.737549 0.542850 0.098758
C40   C     C_R   0.737549 0.656577 0.542849 0.098758
C41   C     C_R   0.656577 0.262451 0.542849 0.098758
C42   C     C_R   0.262451 0.343423 0.542848 0.098757
C43   C     C_R   0.843423 0.762451 0.957151 0.098758
C44   C     C_R   0.237549 0.843423 0.957150 0.098758
C45   C     C_R   0.156578 0.237549 0.957152 0.098758
C46   C     C_R   0.719633 0.553940 0.511960 -0.024777
C47   C     C_R   0.762450 0.156578 0.957153 0.098757
C48   C     C_R   0.843422 0.237550 0.042847 0.098757
C49   C     C_R   0.237549 0.156577 0.042850 0.098758
C50   C     C_R   0.156577 0.762451 0.042849 0.098758
C51   C     C_R   0.762451 0.843422 0.042849 0.098758
C52   C     C_R   0.394987 0.301024 0.461562 -0.107828
C53   C     C_R   0.698975 0.394988 0.461561 -0.107828
C54   C     C_R   0.605012 0.698975 0.461562 -0.107828
C55   C     C_R   0.301025 0.605013 0.461562 -0.107828
C56   C     C_R   0.394988 0.698975 0.538439 -0.107829
C57   C     C_R   0.553940 0.280367 0.511960 -0.024776
C58   C     C_R   0.698975 0.605012 0.538438 -0.107828
C59   C     C_R   0.605012 0.301024 0.538438 -0.107828
C60   C     C_R   0.301024 0.394987 0.538438 -0.107827
C61   C     C_R   0.894988 0.801025 0.961562 -0.107828
C62   C     C_R   0.198976 0.894988 0.961561 -0.107828
C63   C     C_R   0.105013 0.198975 0.961562 -0.107828
C64   C     C_R   0.801024 0.105013 0.961563 -0.107827
C65   C     C_R   0.894987 0.198976 0.038437 -0.107827
C66   C     C_R   0.198975 0.105012 0.038439 -0.107829
C67   C     C_R   0.105012 0.801024 0.038438 -0.107828
C68   C     C_R   0.280367 0.446060 0.511959 -0.024776
C69   C     C_R   0.801025 0.894987 0.038438 -0.107828
C70   C     C_1   0.717287 0.175201 0.513271 0.286092
C71   C     C_1   0.824800 0.717287 0.513271 0.286092
C72   C     C_1   0.282713 0.824799 0.513272 0.286092
C73   C     C_1   0.175200 0.282714 0.513270 0.286093
C74   C     C_1   0.717287 0.824799 0.486729 0.286092
C75   C     C_1   0.824799 0.282713 0.486729 0.286092
C76   C     C_1   0.282714 0.175200 0.486731 0.286093
C77   C     C_1   0.175200 0.717287 0.486730 0.286092
C78   C     C_1   0.217287 0.675201 0.013271 0.286092
C79   C     C_R   0.946060 0.780367 0.988040 -0.024776
C80   C     C_1   0.324800 0.217286 0.013273 0.286092
C81   C     C_1   0.782714 0.324801 0.013267 0.286094
C82   C     C_1   0.675201 0.782713 0.013271 0.286092
C83   C     C_1   0.217287 0.324799 0.986731 0.286093
C84   C     C_1   0.324799 0.782713 0.986729 0.286092
C85   C     C_1   0.782713 0.675201 0.986729 0.286092
C86   C     C_1   0.675200 0.217286 0.986732 0.286094
C87   C     C_1   0.397959 0.353245 0.431466 0.267594
C88   C     C_1   0.646755 0.397960 0.431465 0.267595
C89   C     C_1   0.602040 0.646755 0.431465 0.267595
C90   C     C_R   0.219633 0.946060 0.988040 -0.024776
C91   C     C_1   0.353246 0.602041 0.431466 0.267593
C92   C     C_1   0.397960 0.646754 0.568535 0.267595
C93   C     C_1   0.646754 0.602040 0.568535 0.267595
C94   C     C_1   0.602040 0.353245 0.568535 0.267594
C95   C     C_1   0.353245 0.397959 0.568535 0.267593
C96   C     C_1   0.897960 0.853246 0.931465 0.267595
C97   C     C_1   0.146755 0.897960 0.931465 0.267595
C98   C     C_1   0.102041 0.146755 0.931466 0.267593
C99   C     C_1   0.853245 0.102042 0.931466 0.267592
C100  C     C_1   0.897957 0.146755 0.068533 0.267591
C101  C     C_R   0.053940 0.219633 0.988041 -0.024776
C102  C     C_1   0.146754 0.102040 0.068535 0.267596
C103  C     C_1   0.102040 0.853245 0.068535 0.267595
C104  C     C_1   0.853246 0.897959 0.068535 0.267594
C105  C     C_R   0.879832 0.500000 0.500000 0.893448
C106  C     C_R   0.780367 0.053940 0.988041 -0.024776
C107  C     C_R   0.946060 0.219633 0.011958 -0.024775
C108  C     C_R   0.219633 0.053940 0.011960 -0.024776
C109  C     C_R   0.053940 0.780367 0.011960 -0.024776
C110  C     C_R   0.780367 0.946060 0.011960 -0.024776
C111  C     C_R   0.444559 0.219906 0.503119 0.015506
C112  C     C_R   0.780094 0.444559 0.503118 0.015507
C113  C     C_R   0.555441 0.780094 0.503118 0.015506
C114  C     C_R   0.219906 0.555441 0.503119 0.015507
C115  C     C_R   0.444559 0.780094 0.496882 0.015507
C116  C     C_R   0.500000 0.879832 0.500000 0.893448
C117  C     C_R   0.780093 0.555441 0.496882 0.015506
C118  C     C_R   0.555441 0.219906 0.496882 0.015507
C119  C     C_R   0.219906 0.444559 0.496881 0.015506
C120  C     C_R   0.944559 0.719906 0.003118 0.015506
C121  C     C_R   0.280094 0.944559 0.003118 0.015507
C122  C     C_R   0.055441 0.280093 0.003119 0.015507
C123  C     C_R   0.719906 0.055441 0.003119 0.015506
C124  C     C_R   0.944559 0.280094 0.996880 0.015506
C125  C     C_R   0.280093 0.055441 0.996882 0.015506
C126  C     C_R   0.055441 0.719906 0.996882 0.015507
C127  C     C_R   0.120168 0.500000 0.500000 0.893448
C128  C     C_R   0.719906 0.944559 0.996882 0.015507
C129  C     C_R   0.500000 0.313282 0.500000 -0.126284
C130  C     C_R   0.686717 0.500000 0.500000 -0.126285
C131  C     C_R   0.500000 0.686717 0.500000 -0.126284
C132  C     C_R   0.313283 0.500000 0.500000 -0.126284
C133  C     C_R   1.000000 0.813283 0.000000 -0.126285
C134  C     C_R   0.186717 1.000000 1.000000 -0.126284
C135  C     C_R   1.000000 0.186718 1.000000 -0.126284
C136  C     C_R   0.813282 1.000000 0.000000 -0.126284
C137  C     C_R   0.500000 0.186772 0.500000 -0.161499
C138  C     C_R   1.000000 0.620168 0.000000 0.893448
C139  C     C_R   0.813228 0.500000 0.500000 -0.161499
C140  C     C_R   0.500000 0.813228 0.500000 -0.161499
C141  C     C_R   0.186772 0.500000 0.500000 -0.161499
C142  C     C_R   0.000000 0.686771 0.000000 -0.161499
C143  C     C_R   0.313228 0.000000 0.000000 -0.161499
C144  C     C_R   0.000000 0.313228 1.000000 -0.161499
C145  C     C_R   0.686772 1.000000 0.000000 -0.161499
C146  C     C_R   0.621257 0.500000 0.500000 0.885371
C147  C     C_R   0.500000 0.621257 0.500000 0.885371
C148  C     C_R   0.378743 0.500000 0.500000 0.885371
C149  C     C_R   0.379832 0.000000 0.000000 0.893448
C150  C     C_R   0.500000 0.378743 0.500000 0.885371
C151  C     C_R   0.121257 1.000000 1.000000 0.885371
C152  C     C_R   1.000000 0.121257 1.000000 0.885371
C153  C     C_R   0.878743 1.000000 0.000000 0.885371
C154  C     C_R   1.000000 0.878743 0.000000 0.885371
C155  C     C_R   0.500000 1.000000 0.414403 0.885549
C156  C     C_R   0.000000 0.500000 0.414403 0.885549
C157  C     C_R   0.500000 1.000000 0.585597 0.885549
C158  C     C_R   1.000000 0.500000 0.585597 0.885549
C159  C     C_R   0.000000 0.500000 0.914403 0.885549
C160  C     C_R   1.000000 0.379832 1.000000 0.893449
C161  C     C_R   0.500000 1.000000 0.914403 0.885549
C162  C     C_R   1.000000 0.500000 0.085597 0.885549
C163  C     C_R   0.500000 1.000000 0.085597 0.885548
C164  C     C_1   0.500000 1.000000 0.363552 -0.139875
C165  C     C_1   1.000000 0.500000 0.363552 -0.139874
C166  C     C_1   0.500000 1.000000 0.636448 -0.139875
C167  C     C_1   1.000000 0.500000 0.636448 -0.139875
C168  C     C_1   0.000000 0.500000 0.863552 -0.139874
C169  C     C_1   0.500000 1.000000 0.863552 -0.139875
C170  C     C_1   1.000000 0.500000 0.136448 -0.139875
C171  C     C_R   0.620168 1.000000 0.000000 0.893448
C172  C     C_1   0.500000 1.000000 0.136448 -0.139874
C173  C     C_1   0.500000 1.000000 0.321193 0.045841
C174  C     C_1   1.000000 0.500000 0.321193 0.045841
C175  C     C_1   0.500000 1.000000 0.678807 0.045841
C176  C     C_1   0.000000 0.500000 0.678807 0.045841
C177  C     C_1   0.000000 0.500000 0.821193 0.045841
C178  C     C_1   0.500000 0.000000 0.821193 0.045841
C179  C     C_1   1.000000 0.500000 0.178807 0.045841
C180  C     C_1   0.500000 1.000000 0.178807 0.045841
C181  C     C_1   0.500000 1.000000 0.271181 0.048029
C182  C     C_R   0.446060 0.280367 0.488041 -0.024776
C183  C     C_1   1.000000 0.500000 0.271181 0.048030
C184  C     C_1   0.500000 1.000000 0.728819 0.048030
C185  C     C_1   0.000000 0.500000 0.728819 0.048029
C186  C     C_1   0.000000 0.500000 0.771181 0.048030
C187  C     C_1   0.500000 0.000000 0.771181 0.048029
C188  C     C_1   1.000000 0.500000 0.228819 0.048029
C189  C     C_1   0.500000 1.000000 0.228819 0.048029
C190  C     C_R   0.387193 0.194026 0.513181 0.160048
C191  C     C_R   0.805974 0.387193 0.513179 0.160048
C192  C     C_R   0.612807 0.805974 0.513180 0.160048
I1    I     I_    0.373491 0.141136 0.574701 -0.239540
I2    I     I_    0.358864 0.873489 0.074699 -0.239539
I3    I     I_    0.126509 0.358864 0.074700 -0.239540
I4    I     I_    0.641136 0.126508 0.074702 -0.239541
I5    I     I_    0.873493 0.358864 0.925298 -0.239541
I6    I     I_    0.358864 0.126512 0.925301 -0.239538
I7    I     I_    0.126511 0.641136 0.925301 -0.239539
I8    I     I_    0.641136 0.873490 0.925300 -0.239539
I9    I     I_    0.278856 0.275524 0.403099 -0.264877
I10   I     I_    0.724476 0.278857 0.403097 -0.264876
I11   I     I_    0.721144 0.724476 0.403097 -0.264876
I12   I     I_    0.858864 0.373489 0.574699 -0.239539
I13   I     I_    0.275524 0.721144 0.403098 -0.264876
I14   I     I_    0.278857 0.724475 0.596903 -0.264877
I15   I     I_    0.724475 0.721143 0.596903 -0.264876
I16   I     I_    0.721144 0.275524 0.596903 -0.264876
I17   I     I_    0.275524 0.278856 0.596902 -0.264878
I18   I     I_    0.778857 0.775524 0.903097 -0.264876
I19   I     I_    0.224476 0.778857 0.903097 -0.264877
I20   I     I_    0.221144 0.224476 0.903099 -0.264876
I21   I     I_    0.775523 0.221145 0.903100 -0.264879
I22   I     I_    0.778855 0.224478 0.096900 -0.264879
I23   I     I_    0.626510 0.858863 0.574700 -0.239539
I24   I     I_    0.224475 0.221143 0.096904 -0.264876
I25   I     I_    0.221144 0.775524 0.096903 -0.264876
I26   I     I_    0.775524 0.778856 0.096903 -0.264876
I27   I     I_    0.141136 0.626510 0.574700 -0.239540
I28   I     I_    0.373489 0.858864 0.425301 -0.239538
I29   I     I_    0.858864 0.626511 0.425301 -0.239539
I30   I     I_    0.626511 0.141136 0.425301 -0.239539
I31   I     I_    0.141136 0.373491 0.425299 -0.239540
I32   I     I_    0.873489 0.641136 0.074700 -0.239540
N1    N     N_1   0.760686 0.145070 0.513311 -0.130166
N2    N     N_1   0.354930 0.260686 0.013314 -0.130166
N3    N     N_1   0.739315 0.354932 0.013307 -0.130166
N4    N     N_1   0.645071 0.739314 0.013311 -0.130166
N5    N     N_1   0.260686 0.354929 0.986691 -0.130167
N6    N     N_1   0.354929 0.739314 0.986688 -0.130166
N7    N     N_1   0.739314 0.645070 0.986689 -0.130166
N8    N     N_1   0.645069 0.260686 0.986693 -0.130166
N9    N     N_1   0.399291 0.394331 0.406435 -0.126271
N10   N     N_1   0.605669 0.399292 0.406434 -0.126272
N11   N     N_1   0.600708 0.605669 0.406434 -0.126272
N12   N     N_1   0.854930 0.760686 0.513312 -0.130166
N13   N     N_1   0.394331 0.600709 0.406435 -0.126271
N14   N     N_1   0.399292 0.605669 0.593566 -0.126272
N15   N     N_1   0.605669 0.600708 0.593566 -0.126271
N16   N     N_1   0.600708 0.394331 0.593566 -0.126272
N17   N     N_1   0.394330 0.399291 0.593565 -0.126271
N18   N     N_1   0.899292 0.894331 0.906434 -0.126272
N19   N     N_1   0.105669 0.899292 0.906434 -0.126272
N20   N     N_1   0.100709 0.105669 0.906435 -0.126272
N21   N     N_1   0.894330 0.100710 0.906435 -0.126271
N22   N     N_1   0.899289 0.105669 0.093564 -0.126271
N23   N     N_1   0.239314 0.854930 0.513313 -0.130166
N24   N     N_1   0.105669 0.100707 0.093566 -0.126271
N25   N     N_1   0.100708 0.894331 0.093566 -0.126271
N26   N     N_1   0.894331 0.899291 0.093566 -0.126272
N27   N     N_1   0.145070 0.239314 0.513310 -0.130166
N28   N     N_1   0.760686 0.854929 0.486689 -0.130166
N29   N     N_1   0.854929 0.239314 0.486688 -0.130166
N30   N     N_1   0.239314 0.145070 0.486691 -0.130166
N31   N     N_1   0.145070 0.760686 0.486690 -0.130166
N32   N     N_1   0.260686 0.645070 0.013311 -0.130166
O1    O     O_R   0.551720 0.091610 0.499990 -0.604196
O2    O     O_R   0.408390 0.051720 0.999990 -0.604196
O3    O     O_R   0.948280 0.408390 0.999990 -0.604197
O4    O     O_R   0.591610 0.948280 0.999990 -0.604196
O5    O     O_R   0.051720 0.408390 0.000010 -0.604196
O6    O     O_R   0.408390 0.948280 0.000010 -0.604196
O7    O     O_R   0.948280 0.591610 0.000010 -0.604197
O8    O     O_R   0.591610 0.051720 0.000010 -0.604196
O9    O     O_R   0.551720 0.000010 0.436860 -0.581434
O10   O     O_R   0.999990 0.551720 0.436860 -0.581434
O11   O     O_R   0.448280 0.999990 0.436860 -0.581435
O12   O     O_R   0.908390 0.551720 0.499990 -0.604196
O13   O     O_R   0.000010 0.448280 0.436860 -0.581435
O14   O     O_R   0.551720 0.999990 0.563140 -0.581434
O15   O     O_R   0.999990 0.448280 0.563140 -0.581435
O16   O     O_R   0.448280 0.000010 0.563140 -0.581435
O17   O     O_R   0.000010 0.551720 0.563140 -0.581434
O18   O     O_R   0.051720 0.500010 0.936860 -0.581434
O19   O     O_R   0.499990 0.051720 0.936860 -0.581434
O20   O     O_R   0.948280 0.499990 0.936860 -0.581435
O21   O     O_R   0.500010 0.948280 0.936860 -0.581435
O22   O     O_R   0.051720 0.499990 0.063140 -0.581434
O23   O     O_R   0.448280 0.908390 0.499990 -0.604196
O24   O     O_R   0.499990 0.948280 0.063140 -0.581435
O25   O     O_R   0.948280 0.500010 0.063140 -0.581435
O26   O     O_R   0.500010 0.051720 0.063140 -0.581434
O27   O     O_R   0.591590 0.499990 0.535660 -0.616162
O28   O     O_R   0.500010 0.591590 0.535660 -0.616162
O29   O     O_R   0.408410 0.500010 0.535660 -0.616162
O30   O     O_R   0.499990 0.408410 0.535660 -0.616161
O31   O     O_R   0.591590 0.500010 0.464340 -0.616162
O32   O     O_R   0.500010 0.408410 0.464340 -0.616161
O33   O     O_R   0.408410 0.499990 0.464340 -0.616161
O34   O     O_R   0.091610 0.448280 0.499990 -0.604196
O35   O     O_R   0.499990 0.591590 0.464340 -0.616161
O36   O     O_R   0.091590 0.999990 0.035660 -0.616162
O37   O     O_R   0.000010 0.091590 0.035660 -0.616161
O38   O     O_R   0.908410 0.000010 0.035660 -0.616161
O39   O     O_R   0.999990 0.908410 0.035660 -0.616162
O40   O     O_R   0.091590 0.000010 0.964340 -0.616162
O41   O     O_R   0.000010 0.908410 0.964340 -0.616162
O42   O     O_R   0.908410 0.999990 0.964340 -0.616161
O43   O     O_R   0.999990 0.091590 0.964340 -0.616161
O44   O     O_R   0.551720 0.908390 0.500010 -0.604196
O45   O     O_R   0.908390 0.448280 0.500010 -0.604196
O46   O     O_R   0.448280 0.091610 0.500010 -0.604197
O47   O     O_R   0.091610 0.551720 0.500010 -0.604196
O48   O     O_R   0.051720 0.591610 0.999990 -0.604196
Zn1   Zn    Zn3+2 0.569070 1.000000 0.500000 1.054369
Zn2   Zn    Zn3+2 0.500000 0.500000 0.452400 1.046430
Zn3   Zn    Zn3+2 0.000000 0.000000 0.047600 1.046429
Zn4   Zn    Zn3+2 0.000000 0.000000 0.952400 1.046430
Zn5   Zn    Zn3+2 0.000000 0.569070 0.500000 1.054369
Zn6   Zn    Zn3+2 0.430930 1.000000 0.500000 1.054368
Zn7   Zn    Zn3+2 0.000000 0.430930 0.500000 1.054368
Zn8   Zn    Zn3+2 0.069070 0.500000 0.000000 1.054369
Zn9   Zn    Zn3+2 0.500000 0.069070 0.000000 1.054369
Zn10  Zn    Zn3+2 0.930930 0.500000 0.000000 1.054368
Zn11  Zn    Zn3+2 0.500000 0.930930 0.000000 1.054369
Zn12  Zn    Zn3+2 0.500000 0.500000 0.547600 1.046429

loop_
_geom_bond_atom_site_label_1
_geom_bond_atom_site_label_2
_ccdc_geom_bond_type
C130  C146  S    
C8    C26   A    
C15   C32   A    
C147  O35   A    
O19   Zn9   S    
C105  O12   A    
C111  C137  A    
C171  O4    A    
C52   C182  A    
C63   C98   S    
O27   Zn12  S    
C68   C119  A    
O37   Zn3   S    
C128  C145  A    
C57   C59   A    
O14   Zn1   S    
C34   I9    S    
O10   Zn5   S    
C36   C53   A    
C19   C37   A    
C38   C55   A    
C123  C145  A    
C154  O41   A    
O30   Zn12  S    
C17   C76   S    
C9    C121  A    
C35   C115  A    
C48   C65   A    
C144  C160  S    
C84   N6    T    
O7    Zn10  S    
C98   N20   T    
O34   Zn7   S    
C28   C83   S    
C117  C139  A    
C107  C124  A    
C158  C167  S    
C51   I26   S    
C45   I20   S    
C40   C58   A    
C21   C72   S    
C109  C133  A    
C7    C119  A    
C176  C185  S    
C47   C64   A    
C156  O13   A    
O40   Zn4   S    
C157  O16   A    
C82   N4    T    
C111  C182  A    
C158  O15   A    
C46   C117  A    
C174  C183  S    
C7    I31   S    
C39   C56   A    
C79   C120  A    
C91   N13   T    
C120  C142  A    
C164  C173  T    
C105  O45   A    
C163  C172  S    
O32   Zn2   S    
C155  O9    A    
C42   I17   S    
C95   N17   T    
C119  C141  A    
C17   C34   A    
O17   Zn5   S    
C43   C61   A    
O23   Zn6   S    
C13   C54   A    
O48   Zn8   S    
C10   C122  A    
C2    C53   A    
C23   C41   A    
C64   C106  A    
C101  C122  A    
C87   N9    T    
C183  C188  T    
C112  C191  A    
C136  C153  S    
C41   I16   S    
C90   C134  A    
C134  C151  S    
O4    Zn11  S    
C60   C95   S    
C143  C149  S    
C156  O10   A    
C51   C69   A    
C110  C128  A    
C57   C118  A    
C6    I30   S    
O44   Zn1   S    
C24   C114  A    
C18   C75   S    
C147  O28   A    
C4    C115  A    
C110  C136  A    
C85   N7    T    
C14   C31   A    
C61   C96   S    
C67   C103  S    
C92   N14   T    
C29   C47   A    
C30   C48   A    
C27   C84   S    
O21   Zn11  S    
C180  C189  S    
C135  C152  S    
C15   I7    S    
C151  O36   A    
C127  C141  S    
C152  O43   A    
C146  O31   A    
C161  O19   A    
C27   C44   A    
C64   C99   S    
C21   C39   A    
C107  C135  A    
C131  C147  S    
C76   N30   T    
C50   C67   A    
C16   I8    S    
O18   Zn8   S    
O47   Zn5   S    
C161  C169  S    
C106  C136  A    
C46   C58   A    
C23   C70   S    
C150  O32   A    
C101  C135  A    
C49   C66   A    
C133  C154  S    
C103  N25   T    
C114  C141  A    
O22   Zn8   S    
C165  C174  T    
C160  O3    A    
O3    Zn10  S    
C62   C97   S    
C69   C110  A    
C32   C50   A    
O35   Zn2   S    
O36   Zn3   S    
C90   C121  A    
C1    O46   A    
O25   Zn10  S    
O31   Zn2   S    
C1    C137  S    
C158  O17   A    
C162  O25   A    
C113  C192  A    
O41   Zn4   S    
C35   C56   A    
C75   N29   T    
C3    C114  A    
C46   C130  A    
C153  O38   A    
C50   I25   S    
C184  C187  T    
C170  C179  T    
C44   I19   S    
C86   N8    T    
C89   N11   T    
C152  O37   A    
C161  O21   A    
C11   C29   A    
C61   C79   A    
C26   C85   S    
C25   C73   S    
C138  O48   A    
C100  N22   T    
C109  C126  A    
C150  O30   A    
C80   N2    T    
O1    Zn1   S    
C65   C107  A    
C73   N27   T    
O39   Zn3   S    
C129  C182  A    
C38   I13   S    
C22   C71   S    
C77   N31   T    
C31   C80   S    
O9    Zn1   S    
C2    C112  A    
C166  C175  T    
C20   C77   S    
C159  O20   A    
C58   C93   S    
C168  C177  T    
C39   I14   S    
C68   C132  A    
C121  C143  A    
C55   C91   S    
C190  I1    S    
C181  C189  T    
C4    I28   S    
C59   C94   S    
C99   N21   T    
C33   C82   S    
C192  I23   S    
O12   Zn5   S    
C8    I32   S    
C172  C180  T    
C40   I15   S    
C173  C181  S    
C31   C49   A    
C127  O34   A    
C1    O1    A    
C116  O23   A    
C18   C191  A    
C48   I22   S    
C154  O39   A    
C151  O40   A    
C104  N26   T    
C11   I4    S    
C138  C142  S    
C9    I2    S    
O38   Zn3   S    
C83   N5    T    
O33   Zn2   S    
C126  C142  A    
O15   Zn7   S    
C108  C134  A    
O8    Zn9   S    
C105  C139  S    
C24   C132  A    
C162  C170  S    
C163  O26   A    
C13   C131  A    
C3    C20   A    
C178  C187  S    
C94   N16   T    
C148  O29   A    
C17   C190  A    
C191  I12   S    
O20   Zn10  S    
C35   C131  A    
C149  O6    A    
C9    C27   A    
C10   C28   A    
C12   C30   A    
C159  O18   A    
O6    Zn11  S    
C19   C74   S    
C11   C123  A    
C65   C100  S    
C66   C108  A    
C25   C42   A    
C74   N28   T    
C179  C188  S    
C33   C51   A    
C88   N10   T    
C34   C52   A    
C7    C25   A    
C78   N32   T    
C30   C81   S    
C185  C186  T    
C156  C165  S    
C47   I21   S    
C2    C130  A    
C171  O8    A    
O26   Zn9   S    
O16   Zn6   S    
C177  C186  S    
C115  C140  A    
C60   C68   A    
C111  C190  A    
C3    I27   S    
C18   C36   A    
O42   Zn4   S    
C175  C184  S    
C153  O42   A    
C5    I29   S    
C145  C171  S    
C66   C102  S    
O5    Zn8   S    
C6    C23   A    
C70   N1    T    
C122  C144  A    
C63   C101  A    
C162  O22   A    
O2    Zn9   S    
C24   C55   A    
C14   I6    S    
C49   I24   S    
C14   C125  A    
C72   N23   T    
C57   C129  A    
C93   N15   T    
C127  O47   A    
O43   Zn4   S    
C163  O24   A    
C157  O14   A    
C159  C168  S    
C43   I18   S    
C67   C109  A    
C5    C22   A    
C15   C126  A    
C106  C123  A    
C12   I5    S    
O29   Zn12  S    
C108  C125  A    
C118  C137  A    
C19   C192  A    
C112  C139  A    
C36   I10   S    
C26   C43   A    
O28   Zn12  S    
C79   C133  A    
C28   C45   A    
C132  C148  S    
C102  N24   T    
C41   C59   A    
C54   C89   S    
C42   C60   A    
C44   C62   A    
C45   C63   A    
C5    C117  A    
C16   C33   A    
C97   N19   T    
C20   C38   A    
C12   C124  A    
C56   C92   S    
C22   C40   A    
O46   Zn6   S    
C37   I11   S    
C113  C140  A    
C71   N12   T    
C16   C128  A    
C96   N18   T    
C29   C86   S    
O11   Zn6   S    
C37   C54   A    
C160  O5    A    
C169  C178  T    
C8    C120  A    
C69   C104  S    
C81   N3    T    
C52   C87   S    
C157  C166  S    
C155  C164  S    
C129  C150  S    
C10   I3    S    
O45   Zn7   S    
C4    C21   A    
O24   Zn11  S    
C148  O33   A    
C62   C90   A    
C53   C88   S    
C155  O11   A    
C149  O2    A    
C32   C78   S    
C125  C143  A    
C138  O7    A    
C116  O44   A    
C124  C144  A    
O13   Zn7   S    
C6    C118  A    
C13   C113  A    
C146  O27   A    
C167  C176  T    
C116  C140  S    
