data_mof_unit_6829.cif
_audit_creation_date              2012-12-11T21:01:28-0500
_audit_creation_method            fapswitch 2.2
_symmetry_space_group_name_H-M    P1
_symmetry_Int_Tables_number       1
_space_group_crystal_system       triclinic
_cell_length_a                    8.302743
_cell_length_b                    18.850311
_cell_length_c                    22.881611
_cell_angle_alpha                 99.956119
_cell_angle_beta                  89.860143
_cell_angle_gamma                 91.536383
_cell_volume                      3525.9768272

loop_
_atom_site_label
_atom_site_type_symbol
_atom_type_description
_atom_site_fract_x
_atom_site_fract_y
_atom_site_fract_z
_atom_type_partial_charge
Ba1   Ba    Ba6+2 0.157800 0.534120 0.474430 1.784736
Ba2   Ba    Ba6+2 0.652390 0.465870 0.525520 1.849069
C1    C     C_3   0.334992 0.719811 0.262482 0.649594
C2    C     C_3   0.396925 0.697190 0.319303 0.877793
C3    C     C_3   0.482912 0.689507 0.636272 0.244345
C4    C     C_3   0.470785 0.769022 0.664529 -0.127837
C5    C     C_3   0.877154 0.272291 0.661054 1.207523
C6    C     C_3   0.827631 0.202996 0.684489 0.135060
C7    C     C_3   0.378082 0.296234 0.675156 1.142620
C8    C     C_3   0.339515 0.251788 0.723287 1.080273
C9    C     C_R   0.991155 0.953629 0.529476 0.017486
C10   C     C_R   0.078517 0.906610 0.558237 0.027398
C11   C     C_R   0.226301 0.930537 0.585456 -0.080025
C12   C     C_3   0.955823 0.726452 0.363145 0.363026
C13   C     C_R   0.288900 0.999672 0.583009 -0.047319
C14   C     C_R   0.203357 0.047110 0.554418 0.029561
C15   C     C_R   0.053451 0.024284 0.527823 0.011286
C16   C     C_R   0.263774 0.117403 0.553493 -0.035071
C17   C     C_R   0.173895 0.167162 0.528293 -0.085795
C18   C     C_R   0.024685 0.143741 0.500215 -0.005468
C19   C     C_R   0.965596 0.072149 0.499997 0.004824
C20   C     C_R   0.226155 0.240034 0.531254 -0.033730
C21   C     C_R   0.125680 0.288412 0.509789 0.340349
C22   C     C_R   0.985623 0.265230 0.477404 0.046887
C23   C     C_3   0.961623 0.803089 0.350181 -0.370532
C24   C     C_R   0.936562 0.190912 0.470679 -0.066640
C25   C     C_R   0.840826 0.930540 0.503337 0.006931
C26   C     C_R   0.782430 0.858370 0.502086 -0.021978
C27   C     C_R   0.877051 0.809237 0.527753 -0.046365
C28   C     C_R   0.019368 0.836057 0.558543 -0.031407
C29   C     C_R   0.804239 0.161148 0.434794 0.159168
C30   C     C_R   0.726684 0.097061 0.445945 0.033390
C31   C     C_R   0.813780 0.049836 0.475031 -0.030229
C32   C     C_R   0.750389 0.979644 0.477751 -0.001458
C33   C     C_R   0.565811 0.077777 0.428026 0.140442
C34   C     C_3   0.817848 0.375899 0.343988 0.271791
C35   C     C_R   0.503534 0.010089 0.432950 -0.092280
C36   C     C_R   0.595707 0.959166 0.455224 -0.017160
C37   C     C_R   0.629900 0.835883 0.475497 -0.024496
C38   C     C_R   0.533322 0.888808 0.455594 0.108542
C39   C     C_R   0.581411 0.761590 0.470456 0.002927
C40   C     C_R   0.681064 0.713350 0.492668 -0.305303
C41   C     C_R   0.825919 0.735253 0.522092 0.006902
C42   C     C_R   0.643741 0.522924 0.335319 -0.365814
C43   C     C_R   0.394950 0.548789 0.944776 -0.066373
C44   C     C_R   0.343402 0.544214 0.885380 0.624494
C45   C     C_3   0.812887 0.354883 0.276724 -0.303579
C46   C     C_R   0.278089 0.418203 0.878948 0.696554
C47   C     C_R   0.328110 0.420578 0.938373 -0.182424
C48   C     C_R   0.386755 0.486417 0.971360 -0.197573
C49   C     C_R   0.454601 0.614086 0.978372 0.638651
C50   C     C_R   0.504271 0.617180 0.036900 -0.076010
C51   C     C_R   0.495872 0.555754 0.064023 -0.076163
C52   C     C_R   0.437265 0.490021 0.031245 -0.141957
C53   C     C_R   0.322093 0.358793 0.965611 0.618131
C54   C     C_R   0.372857 0.362349 0.024268 0.606297
C55   C     C_R   0.430539 0.427907 0.057988 -0.198035
C56   C     C_3   0.010275 0.629950 0.656324 0.844769
C57   C     C_R   0.481404 0.433123 0.117732 0.728517
C58   C     C_R   0.543797 0.559189 0.123496 0.709721
C59   C     C_2   0.090199 0.453984 0.771983 -0.120566
C60   C     C_3   0.041179 0.463797 0.710286 -0.001690
C61   C     C_1   0.312811 0.501048 0.692464 0.000164
C62   C     C_2   0.358041 0.500749 0.748039 0.029729
C63   C     C_2   0.241098 0.475994 0.791284 0.204104
C64   C     C_R   0.717097 0.537664 0.235632 -0.128798
C65   C     C_R   0.752865 0.546897 0.296153 -0.035168
C66   C     C_R   0.501748 0.486169 0.314339 0.031850
C67   C     C_3   0.043054 0.656098 0.722066 -0.273069
C68   C     C_R   0.462218 0.478663 0.253626 0.633953
C69   C     C_R   0.569713 0.505034 0.213520 0.158627
C70   C     C_2   0.183661 0.464645 0.669762 -0.187183
C71   C     C_3   0.295982 0.312808 0.385551 0.307372
C72   C     C_3   0.235162 0.239375 0.353953 -0.398365
H1    H     H_    0.732039 0.306848 0.263772 0.149856
H2    H     H_    0.767553 0.399260 0.256118 0.034711
H3    H     H_    0.935891 0.342125 0.259530 0.157453
H4    H     H_    0.124710 0.615312 0.633476 -0.047221
H5    H     H_    0.122189 0.705269 0.728065 0.093140
H6    H     H_    0.103591 0.614108 0.741726 0.055253
H7    H     H_    0.927952 0.668991 0.745898 0.127579
H8    H     H_    0.191232 0.344026 0.403988 0.047984
H9    H     H_    0.379244 0.305962 0.421951 0.033873
H10   H     H_    0.206597 0.733506 0.266652 0.025120
H11   H     H_    0.137489 0.246009 0.322465 0.150371
H12   H     H_    0.188867 0.206556 0.386406 0.031817
H13   H     H_    0.334434 0.210584 0.328272 0.148242
H14   H     H_    0.611909 0.675765 0.630450 0.058178
H15   H     H_    0.420967 0.680328 0.592441 0.019486
H16   H     H_    0.519134 0.777256 0.710551 0.161165
H17   H     H_    0.342029 0.784047 0.666984 0.106077
H18   H     H_    0.403342 0.768025 0.253022 -0.078115
H19   H     H_    0.872258 0.808765 0.315413 0.135368
H20   H     H_    0.009802 0.278868 0.662078 -0.703049
H21   H     H_    0.694187 0.197232 0.682685 0.171823
H22   H     H_    0.262550 0.312800 0.658110 -0.618243
H23   H     H_    0.243311 0.278046 0.752160 0.023007
H24   H     H_    0.053500 0.720732 0.394427 0.121117
H25   H     H_    0.294702 0.895351 0.608041 0.096627
H26   H     H_    0.404027 0.016212 0.603907 0.110212
H27   H     H_    0.379348 0.133164 0.573976 0.115565
H28   H     H_    0.087956 0.802235 0.582241 0.088674
H29   H     H_    0.380234 0.998576 0.418544 0.084532
H30   H     H_    0.840752 0.718146 0.385562 -0.068281
H31   H     H_    0.641937 0.657506 0.488766 0.059321
H32   H     H_    0.548913 0.668413 0.061119 0.162351
H33   H     H_    0.804512 0.555540 0.205751 0.138865
H34   H     H_    0.478327 0.519360 0.762815 0.115332
H35   H     H_    0.000519 0.438412 0.802309 0.112990
H36   H     H_    0.674016 0.529393 0.381944 0.075001
H37   H     H_    0.933699 0.841612 0.391023 0.074900
H38   H     H_    0.182888 0.434091 0.625042 0.151705
H39   H     H_    0.083260 0.817403 0.335150 0.113130
H40   H     H_    0.694862 0.387457 0.360646 -0.001513
H41   H     H_    0.898534 0.424114 0.356159 0.043088
N1    N     N_R   0.287570 0.479351 0.853028 -0.450719
N2    N     N_R   0.530475 0.498950 0.150689 -0.431156
O1    O     O_2   0.110690 0.676100 0.539200 -0.489901
O2    O     O_3   0.379169 0.346035 0.344144 -0.620724
O3    O     O_3   0.972341 0.676664 0.310090 -0.577943
O4    O     O_2   0.699610 0.323860 0.460780 -0.449905
O5    O     O_3   0.947090 0.413280 0.465240 -0.433474
O6    O     O_3   0.442000 0.370930 0.567190 -0.372401
O7    O     O_3   0.876128 0.317636 0.366682 -0.645884
O8    O     O_3   0.359410 0.538600 0.570730 -0.464790
O9    O     O_3   0.850780 0.407910 0.598320 -0.371550
O10   O     O_2   0.716275 0.457941 0.700619 -0.400391
O11   O     O_3   0.806466 0.330550 0.697764 -0.557298
O12   O     O_3   0.863220 0.586720 0.534720 -0.436798
O13   O     O_3   0.450900 0.461390 0.429220 -0.490775
O14   O     O_2   0.599830 0.538970 0.641850 -0.382446
O15   O     O_3   0.408114 0.648707 0.674886 -0.664117
O16   O     O_2   0.562634 0.243678 0.522023 -0.459127
O17   O     O_3   0.471630 0.255448 0.631072 -0.606768
O18   O     O_2   0.346335 0.598209 0.862497 -0.510157
O19   O     O_2   0.227148 0.361575 0.850046 -0.500096
O20   O     O_2   0.484412 0.378899 0.140187 -0.466576
O21   O     O_2   0.596967 0.616224 0.151192 -0.522297
O22   O     O_3   0.368310 0.629070 0.432760 -0.427114
O23   O     O_2   0.250834 0.753942 0.478045 -0.482281
O24   O     O_3   0.937847 0.685186 0.633293 -0.674412
O25   O     O_3   0.337222 0.745274 0.368238 -0.685622
O26   O     O_2   0.210480 0.460990 0.358130 -0.428397
O27   O     O_3   0.959520 0.592090 0.401630 -0.513972
O28   O     O_2   0.086569 0.545959 0.295361 -0.343225
P1    P     P_3+3 0.935930 0.665430 0.555670 1.000181
P2    P     P_3+3 0.382700 0.439650 0.365620 1.092852
P3    P     P_3+3 0.943910 0.589129 0.325308 1.059035
P4    P     P_3+3 0.874370 0.334570 0.444280 1.072579
P5    P     P_3+3 0.860333 0.412523 0.675740 1.212785
P6    P     P_3+3 0.388043 0.721851 0.437093 0.981758
P7    P     P_3+3 0.416312 0.556769 0.645788 0.995329
P8    P     P_3+3 0.424546 0.277002 0.561937 1.129692
F1    F     F_    0.341139 0.627793 0.320307 -0.670304
F2    F     F_    0.908222 0.570356 0.649828 -0.720281
N3    N     N_3   0.572519 0.699328 0.318123 -0.467374
H42   H     H_    0.612714 0.752855 0.330500 0.103326
H43   H     H_    0.612535 0.670627 0.350055 0.124990
F3    F     F_    0.348411 0.664200 0.215043 -0.642155
N4    N     N_3   0.560043 0.816321 0.631142 -0.505292
H44   H     H_    0.681180 0.802442 0.629618 0.181272
H45   H     H_    0.515034 0.807973 0.587882 0.162983
F4    F     F_    0.822597 0.266690 0.603298 -0.716609
N5    N     N_3   0.894141 0.138782 0.648402 -0.496347
H46   H     H_    0.836729 0.130257 0.607113 0.198264
H47   H     H_    0.016814 0.147802 0.641511 0.248473
N6    N     N_3   0.877476 0.208126 0.746383 -0.413197
H48   H     H_    0.002649 0.204896 0.748240 0.239962
H49   H     H_    0.829231 0.163292 0.762264 0.248760
F5    F     F_    0.464830 0.357396 0.699883 -0.703249
F6    F     F_    0.474533 0.247047 0.757541 -0.643738
F7    F     F_    0.286613 0.183169 0.698041 -0.741163
F8    F     F_    0.169663 0.359130 0.517764 -0.729311
N7    N     N_3   0.775446 0.185653 0.379653 -0.470022
H50   H     H_    0.886387 0.185328 0.357929 0.172949
H51   H     H_    0.707902 0.147476 0.350635 0.163066
N8    N     N_3   0.455996 0.126743 0.408959 -0.520505
H52   H     H_    0.496708 0.180171 0.419453 0.206176
H53   H     H_    0.442803 0.112502 0.363001 0.168842
N9    N     N_3   0.370537 0.872406 0.436447 -0.455776
H54   H     H_    0.292933 0.906584 0.463160 0.171834
H55   H     H_    0.358962 0.879610 0.392361 0.173932
F9    F     F_    0.363519 0.301049 0.047925 -0.577699
F10   F     F_    0.267168 0.294136 0.935672 -0.571357
F11   F     F_    0.465774 0.675534 0.954993 -0.629945
F12   F     F_    0.319950 0.446199 0.233890 -0.650886

loop_
_geom_bond_atom_site_label_1
_geom_bond_atom_site_label_2
_ccdc_geom_bond_type
C33   N8    S    
C2    F1    S    
C53   C54   A    
C70   H38   S    
C23   H19   S    
C71   O2    S    
C39   C40   A    
C17   C18   A    
C13   H26   S    
O27   P3    S    
C59   H35   S    
C7    F5    S    
C5    C6    S    
N6    H49   S    
C51   C52   A    
N9    H54   S    
O26   P2    D    
C10   C11   A    
C72   H11   S    
C35   C36   A    
Ba1   O26   S    
C25   C26   A    
C26   C27   A    
O8    P7    S    
Ba1   O8    S    
C45   H2    S    
Ba1   Ba2   S    
Ba1   O12   S    
O10   P5    D    
C2    O25   S    
C3    C4    S    
C71   H9    S    
C55   C57   A    
O17   P8    S    
C19   C31   A    
C57   O20   D    
O2    P2    S    
C4    H17   S    
Ba2   O12   S    
C54   C55   A    
C34   C45   S    
C16   C17   A    
C71   C72   S    
O22   P6    S    
C47   C48   A    
N7    H50   S    
C29   N7    S    
C65   P3    S    
C44   O18   D    
C38   N9    S    
C3    H14   S    
C3    O15   S    
C9    C15   A    
C64   C69   A    
C14   C15   A    
N8    H53   S    
C21   C22   A    
C62   H34   S    
C68   C69   A    
C72   H13   S    
C7    C8    S    
C64   H33   S    
Ba1   O22   S    
C46   N1    Am   
C10   C28   A    
C7    O17   S    
Ba2   P4    S    
C64   C65   A    
C34   H40   S    
C24   C29   A    
C57   N2    Am   
C27   C41   A    
C1    F3    S    
O14   P7    D    
C6    H21   S    
C40   H31   S    
C51   C58   A    
N9    H55   S    
C12   H24   S    
Ba2   O5    S    
C25   C32   A    
C13   C14   A    
C69   N2    S    
C49   C50   A    
O5    P4    S    
O1    P1    D    
C17   C20   A    
C31   C32   A    
C37   C39   A    
Ba1   O13   S    
C6    N5    S    
N6    H48   S    
C35   H29   S    
C56   H4    S    
C26   C37   A    
C8    F6    S    
C4    H16   S    
C5    F4    S    
C15   C19   A    
C1    H18   S    
C16   H27   S    
N4    H45   S    
O25   P6    S    
C11   H25   S    
C8    H23   S    
C30   C33   A    
C27   C28   A    
C49   F11   S    
C6    N6    S    
C23   H39   S    
O7    P4    S    
C12   H30   S    
C29   C30   A    
O23   P6    D    
C9    C25   A    
C53   F10   S    
C28   H28   S    
Ba2   O14   S    
C60   C70   S    
C58   N2    Am   
C67   H5    S    
C48   C52   A    
C61   C70   D    
C7    H22   S    
O12   P1    S    
C66   P2    S    
O24   P1    S    
C67   H7    S    
C39   P6    S    
Ba2   O9    S    
O11   P5    S    
C46   C47   A    
C2    N3    S    
O3    P3    S    
C12   O3    S    
C11   C13   A    
C5    O11   S    
C63   N1    S    
O16   P8    D    
C42   C66   A    
C40   C41   A    
C45   H3    S    
C1    C2    S    
C71   H8    S    
C37   C38   A    
O28   P3    D    
C50   C51   A    
C33   C35   A    
O6    P8    S    
Ba2   O4    S    
C5    H20   S    
N5    H46   S    
C60   P5    S    
C34   O7    S    
O13   P2    S    
C32   C36   A    
C46   O19   D    
C22   C24   A    
C42   C65   A    
C4    N4    S    
C9    C10   A    
C56   C67   S    
C21   F8    S    
C54   F9    S    
C72   H12   S    
C44   N1    Am   
C30   C31   A    
Ba2   O6    S    
N5    H47   S    
C68   F12   S    
C45   H1    S    
C22   P4    S    
Ba1   P1    S    
C41   P1    S    
C47   C53   A    
C62   C63   S    
C36   C38   A    
O9    P5    S    
C56   O24   S    
C18   C24   A    
C43   C48   A    
O15   P7    S    
N3    H43   S    
Ba2   O13   S    
O4    P4    D    
Ba1   O1    S    
C12   C23   S    
C59   C60   S    
N4    H44   S    
N7    H51   S    
C61   P7    S    
Ba1   P2    S    
C56   F2    S    
C23   H37   S    
C50   H32   S    
C61   C62   D    
Ba2   O8    S    
C43   C44   A    
N3    H42   S    
C18   C19   A    
C14   C16   A    
N8    H52   S    
C1    H10   S    
Ba1   O27   S    
C66   C68   A    
C43   C49   A    
C20   C21   A    
C67   H6    S    
C34   H41   S    
C8    F7    S    
C20   P8    S    
C3    H15   S    
Ba1   O5    S    
C58   O21   D    
C59   C63   D    
C52   C55   A    
C42   H36   S    
