data_mof_unit_64547.cif
_audit_creation_date              2012-12-10T19:13:19-0500
_audit_creation_method            fapswitch 2.2
_symmetry_space_group_name_H-M    P1
_symmetry_Int_Tables_number       1
_space_group_crystal_system       triclinic
_cell_length_a                    16.000263
_cell_length_b                    14.769688
_cell_length_c                    10.950715
_cell_angle_alpha                 90.000045
_cell_angle_beta                  90.00897
_cell_angle_gamma                 90.000024
_cell_volume                      2587.86080838

loop_
_atom_site_label
_atom_site_type_symbol
_atom_type_description
_atom_site_fract_x
_atom_site_fract_y
_atom_site_fract_z
_atom_type_partial_charge
C1    C     C_R   0.340854 0.499983 0.500004 0.819613
C2    C     C_R   0.659146 0.499983 0.499996 0.819613
C3    C     C_R   0.553781 0.952114 0.577216 -0.140307
C4    C     C_R   0.446219 0.952114 0.422784 -0.140306
C5    C     C_R   0.500000 0.902867 0.500000 0.042371
C6    C     C_R   0.446220 0.047895 0.422782 -0.148415
C7    C     C_R   0.553780 0.047895 0.577218 -0.148415
C8    C     C_R   0.500000 0.097139 0.500000 0.046132
C9    C     C_1   0.500000 0.802715 0.500000 0.146782
C10   C     C_1   0.500000 0.197288 0.500000 0.121542
C11   C     C_R   0.498943 0.500044 0.264727 0.851027
C12   C     C_R   0.501057 0.500044 0.735273 0.851017
C13   C     C_2   0.498153 0.425653 0.933138 -0.150692
C14   C     C_2   0.501847 0.425653 0.066862 -0.150693
C15   C     C_2   0.505386 0.501533 0.866955 -0.304384
C16   C     C_2   0.494614 0.501532 0.133045 -0.304379
C17   C     C_R   0.956347 0.583119 0.499922 0.557675
C18   C     C_R   0.043653 0.583118 0.499914 0.557675
C19   C     C_R   0.912757 0.500799 0.500007 -0.076656
C20   C     C_R   0.087243 0.500799 0.499990 -0.076655
C21   C     C_R   0.956406 0.418684 0.500083 -0.255820
C22   C     C_R   0.043594 0.418684 0.500075 -0.255819
C23   C     C_1   0.823276 0.500289 0.500008 0.078818
C24   C     C_1   0.176724 0.500289 0.499990 0.078818
C25   C     C_1   0.251754 0.500039 0.499994 -0.146250
C26   C     C_1   0.748246 0.500039 0.500005 -0.146250
Cu1   Cu    Cu3+1 0.500000 0.589220 0.500000 1.010801
Cu2   Cu    Cu3+1 0.500000 0.410780 0.500000 0.981914
H1    H     H_    0.490496 0.360522 0.888397 0.171309
H2    H     H_    0.509503 0.360522 0.111602 0.171310
H3    H     H_    0.516449 0.567108 0.907851 0.153197
H4    H     H_    0.483551 0.567107 0.092149 0.153198
H5    H     H_    0.923066 0.354824 0.500148 0.185053
H6    H     H_    0.076934 0.354824 0.500135 0.185053
H7    H     H_    0.595968 0.083561 0.637796 0.136374
H8    H     H_    0.404032 0.083561 0.362204 0.136377
H9    H     H_    0.595973 0.916449 0.637790 0.142853
H10   H     H_    0.404027 0.916449 0.362210 0.142859
N1    N     N_1   0.500000 0.276710 0.500000 -0.154485
N2    N     N_1   0.500000 0.723290 0.500000 -0.147196
O1    O     O_R   0.380310 0.575320 0.500020 -0.556584
O2    O     O_R   0.619690 0.575320 0.499980 -0.556583
O3    O     O_R   0.380310 0.424640 0.499970 -0.576414
O4    O     O_R   0.619690 0.424640 0.500030 -0.576414
O5    O     O_R   0.500000 0.575320 0.321940 -0.575904
O6    O     O_R   0.500000 0.575320 0.678060 -0.575911
O7    O     O_R   0.500000 0.424640 0.321880 -0.577488
O8    O     O_R   0.500000 0.424640 0.678120 -0.577489
F1    F     F_    0.085610 0.663043 0.499832 -0.610935
F2    F     F_    0.914390 0.663043 0.499848 -0.610934

loop_
_geom_bond_atom_site_label_1
_geom_bond_atom_site_label_2
_ccdc_geom_bond_type
C17   F2    S    
C19   C23   S    
Cu2   O7    S    
C5    C9    S    
C16   H4    S    
C1    O3    A    
C11   C16   S    
Cu1   O1    S    
Cu2   O3    S    
C3    C7    A    
C11   O7    A    
C12   C15   S    
Cu1   N2    S    
C12   O8    A    
Cu1   O5    S    
C17   C18   A    
C14   H2    S    
C7    C8    A    
C2    C26   S    
C13   C14   S    
C1    C25   S    
Cu1   O2    S    
C2    O2    A    
Cu1   O6    S    
C13   H1    S    
C17   C19   A    
C6    H8    S    
C18   C20   A    
C13   C15   D    
C22   H6    S    
C14   C16   D    
C11   O5    A    
C4    C6    A    
C21   H5    S    
C20   C22   A    
C4    C5    A    
C24   C25   T    
C3    H9    S    
C8    C10   S    
C23   C26   T    
C1    O1    A    
Cu1   Cu2   S    
Cu2   O8    S    
C6    C8    A    
Cu2   N1    S    
C19   C21   A    
C21   C22   A    
C7    H7    S    
C15   H3    S    
Cu2   O4    S    
C9    N2    T    
C2    O4    A    
C20   C24   S    
C18   F1    S    
C4    H10   S    
C10   N1    T    
C3    C5    A    
C12   O6    A    
