data_mof_unit_28767.cif
_audit_creation_date              2012-12-10T19:00:45-0500
_audit_creation_method            fapswitch 2.2
_symmetry_space_group_name_H-M    P1
_symmetry_Int_Tables_number       1
_space_group_crystal_system       triclinic
_cell_length_a                    15.044344
_cell_length_b                    10.831154
_cell_length_c                    9.565266
_cell_angle_alpha                 90.412164
_cell_angle_beta                  90.250088
_cell_angle_gamma                 90.653482
_cell_volume                      1558.48008888

loop_
_atom_site_label
_atom_site_type_symbol
_atom_type_description
_atom_site_fract_x
_atom_site_fract_y
_atom_site_fract_z
_atom_type_partial_charge
C1    C     C_R   0.497749 0.262430 0.499499 0.793053
C2    C     C_R   0.907046 0.550399 0.386772 0.105529
C3    C     C_R   0.953312 0.378293 0.714832 -0.190774
C4    C     C_R   0.046062 0.381161 0.716691 -0.209679
C5    C     C_R   0.093063 0.438653 0.608401 0.107229
C6    C     C_R   0.046616 0.493633 0.496914 0.064881
C7    C     C_R   0.093271 0.550002 0.386184 0.106385
C8    C     C_R   0.046565 0.605524 0.276690 -0.210227
C9    C     C_R   0.953901 0.606283 0.277347 -0.198942
C10   C     C_R   0.185750 0.442184 0.609412 -0.244848
C11   C     C_R   0.232025 0.497421 0.498968 -0.065357
C12   C     C_R   0.328765 0.499284 0.499739 0.804849
C13   C     C_R   0.185894 0.550274 0.387278 -0.245714
C14   C     C_R   0.485014 0.064847 0.624084 0.112130
C15   C     C_R   0.488037 0.129346 0.498505 -0.093157
C16   C     C_R   0.478717 0.063309 0.372125 -0.213438
C17   C     C_R   0.479262 0.934503 0.372628 -0.219096
C18   C     C_R   0.489295 0.870897 0.499481 -0.092699
C19   C     C_R   0.485977 0.937691 0.624587 0.131114
C20   C     C_3   0.546724 0.935211 0.748263 -0.485392
C21   C     C_3   0.544681 0.075052 0.748739 -0.442573
C22   C     C_R   0.527461 0.602261 0.075400 0.243886
C23   C     C_R   0.498424 0.737725 0.500169 0.797328
C24   C     C_R   0.462332 0.405672 0.073244 -0.045718
C25   C     C_R   0.461543 0.406264 0.924540 -0.040204
C26   C     C_R   0.531805 0.599665 0.928493 0.183248
C27   C     C_3   0.624379 0.654435 0.933886 -0.262188
C28   C     C_3   0.614662 0.666064 0.091449 -0.546284
C29   C     C_R   0.671248 0.498659 0.499900 0.814030
C30   C     C_R   0.814526 0.552193 0.389256 -0.233469
C31   C     C_R   0.768005 0.495365 0.498317 -0.055400
C32   C     C_R   0.813948 0.433863 0.603978 -0.174634
C33   C     C_R   0.906645 0.434329 0.605637 0.112901
C34   C     C_R   0.953426 0.492679 0.496393 0.055145
Cu1   Cu    Cu3+1 0.500000 0.499980 0.640670 0.959258
Cu2   Cu    Cu3+1 0.500000 0.500020 0.359330 0.949812
H1    H     H_    0.778886 0.599473 0.307504 0.141737
H2    H     H_    0.476261 0.885600 0.273519 0.160516
H3    H     H_    0.514134 0.893919 0.841238 0.193244
H4    H     H_    0.613235 0.898407 0.721413 0.201528
H5    H     H_    0.510103 0.114209 0.841158 0.191767
H6    H     H_    0.610062 0.118690 0.724533 0.205175
H7    H     H_    0.433235 0.328105 0.127714 0.123113
H8    H     H_    0.431311 0.329557 0.868376 0.123423
H9    H     H_    0.630266 0.745290 0.882676 0.136545
H10   H     H_    0.662755 0.612006 0.153284 0.227036
H11   H     H_    0.777375 0.385753 0.684499 0.145515
H12   H     H_    0.606943 0.763057 0.127818 0.178528
H13   H     H_    0.918086 0.333430 0.799373 0.141241
H14   H     H_    0.081027 0.338324 0.802586 0.144426
H15   H     H_    0.221939 0.400321 0.694829 0.146385
H16   H     H_    0.222152 0.593467 0.302557 0.151024
H17   H     H_    0.081703 0.649039 0.191169 0.148159
H18   H     H_    0.918883 0.650471 0.192383 0.156989
H19   H     H_    0.475604 0.110495 0.272803 0.159240
N1    N     N_R   0.500570 0.500930 0.147930 -0.169416
N2    N     N_R   0.500570 0.500890 0.852020 -0.177929
O1    O     O_R   0.500000 0.319640 0.618810 -0.586643
O2    O     O_R   0.500010 0.319680 0.381230 -0.587340
O3    O     O_R   0.370250 0.499950 0.618800 -0.586772
O4    O     O_R   0.370260 0.499990 0.381220 -0.588036
O5    O     O_R   0.499990 0.680320 0.618770 -0.583839
O6    O     O_R   0.500000 0.680360 0.381190 -0.589269
O7    O     O_R   0.629740 0.500010 0.618780 -0.565607
O8    O     O_R   0.629750 0.500050 0.381200 -0.579978
C35   C     C_2   0.698046 0.567296 0.897365 0.937134
O9    O     O_2   0.762546 0.606009 0.833313 -0.616212
O10   O     O_R   0.695093 0.445138 0.943988 -0.759922
H20   H     H_    0.751704 0.398811 0.923333 0.307252

loop_
_geom_bond_atom_site_label_1
_geom_bond_atom_site_label_2
_ccdc_geom_bond_type
C8    H17   S    
C35   O10   S    
C11   C12   S    
C6    C7    A    
C1    C15   S    
C24   N1    A    
Cu2   O6    S    
C19   C20   S    
C14   C15   A    
Cu1   N2    S    
C30   C31   A    
C2    C30   A    
Cu2   O2    S    
C32   C33   A    
C27   H9    S    
C23   O6    A    
C35   O9    D    
C3    H13   S    
C16   H19   S    
C5    C10   A    
C29   C31   S    
C27   C35   S    
C22   C28   S    
C1    O1    A    
C24   C25   A    
C12   O4    A    
C11   C13   A    
C28   H10   S    
C26   C27   S    
Cu1   O7    S    
C25   N2    A    
Cu1   O1    S    
C29   O8    A    
C10   H15   S    
C14   C21   S    
Cu2   N1    S    
C32   H11   S    
C33   C34   A    
Cu1   O5    S    
C17   H2    S    
C1    O2    A    
Cu2   O4    S    
C22   C26   A    
C5    C6    A    
C20   H4    S    
C26   N2    A    
C21   H5    S    
C29   O7    A    
C16   C17   A    
C15   C16   A    
C3    C33   A    
C21   H6    S    
C13   H16   S    
C6    C34   A    
C7    C13   A    
C18   C19   A    
C20   C21   S    
C25   H8    S    
C17   C18   A    
C7    C8    A    
C10   C11   A    
C27   C28   S    
C24   H7    S    
C20   H3    S    
Cu2   O8    S    
Cu1   O3    S    
C22   N1    A    
C9    H18   S    
C23   O5    A    
C2    C34   A    
O10   H20   S    
C2    C9    A    
C4    C5    A    
C14   C19   A    
C31   C32   A    
C28   H12   S    
C3    C4    A    
C18   C23   S    
C30   H1    S    
C4    H14   S    
C8    C9    A    
Cu1   Cu2   S    
C12   O3    A    
