data_mof_unit_40463.cif
_audit_creation_date              2012-12-11T14:28:12-0500
_audit_creation_method            fapswitch 2.2
_symmetry_space_group_name_H-M    P1
_symmetry_Int_Tables_number       1
_space_group_crystal_system       triclinic
_cell_length_a                    11.426125
_cell_length_b                    19.303705
_cell_length_c                    18.717978
_cell_angle_alpha                 89.774692
_cell_angle_beta                  89.886315
_cell_angle_gamma                 89.682069
_cell_volume                      4128.45633058

loop_
_atom_site_label
_atom_site_type_symbol
_atom_type_description
_atom_site_fract_x
_atom_site_fract_y
_atom_site_fract_z
_atom_type_partial_charge
C1    C     C_R   0.319465 0.962622 0.644750 0.535321
C2    C     C_R   0.318397 0.961894 0.855730 0.532879
C3    C     C_R   0.319579 0.037331 0.355212 0.532393
C4    C     C_R   0.318296 0.038747 0.144250 0.530597
C5    C     C_R   0.819465 0.462622 0.644750 0.535321
C6    C     C_R   0.818397 0.461894 0.855730 0.532879
C7    C     C_R   0.819579 0.537331 0.355212 0.532393
C8    C     C_R   0.818296 0.538748 0.144250 0.530597
C9    C     C_3   0.183757 0.715595 0.455791 -0.133232
C10   C     C_3   0.138350 0.702531 0.026097 -0.112234
C11   C     C_3   0.185819 0.282857 0.544325 -0.134095
C12   C     C_3   0.135580 0.257512 0.962304 -0.125483
C13   C     C_3   0.683757 0.215595 0.455791 -0.133232
C14   C     C_3   0.638350 0.202531 0.026097 -0.112234
C15   C     C_3   0.685819 0.782857 0.544325 -0.134095
C16   C     C_3   0.635580 0.757512 0.962304 -0.125483
C17   C     C_3   0.079556 0.749164 0.423295 0.044907
C18   C     C_3   0.021911 0.726972 0.059080 0.041060
C19   C     C_3   0.080572 0.250859 0.576871 0.045899
C20   C     C_3   0.010531 0.274593 0.940912 0.033475
C21   C     C_3   0.579556 0.249164 0.423295 0.044907
C22   C     C_3   0.521911 0.226971 0.059080 0.041060
C23   C     C_3   0.580572 0.750859 0.576871 0.045899
C24   C     C_3   0.510531 0.774593 0.940912 0.033475
C25   C     C_R   0.326333 0.016289 0.428499 -0.024578
C26   C     C_R   0.320510 0.017756 0.071274 -0.030286
C27   C     C_R   0.326211 0.983772 0.571476 -0.024652
C28   C     C_R   0.321407 0.984368 0.928768 -0.029009
C29   C     C_R   0.826333 0.516289 0.428499 -0.024578
C30   C     C_R   0.820511 0.517756 0.071274 -0.030287
C31   C     C_R   0.826211 0.483772 0.571476 -0.024652
C32   C     C_R   0.821407 0.484368 0.928768 -0.029009
C33   C     C_R   0.542620 0.992936 0.426357 -0.079647
C34   C     C_R   0.536704 0.991799 0.072870 -0.079649
C35   C     C_R   0.541798 0.007635 0.573758 -0.080058
C36   C     C_R   0.538003 0.006300 0.925944 -0.089770
C37   C     C_R   0.042620 0.492936 0.426357 -0.079647
C38   C     C_R   0.036704 0.491799 0.072870 -0.079649
C39   C     C_R   0.041798 0.507635 0.573758 -0.080058
C40   C     C_R   0.038003 0.506300 0.925944 -0.089770
C41   C     C_R   0.647696 0.996209 0.463272 -0.150391
C42   C     C_R   0.642464 0.990538 0.036021 -0.133369
C43   C     C_R   0.647253 0.004955 0.536890 -0.151090
C44   C     C_R   0.643441 0.000324 0.962743 -0.138533
C45   C     C_R   0.147696 0.496209 0.463272 -0.150391
C46   C     C_R   0.142464 0.490538 0.036021 -0.133370
C47   C     C_R   0.147253 0.504955 0.536890 -0.151090
C48   C     C_R   0.143441 0.500324 0.962743 -0.138533
C49   C     C_R   0.434393 0.998719 0.537413 -0.004331
C50   C     C_R   0.428955 0.001552 0.962186 -0.021643
C51   C     C_R   0.434649 0.001544 0.462618 -0.004147
C52   C     C_R   0.429045 0.004247 0.036691 -0.017470
C53   C     C_R   0.934393 0.498719 0.537413 -0.004331
C54   C     C_R   0.928955 0.501552 0.962186 -0.021643
C55   C     C_R   0.934649 0.501544 0.462618 -0.004147
C56   C     C_R   0.929045 0.504247 0.036691 -0.017470
C57   C     C_R   0.221720 0.982557 0.531267 -0.009592
C58   C     C_R   0.215259 0.980764 0.969504 0.002931
C59   C     C_R   0.221572 0.017566 0.468706 -0.009429
C60   C     C_R   0.212074 0.015377 0.032830 0.002113
C61   C     C_R   0.721719 0.482557 0.531267 -0.009592
C62   C     C_R   0.715259 0.480764 0.969504 0.002931
C63   C     C_R   0.721572 0.517566 0.468706 -0.009429
C64   C     C_R   0.712074 0.515377 0.032830 0.002113
C65   C     C_R   0.114067 0.954169 0.553414 -0.070294
C66   C     C_R   0.110557 0.945871 0.949899 -0.079092
C67   C     C_R   0.113550 0.046149 0.446647 -0.070559
C68   C     C_R   0.099002 0.040974 0.055392 -0.081877
C69   C     C_R   0.614067 0.454169 0.553414 -0.070294
C70   C     C_R   0.610557 0.445871 0.949899 -0.079092
C71   C     C_R   0.613550 0.546149 0.446647 -0.070559
C72   C     C_R   0.599002 0.540973 0.055392 -0.081877
C73   C     C_R   0.009395 0.981590 0.530828 -0.152548
C74   C     C_R   0.001458 0.967324 0.974791 -0.135402
C75   C     C_R   0.009143 0.019311 0.469724 -0.153160
C76   C     C_R   0.995947 0.018687 0.024865 -0.137765
C77   C     C_R   0.509395 0.481590 0.530828 -0.152548
C78   C     C_R   0.501458 0.467324 0.974791 -0.135402
C79   C     C_R   0.509143 0.519311 0.469724 -0.153160
C80   C     C_R   0.495947 0.518687 0.024865 -0.137765
C81   C     C_R   0.175867 0.769883 0.634836 0.535042
C82   C     C_R   0.135248 0.757610 0.855742 0.536648
C83   C     C_R   0.175904 0.229957 0.364980 0.535965
C84   C     C_R   0.138022 0.241682 0.142648 0.538984
C85   C     C_R   0.675867 0.269883 0.634836 0.535042
C86   C     C_R   0.635248 0.257610 0.855742 0.536648
C87   C     C_R   0.675904 0.729957 0.364980 0.535965
C88   C     C_R   0.638022 0.741682 0.142648 0.538984
C89   C     C_R   0.543924 0.768294 0.647789 0.539768
C90   C     C_R   0.495509 0.787897 0.862540 0.556380
C91   C     C_R   0.543691 0.231661 0.352354 0.543389
C92   C     C_R   0.499063 0.213132 0.136688 0.557675
C93   C     C_R   0.043924 0.268294 0.647789 0.539768
C94   C     C_R   0.995509 0.287897 0.862540 0.556380
C95   C     C_R   0.043691 0.731662 0.352354 0.543389
C96   C     C_R   0.999063 0.713132 0.136688 0.557675
C97   C     C_3   0.105153 0.818195 0.456766 -0.114033
C98   C     C_3   0.034114 0.799021 0.023130 -0.121876
C99   C     C_3   0.104625 0.181665 0.543120 -0.112766
C100  C     C_3   0.964329 0.216800 0.991153 -0.112863
C101  C     C_3   0.605153 0.318194 0.456766 -0.114033
C102  C     C_3   0.534114 0.299021 0.023130 -0.121876
C103  C     C_3   0.604625 0.681665 0.543120 -0.112766
C104  C     C_3   0.464329 0.716800 0.991153 -0.112864
C105  C     C_3   0.213730 0.785828 0.491861 -0.164996
C106  C     C_3   0.151163 0.774194 0.990521 -0.152176
C107  C     C_3   0.213932 0.212340 0.507783 -0.164268
C108  C     C_3   0.092380 0.200790 0.012185 -0.143652
C109  C     C_3   0.713730 0.285828 0.491861 -0.164996
C110  C     C_3   0.651163 0.274194 0.990521 -0.152176
C111  C     C_3   0.713932 0.712340 0.507783 -0.164268
C112  C     C_3   0.592380 0.700790 0.012185 -0.143652
C113  C     C_3   0.138595 0.763872 0.557770 0.035474
C114  C     C_3   0.085129 0.746440 0.926319 0.064226
C115  C     C_3   0.139081 0.235677 0.442238 0.034843
C116  C     C_3   0.085736 0.254302 0.072032 0.063905
C117  C     C_3   0.638595 0.263872 0.557770 0.035474
C118  C     C_3   0.585129 0.246440 0.926319 0.064226
C119  C     C_3   0.639081 0.735677 0.442238 0.034843
C120  C     C_3   0.585736 0.754302 0.072032 0.063905
C121  C     C_3   0.031958 0.795662 0.521447 0.035680
C122  C     C_3   0.968957 0.771331 0.956413 0.012550
C123  C     C_3   0.031664 0.205464 0.478814 0.034925
C124  C     C_3   0.958701 0.270669 0.053100 0.000162
C125  C     C_3   0.531958 0.295662 0.521447 0.035680
C126  C     C_3   0.468957 0.271331 0.956413 0.012550
C127  C     C_3   0.531664 0.705464 0.478814 0.034925
C128  C     C_3   0.458701 0.770669 0.053100 0.000162
C129  C     C_3   0.005319 0.725874 0.485660 -0.096213
C130  C     C_3   0.952981 0.699662 0.993407 -0.118407
C131  C     C_3   0.006806 0.275579 0.514841 -0.096597
C132  C     C_3   0.001419 0.328355 0.001568 -0.110346
C133  C     C_3   0.505319 0.225874 0.485660 -0.096213
C134  C     C_3   0.452981 0.199662 0.993407 -0.118407
C135  C     C_3   0.506806 0.775579 0.514841 -0.096597
C136  C     C_3   0.501419 0.828355 0.001568 -0.110345
C137  C     C_3   0.111336 0.693954 0.521505 -0.122218
C138  C     C_3   0.071168 0.675530 0.961017 -0.111855
C139  C     C_3   0.113725 0.305833 0.478877 -0.122909
C140  C     C_3   0.129304 0.311583 0.022162 -0.102882
C141  C     C_3   0.611336 0.193954 0.521505 -0.122218
C142  C     C_3   0.571168 0.175530 0.961017 -0.111855
C143  C     C_3   0.613725 0.805833 0.478877 -0.122909
C144  C     C_3   0.629304 0.811583 0.022162 -0.102882
Cr1   Cr    Cr6+3 0.488160 0.884660 0.750000 0.977930
Cr2   Cr    Cr6+3 0.488160 0.115340 0.250000 0.984886
Cr3   Cr    Cr6+3 0.988160 0.384660 0.750000 0.977930
Cr4   Cr    Cr6+3 0.988160 0.615340 0.250000 0.984886
Cr5   Cr    Cr6+3 0.173480 0.883120 0.750000 0.972000
Cr6   Cr    Cr6+3 0.173480 0.116880 0.250000 0.977514
Cr7   Cr    Cr6+3 0.673480 0.383120 0.750000 0.972000
Cr8   Cr    Cr6+3 0.673480 0.616880 0.250000 0.977514
Cr9   Cr    Cr6+3 0.333410 0.727260 0.750000 1.001389
Cr10  Cr    Cr6+3 0.333410 0.272740 0.250000 0.998675
Cr11  Cr    Cr6+3 0.833410 0.227260 0.750000 1.001389
Cr12  Cr    Cr6+3 0.833410 0.772740 0.250000 0.998675
H1    H     H_    0.285757 0.821424 0.481146 0.102408
H2    H     H_    0.231423 0.805782 0.984021 0.101594
H3    H     H_    0.283646 0.174179 0.517247 0.102490
H4    H     H_    0.147089 0.154154 0.009094 0.109759
H5    H     H_    0.785756 0.321424 0.481146 0.102408
H6    H     H_    0.731423 0.305782 0.984021 0.101594
H7    H     H_    0.783646 0.674179 0.517247 0.102490
H8    H     H_    0.647089 0.654154 0.009094 0.109759
H9    H     H_    0.927769 0.970804 0.557178 0.111466
H10   H     H_    0.921283 0.944993 0.955682 0.093105
H11   H     H_    0.927377 0.030592 0.443713 0.111090
H12   H     H_    0.912376 0.039010 0.042621 0.100600
H13   H     H_    0.427769 0.470804 0.557178 0.111466
H14   H     H_    0.421283 0.444993 0.955682 0.093105
H15   H     H_    0.427377 0.530592 0.443713 0.111090
H16   H     H_    0.412376 0.539010 0.042621 0.100600
H17   H     H_    0.106465 0.868318 0.427491 0.128024
H18   H     H_    0.018018 0.848284 0.051798 0.138339
H19   H     H_    0.105629 0.131633 0.572581 0.128442
H20   H     H_    0.896375 0.178103 0.977872 0.121243
H21   H     H_    0.606465 0.368318 0.427491 0.128024
H22   H     H_    0.518018 0.348284 0.051798 0.138339
H23   H     H_    0.605629 0.631633 0.572581 0.128442
H24   H     H_    0.396375 0.678103 0.977872 0.121243
H25   H     H_    0.930282 0.696659 0.467287 0.102999
H26   H     H_    0.871500 0.668733 0.996019 0.098353
H27   H     H_    0.933708 0.307512 0.533014 0.102427
H28   H     H_    0.954632 0.377285 0.995485 0.127496
H29   H     H_    0.430282 0.196659 0.467287 0.102999
H30   H     H_    0.371500 0.168733 0.996019 0.098353
H31   H     H_    0.433708 0.807512 0.533014 0.102427
H32   H     H_    0.454632 0.877285 0.995485 0.127496
H33   H     H_    0.110606 0.643187 0.548933 0.139585
H34   H     H_    0.092351 0.629928 0.928820 0.134537
H35   H     H_    0.114122 0.356758 0.451690 0.139232
H36   H     H_    0.198666 0.349400 0.035204 0.127078
H37   H     H_    0.610606 0.143187 0.548933 0.139585
H38   H     H_    0.592351 0.129928 0.928820 0.134537
H39   H     H_    0.614122 0.856758 0.451690 0.139232
H40   H     H_    0.698666 0.849400 0.035204 0.127078
H41   H     H_    0.219845 0.675647 0.419893 0.151215
H42   H     H_    0.208425 0.672738 0.053674 0.127541
H43   H     H_    0.220550 0.322442 0.580621 0.150743
H44   H     H_    0.202131 0.241387 0.924270 0.137585
H45   H     H_    0.719845 0.175647 0.419893 0.151215
H46   H     H_    0.708425 0.172738 0.053674 0.127541
H47   H     H_    0.720549 0.822442 0.580621 0.150743
H48   H     H_    0.702131 0.741387 0.924270 0.137586
H49   H     H_    0.729425 0.992203 0.434361 0.100075
H50   H     H_    0.723592 0.982080 0.064537 0.102301
H51   H     H_    0.728595 0.009256 0.565882 0.100038
H52   H     H_    0.725695 0.002741 0.934116 0.106775
H53   H     H_    0.229425 0.492203 0.434361 0.100075
H54   H     H_    0.223592 0.482080 0.064537 0.102301
H55   H     H_    0.228595 0.509256 0.565882 0.100038
H56   H     H_    0.225695 0.502741 0.934116 0.106775
H57   H     H_    0.548402 0.981763 0.370037 0.141110
H58   H     H_    0.541310 0.979039 0.128939 0.139241
H59   H     H_    0.546777 0.018698 0.630109 0.142161
H60   H     H_    0.544659 0.017926 0.869683 0.141439
H61   H     H_    0.048402 0.481763 0.370037 0.141110
H62   H     H_    0.041310 0.479039 0.128939 0.139241
H63   H     H_    0.046777 0.518698 0.630109 0.142161
H64   H     H_    0.044659 0.517926 0.869683 0.141439
H65   H     H_    0.109566 0.090471 0.413243 0.180422
H66   H     H_    0.085061 0.081848 0.093248 0.175265
H67   H     H_    0.110755 0.909729 0.586665 0.180278
H68   H     H_    0.111826 0.901661 0.916164 0.172320
H69   H     H_    0.609566 0.590471 0.413243 0.180422
H70   H     H_    0.585061 0.581848 0.093248 0.175265
H71   H     H_    0.610755 0.409728 0.586665 0.180278
H72   H     H_    0.611826 0.401661 0.916164 0.172320
O1    O     O_R   0.575450 0.828820 0.667950 -0.533674
O2    O     O_R   0.575450 0.828820 0.832050 -0.532205
O3    O     O_R   0.575450 0.171180 0.332050 -0.530109
O4    O     O_R   0.575450 0.171180 0.167950 -0.523556
O5    O     O_R   0.075450 0.328820 0.667950 -0.533674
O6    O     O_R   0.075450 0.328820 0.832050 -0.532205
O7    O     O_R   0.075450 0.671180 0.332050 -0.530109
O8    O     O_R   0.075450 0.671180 0.167950 -0.523556
O9    O     O_R   0.416860 0.942890 0.674680 -0.514671
O10   O     O_R   0.416860 0.942890 0.825320 -0.529672
O11   O     O_R   0.416860 0.057110 0.325320 -0.516723
O12   O     O_R   0.416860 0.057110 0.174680 -0.528242
O13   O     O_R   0.916860 0.442890 0.674680 -0.514671
O14   O     O_R   0.916860 0.442890 0.825320 -0.529672
O15   O     O_R   0.916860 0.557110 0.325320 -0.516723
O16   O     O_R   0.916860 0.557110 0.174680 -0.528242
O17   O     O_R   0.213790 0.953680 0.668330 -0.539036
O18   O     O_R   0.213790 0.953680 0.831670 -0.526184
O19   O     O_R   0.213790 0.046320 0.331670 -0.540115
O20   O     O_R   0.213790 0.046320 0.168330 -0.534221
O21   O     O_R   0.713790 0.453680 0.668330 -0.539036
O22   O     O_R   0.713790 0.453680 0.831670 -0.526184
O23   O     O_R   0.713790 0.546320 0.331670 -0.540115
O24   O     O_R   0.713790 0.546320 0.168330 -0.534221
O25   O     O_R   0.121360 0.817890 0.672660 -0.530879
O26   O     O_R   0.121360 0.817890 0.827340 -0.539173
O27   O     O_R   0.121360 0.182110 0.327340 -0.525461
O28   O     O_R   0.121360 0.182110 0.172660 -0.526241
O29   O     O_R   0.621360 0.317890 0.672660 -0.530879
O30   O     O_R   0.621360 0.317890 0.827340 -0.539173
O31   O     O_R   0.621360 0.682110 0.327340 -0.525461
O32   O     O_R   0.621360 0.682110 0.172660 -0.526241
O33   O     O_R   0.206850 0.711370 0.665820 -0.531586
O34   O     O_R   0.206850 0.711370 0.834180 -0.533768
O35   O     O_R   0.206850 0.288630 0.334180 -0.532045
O36   O     O_R   0.206850 0.288630 0.165820 -0.537607
O37   O     O_R   0.706850 0.211370 0.665820 -0.531586
O38   O     O_R   0.706850 0.211370 0.834180 -0.533768
O39   O     O_R   0.706850 0.788630 0.334180 -0.532045
O40   O     O_R   0.706850 0.788630 0.165820 -0.537607
O41   O     O_R   0.457710 0.733190 0.672630 -0.523151
O42   O     O_R   0.457710 0.733190 0.827370 -0.503855
O43   O     O_R   0.457710 0.266810 0.327370 -0.523434
O44   O     O_R   0.457710 0.266810 0.172630 -0.509120
O45   O     O_R   0.957710 0.233190 0.672630 -0.523151
O46   O     O_R   0.957710 0.233190 0.827370 -0.503855
O47   O     O_R   0.957710 0.766810 0.327370 -0.523434
O48   O     O_R   0.957710 0.766810 0.172630 -0.509120
O49   O     O_3   0.331690 0.831680 0.750000 -0.301589
O50   O     O_3   0.331690 0.168320 0.250000 -0.300627
O51   O     O_3   0.831690 0.331680 0.750000 -0.301589
O52   O     O_3   0.831690 0.668320 0.250000 -0.300627
C145  C     C_3   0.929169 0.831560 0.549803 -0.267129
C146  C     C_3   0.864288 0.863735 0.484815 -0.426762
H73   H     H_    0.919135 0.895957 0.449800 0.155594
H74   H     H_    0.833993 0.822939 0.448177 0.191809
H75   H     H_    0.792105 0.896972 0.503249 0.131994
H76   H     H_    0.886908 0.789129 0.579183 0.141855
H77   H     H_    0.945165 0.867633 0.593650 0.133815
C147  C     C_3   0.890802 0.811366 0.903133 -0.279914
C148  C     C_3   0.858653 0.768108 0.836982 -0.423461
H78   H     H_    0.926955 0.771007 0.795109 0.172129
H79   H     H_    0.846236 0.712598 0.850697 0.140364
H80   H     H_    0.777837 0.788830 0.812326 0.181814
H81   H     H_    0.813503 0.832776 0.930561 0.137875
H82   H     H_    0.937338 0.857209 0.882733 0.152798
C149  C     C_3   0.928469 0.170042 0.451495 -0.267172
C150  C     C_3   0.864837 0.137900 0.517032 -0.423929
H83   H     H_    0.920331 0.105677 0.551839 0.155314
H84   H     H_    0.833911 0.178805 0.553582 0.193371
H85   H     H_    0.793333 0.104288 0.499376 0.130282
H86   H     H_    0.885104 0.212678 0.422741 0.143478
H87   H     H_    0.944049 0.133977 0.407443 0.134273
C151  C     C_3   0.871565 0.277198 0.115678 -0.284680
C152  C     C_3   0.894127 0.340701 0.161844 -0.422039
H88   H     H_    0.984336 0.340752 0.183382 0.171251
H89   H     H_    0.879633 0.388295 0.129918 0.146355
H90   H     H_    0.831913 0.341200 0.207496 0.151905
H91   H     H_    0.781454 0.281925 0.096977 0.158363
H92   H     H_    0.877041 0.229741 0.149291 0.160471
C153  C     C_3   0.429169 0.331560 0.549803 -0.267129
C154  C     C_3   0.364288 0.363735 0.484815 -0.426762
H93   H     H_    0.419135 0.395957 0.449800 0.155594
H94   H     H_    0.333993 0.322939 0.448177 0.191809
H95   H     H_    0.292105 0.396972 0.503249 0.131994
H96   H     H_    0.386908 0.289129 0.579183 0.141855
H97   H     H_    0.445165 0.367633 0.593650 0.133815
C155  C     C_3   0.390802 0.311366 0.903133 -0.279914
C156  C     C_3   0.358653 0.268108 0.836982 -0.423461
H98   H     H_    0.426955 0.271007 0.795109 0.172129
H99   H     H_    0.346235 0.212598 0.850697 0.140364
H100  H     H_    0.277837 0.288830 0.812326 0.181814
H101  H     H_    0.313503 0.332776 0.930561 0.137875
H102  H     H_    0.437338 0.357210 0.882733 0.152798
C157  C     C_3   0.428469 0.670042 0.451495 -0.267172
C158  C     C_3   0.364837 0.637900 0.517032 -0.423929
H103  H     H_    0.420331 0.605677 0.551839 0.155314
H104  H     H_    0.333911 0.678805 0.553582 0.193371
H105  H     H_    0.293333 0.604288 0.499376 0.130282
H106  H     H_    0.385104 0.712678 0.422741 0.143478
H107  H     H_    0.444049 0.633977 0.407443 0.134273
C159  C     C_3   0.371565 0.777198 0.115678 -0.284680
C160  C     C_3   0.394128 0.840701 0.161844 -0.422039
H108  H     H_    0.484336 0.840752 0.183383 0.171251
H109  H     H_    0.379633 0.888295 0.129918 0.146355
H110  H     H_    0.331913 0.841200 0.207496 0.151905
H111  H     H_    0.281454 0.781925 0.096977 0.158362
H112  H     H_    0.377041 0.729741 0.149291 0.160471

loop_
_geom_bond_atom_site_label_1
_geom_bond_atom_site_label_2
_ccdc_geom_bond_type
C6    C32   S    
Cr1   O2    S    
C7    C29   S    
C119  C143  S    
C38   H62   S    
C120  C144  S    
C74   H10   S    
C110  C118  S    
C126  C155  S    
C24   C104  S    
C152  H89   S    
Cr10  O36   S    
C146  H73   S    
C16   C144  S    
C70   H72   S    
C57   C59   A    
C8    O16   A    
C58   C60   A    
C151  H92   S    
C62   C70   A    
C61   C63   A    
C62   C64   A    
Cr10  O35   S    
C23   C103  S    
C48   H56   S    
C158  H103  S    
C49   C51   A    
C34   C42   A    
C84   O28   A    
Cr4   O15   S    
C50   C52   A    
C23   C89   S    
C157  H107  S    
C147  H82   S    
C97   C105  S    
C155  H102  S    
C40   H64   S    
C41   C43   A    
C90   O42   A    
C42   C44   A    
C20   C132  S    
Cr10  O44   S    
C21   C133  S    
C45   C47   A    
C112  H8    S    
C46   C48   A    
C115  C123  S    
C159  C160  S    
C6    O22   A    
C157  C158  S    
C27   C57   A    
C87   O31   A    
C112  C120  S    
C33   H57   S    
C94   O6    A    
C29   C55   A    
C46   H54   S    
C30   C56   A    
C155  C156  S    
C100  C124  S    
C156  H100  S    
C68   H66   S    
C15   C111  S    
C152  H88   S    
C104  C128  S    
C12   C20   S    
C142  H38   S    
C13   C21   S    
C85   C117  S    
Cr11  O37   S    
C150  H83   S    
C63   C71   A    
C113  C137  S    
C36   C44   A    
C33   C51   A    
C80   H16   S    
C37   C45   A    
C130  C138  S    
C36   C50   A    
C39   C47   A    
C145  H76   S    
C40   C48   A    
C20   C94   S    
C133  C141  S    
Cr1   O49   S    
C24   C90   S    
C15   H47   S    
C28   C58   A    
C98   C106  S    
Cr5   O26   S    
C33   C41   A    
C1    O17   A    
C10   C18   S    
C158  H105  S    
C76   H12   S    
Cr12  O48   S    
C2    C28   S    
C32   C62   A    
C129  C137  S    
C126  C134  S    
C7    O23   A    
C92   O4    A    
C84   O36   A    
C10   C138  S    
C81   O25   A    
C16   H48   S    
C14   C142  S    
C81   O33   A    
Cr5   O18   S    
C47   H55   S    
C69   C77   A    
C134  H30   S    
C83   O35   A    
C123  C149  S    
C71   C79   A    
C110  H6    S    
Cr6   O20   S    
C74   C76   A    
C39   H63   S    
C78   C80   A    
Cr3   O13   S    
Cr5   O25   S    
C66   C74   A    
C78   H14   S    
C124  C132  S    
C111  C119  S    
C67   H65   S    
Cr11  O51   S    
C59   C67   A    
C150  H85   S    
C35   C49   A    
C101  C125  S    
Cr5   O49   S    
C35   C43   A    
C133  H29   S    
C24   C136  S    
C135  C143  S    
C84   C116  S    
C136  H32   S    
C121  C145  S    
Cr11  O46   S    
C135  H31   S    
C9    H41   S    
Cr7   O22   S    
Cr2   O3    S    
C100  C108  S    
C83   C115  S    
C101  H21   S    
C73   H9    S    
C104  C112  S    
C1    O9    A    
C45   H53   S    
C91   O3    A    
C87   C119  S    
C93   O45   A    
Cr12  O40   S    
C57   C65   A    
Cr1   O10   S    
C148  H78   S    
C12   H44   S    
C141  H37   S    
C15   C143  S    
C40   C54   A    
C159  H111  S    
C102  H22   S    
C137  H33   S    
C10   C106  S    
C67   C75   A    
Cr8   O24   S    
Cr7   O29   S    
C14   C110  S    
Cr1   O1    S    
C8    O24   A    
C102  C126  S    
C144  H40   S    
C68   C76   A    
C113  C121  S    
C146  H74   S    
Cr4   O7    S    
C85   O29   A    
C100  H20   S    
C14   C22   S    
C72   C80   A    
C36   H60   S    
Cr8   O31   S    
Cr6   O27   S    
C96   O48   A    
C14   H46   S    
C150  H84   S    
C114  C138  S    
C160  H110  S    
C38   C46   A    
C131  C139  S    
C37   C55   A    
Cr3   O6    S    
C99   H19   S    
C146  H75   S    
C158  H104  S    
Cr4   O16   S    
C22   C92   S    
C90   O2    A    
C128  C159  S    
C25   C59   A    
Cr2   O50   S    
C17   C97   S    
C27   C49   A    
C87   O39   A    
C119  C127  S    
C29   C63   A    
C30   C64   A    
C73   C75   A    
C31   C61   A    
Cr9   O42   S    
C37   H61   S    
C109  C117  S    
C11   C19   S    
C127  C135  S    
Cr12  O52   S    
C139  H35   S    
C128  C136  S    
C92   O44   A    
C101  C109  S    
C148  H80   S    
C95   O47   A    
C103  C111  S    
C79   H15   S    
C156  H99   S    
C11   C139  S    
C86   O30   A    
C116  C140  S    
C131  H27   S    
C105  H1    S    
C82   O34   A    
C12   C140  S    
C17   C95   S    
C13   C141  S    
C88   C120  S    
C19   C93   S    
C149  H87   S    
C77   C79   A    
Cr5   O17   S    
C72   H70   S    
C3    O19   A    
C32   C54   A    
C152  H90   S    
C154  H94   S    
C153  H97   S    
C43   H51   S    
C5    O21   A    
C3    C25   S    
C97   H17   S    
C35   H59   S    
C34   H58   S    
C149  C150  S    
C93   O5    A    
C151  H91   S    
Cr4   O52   S    
C83   O27   A    
C117  C141  S    
C160  H108  S    
C134  C142  S    
C107  H3    S    
C20   C100  S    
C143  H39   S    
C4    O12   A    
C86   C118  S    
C147  H81   S    
C22   C134  S    
C155  H101  S    
C102  C110  S    
Cr10  O43   S    
C65   H67   S    
C16   C112  S    
C12   C108  S    
C21   C91   S    
C105  C113  S    
C154  H93   S    
C19   C99   S    
C116  C124  S    
C123  C131  S    
C88   O40   A    
C121  C129  S    
C94   O46   A    
C4    C26   S    
C153  H96   S    
C120  C128  S    
C149  H86   S    
C132  C140  S    
C99   C107  S    
Cr2   O12   S    
C34   C52   A    
C23   C135  S    
C8    C30   S    
Cr9   O33   S    
C108  C116  S    
C2    O18   A    
C136  C144  S    
C132  H28   S    
C39   C53   A    
C42   H50   S    
C103  H23   S    
C11   H43   S    
Cr11  O38   S    
C124  C151  S    
C88   O32   A    
Cr2   O11   S    
C60   C68   A    
C81   C113  S    
C82   O26   A    
C9    C105  S    
C71   H69   S    
C3    O11   A    
C154  H95   S    
C145  H77   S    
C70   C78   A    
C18   C96   S    
Cr11  O45   S    
Cr7   O21   S    
Cr2   O4    S    
C153  C154  S    
C69   H71   S    
C106  C114  S    
C89   O41   A    
C91   O43   A    
C98   H18   S    
Cr9   O49   S    
C44   H52   S    
C65   C73   A    
C157  H106  S    
C122  C147  S    
C4    O20   A    
Cr12  O47   S    
Cr7   O51   S    
Cr8   O52   S    
C28   C50   A    
C58   C66   A    
Cr1   O9    S    
C97   C121  S    
C21   C101  S    
C15   C23   S    
C13   C109  S    
C16   C24   S    
C159  H112  S    
C138  H34   S    
C95   O7    A    
C10   H42   S    
C53   C55   A    
C19   C131  S    
Cr6   O19   S    
C54   C56   A    
C17   C129  S    
C85   O37   A    
Cr10  O50   S    
C111  H7    S    
C82   C114  S    
C66   H68   S    
C130  H26   S    
C2    O10   A    
Cr3   O14   S    
C145  C146  S    
C106  H2    S    
Cr4   O8    S    
Cr6   O50   S    
C26   C52   A    
Cr8   O32   S    
Cr6   O28   S    
C125  C133  S    
C96   O8    A    
C38   C56   A    
C31   C53   A    
Cr9   O34   S    
C160  H109  S    
C107  C115  S    
C98   C122  S    
Cr3   O5    S    
C9    C17   S    
C127  C157  S    
C11   C107  S    
C140  H36   S    
C103  C127  S    
C99   C123  S    
C61   C69   A    
C129  H25   S    
C151  C152  S    
Cr9   O41   S    
C115  C139  S    
C118  C142  S    
Cr3   O51   S    
C108  H4    S    
C118  C126  S    
C25   C51   A    
C22   C102  S    
C5    O13   A    
C147  C148  S    
C9    C137  S    
C109  H5    S    
C104  H24   S    
Cr12  O39   S    
C26   C60   A    
C148  H79   S    
C13   H45   S    
C64   C72   A    
C41   H49   S    
C156  H98   S    
C18   C130  S    
C114  C122  S    
C77   H13   S    
C7    O15   A    
C1    C27   S    
C86   O38   A    
C6    O14   A    
C75   H11   S    
C18   C98   S    
C89   O1    A    
C117  C125  S    
C125  C153  S    
C122  C130  S    
Cr8   O23   S    
Cr7   O30   S    
C5    C31   S    
