data_mof_unit_26235.cif
_audit_creation_date              2012-12-11T14:00:00-0500
_audit_creation_method            fapswitch 2.2
_symmetry_space_group_name_H-M    P1
_symmetry_Int_Tables_number       1
_space_group_crystal_system       triclinic
_cell_length_a                    11.20253
_cell_length_b                    11.241994
_cell_length_c                    18.776195
_cell_angle_alpha                 89.932427
_cell_angle_beta                  90.283428
_cell_angle_gamma                 119.823285
_cell_volume                      2051.45735141

loop_
_atom_site_label
_atom_site_type_symbol
_atom_type_description
_atom_site_fract_x
_atom_site_fract_y
_atom_site_fract_z
_atom_type_partial_charge
C1    C     C_R   0.543101 0.477278 0.853403 0.583769
C2    C     C_R   0.478614 0.546326 0.353361 0.543345
C3    C     C_R   0.068103 0.521904 0.353387 0.544868
C4    C     C_R   0.458951 0.940434 0.350493 0.545538
C5    C     C_2   0.016195 0.510264 0.584213 -0.098780
C6    C     C_2   0.487958 0.505325 0.584107 -0.104049
C7    C     C_2   0.540102 0.093089 0.565582 -0.095107
C8    C     C_2   0.516006 0.028761 0.412739 -0.107811
C9    C     C_2   0.493124 0.520745 0.427553 -0.100690
C10   C     C_2   0.027906 0.507649 0.427459 -0.092460
C11   C     C_2   0.083702 0.454154 0.471946 -0.149787
C12   C     C_R   0.522650 0.065163 0.853320 0.588731
C13   C     C_2   0.543514 0.629181 0.472044 -0.150347
C14   C     C_2   0.444602 0.079102 0.445860 -0.150725
C15   C     C_2   0.473820 0.130824 0.519289 -0.166047
C16   C     C_2   0.565504 0.619533 0.547440 -0.155536
C17   C     C_2   0.051512 0.431711 0.547157 -0.162822
C18   C     C_2   0.925962 0.457601 0.933939 -0.104911
C19   C     C_2   0.495279 0.496337 0.921709 -0.098545
C20   C     C_2   0.503795 0.998708 0.921841 -0.108360
C21   C     C_2   0.503510 0.998225 0.077198 -0.116015
C22   C     C_2   0.495590 0.496609 0.077668 -0.113273
C23   C     C_R   0.874413 0.421879 0.861634 0.585993
C24   C     C_2   0.976741 0.492104 0.085595 -0.113038
C25   C     C_2   0.986550 0.591841 0.042060 0.225227
C26   C     C_2   0.387345 0.412353 0.036021 0.218825
C27   C     C_2   0.590433 0.975792 0.036742 0.216450
C28   C     C_2   0.611706 0.016931 0.962457 0.204868
C29   C     C_2   0.410592 0.388763 0.963076 0.215729
C30   C     C_2   0.919903 0.555398 0.972794 0.199744
C31   C     C_R   0.477019 0.543562 0.146332 0.585578
C32   C     C_R   0.063322 0.521397 0.147652 0.593155
C33   C     C_R   0.456658 0.933794 0.146266 0.584542
C34   C     C_R   0.541110 0.480559 0.649413 0.543138
C35   C     C_R   0.548987 0.130092 0.640127 0.555972
C36   C     C_R   0.939173 0.458349 0.649463 0.554658
Cl1   Cl    Cl    0.090793 0.770180 0.058936 -0.426906
Cl2   Cl    Cl    0.212498 0.325017 0.062436 -0.430301
Cl3   Cl    Cl    0.684364 0.896275 0.066730 -0.423088
Cl4   Cl    Cl    0.783511 0.087327 0.931896 -0.436766
Cl5   Cl    Cl    0.322790 0.214296 0.936428 -0.438850
Cl6   Cl    Cl    0.851645 0.657850 0.942641 -0.451048
Cr1   Cr    Cr6+3 0.464030 0.233680 0.750360 1.093779
Cr2   Cr    Cr6+3 0.766320 0.230350 0.750360 1.096465
Cr3   Cr    Cr6+3 0.769650 0.535970 0.750360 1.100496
Cr4   Cr    Cr6+3 0.233680 0.464030 0.249640 1.096762
Cr5   Cr    Cr6+3 0.230350 0.766320 0.249640 1.101277
Cr6   Cr    Cr6+3 0.535970 0.769650 0.249640 1.099069
H1    H     H_    0.149015 0.415658 0.451873 0.156786
H2    H     H_    0.586040 0.032175 0.549588 0.109078
H3    H     H_    0.394251 0.421839 0.561396 0.096857
H4    H     H_    0.027107 0.604403 0.561935 0.113650
H5    H     H_    0.911308 0.384718 0.071581 0.101440
H6    H     H_    0.599721 0.544048 0.056888 0.126671
H7    H     H_    0.453478 0.051872 0.055210 0.119798
H8    H     H_    0.400397 0.948168 0.943667 0.132062
H9    H     H_    0.542592 0.600259 0.942606 0.133474
H10   H     H_    0.975787 0.403576 0.955781 0.146368
H11   H     H_    0.579964 0.732259 0.451877 0.155973
H12   H     H_    0.353562 0.072139 0.420990 0.158165
H13   H     H_    0.426421 0.189189 0.537804 0.131846
H14   H     H_    0.654840 0.706144 0.571504 0.161490
H15   H     H_    0.047895 0.341698 0.570805 0.158258
H16   H     H_    0.963156 0.547800 0.445864 0.096859
H17   H     H_    0.455045 0.416521 0.446014 0.085875
H18   H     H_    0.611902 0.042406 0.434521 0.100424
O1    O     O_R   0.434100 0.092480 0.829780 -0.448707
O2    O     O_R   0.362730 0.477510 0.175360 -0.450754
O3    O     O_R   0.114780 0.637270 0.175360 -0.452721
O4    O     O_R   0.522490 0.885220 0.175360 -0.451643
O5    O     O_R   0.432250 0.092620 0.670380 -0.495872
O6    O     O_R   0.907380 0.339630 0.670380 -0.518173
O7    O     O_R   0.660370 0.567750 0.670380 -0.511182
O8    O     O_R   0.092620 0.432250 0.329620 -0.518648
O9    O     O_R   0.339630 0.907380 0.329620 -0.513763
O10   O     O_R   0.567750 0.660370 0.329620 -0.514351
O11   O     O_R   0.475790 0.362860 0.676880 -0.524372
O12   O     O_R   0.907520 0.341620 0.829780 -0.454791
O13   O     O_R   0.637140 0.112930 0.676880 -0.498576
O14   O     O_R   0.887070 0.524210 0.676880 -0.499373
O15   O     O_R   0.362860 0.475790 0.323120 -0.508632
O16   O     O_R   0.112930 0.637140 0.323120 -0.500703
O17   O     O_R   0.524210 0.887070 0.323120 -0.510344
O18   O     O_3   0.666667 0.333333 0.749450 -0.328896
O19   O     O_3   0.333333 0.666667 0.250550 -0.286629
O20   O     O_R   0.658380 0.565900 0.829780 -0.452588
O21   O     O_R   0.092480 0.434100 0.170220 -0.455033
O22   O     O_R   0.341620 0.907520 0.170220 -0.460332
O23   O     O_R   0.565900 0.658380 0.170220 -0.454536
O24   O     O_R   0.477510 0.362730 0.824640 -0.454052
O25   O     O_R   0.637270 0.114780 0.824640 -0.461833
O26   O     O_R   0.885220 0.522490 0.824640 -0.441281

loop_
_geom_bond_atom_site_label_1
_geom_bond_atom_site_label_2
_ccdc_geom_bond_type
C8    H18   S    
C1    O24   A    
Cr6   O10   S    
C12   O25   A    
C4    C8    S    
C22   H6    S    
C19   H9    S    
Cr5   O19   S    
C33   O22   A    
C34   O11   A    
C21   C33   S    
C28   Cl4   S    
C5    C36   S    
C1    O20   A    
Cr3   O7    S    
Cr5   O16   S    
Cr3   O26   S    
C3    O8    A    
C9    C13   D    
Cr5   O3    S    
C4    O9    A    
C25   Cl1   S    
C18   H10   S    
C27   Cl3   S    
C31   O23   A    
C8    C14   D    
C5    H4    S    
C18   C30   D    
C6    H3    S    
C23   O26   A    
C20   H8    S    
Cr4   O19   S    
C7    C15   D    
C21   C27   D    
C35   O5    A    
Cr1   O18   S    
C16   H14   S    
C31   O2    A    
C12   O1    A    
C1    C19   S    
Cr1   O24   S    
C22   C31   S    
C18   C23   S    
C24   C25   D    
C36   O14   A    
C21   H7    S    
C26   Cl2   S    
C20   C28   D    
C24   H5    S    
C32   O21   A    
C6    C34   S    
C24   C32   S    
Cr4   O2    S    
C11   H1    S    
Cr4   O15   S    
C12   C20   S    
C3    O16   A    
C15   H13   S    
Cr2   O25   S    
C33   O4    A    
Cr6   O23   S    
Cr3   O18   S    
C19   C29   D    
Cr4   O8    S    
C2    O10   A    
Cr4   O21   S    
C25   C30   S    
C11   C17   S    
Cr1   O5    S    
C29   Cl5   S    
Cr6   O19   S    
C7    C35   S    
Cr2   O13   S    
C10   H16   S    
C7    H2    S    
Cr6   O4    S    
Cr2   O18   S    
C32   O3    A    
C13   H11   S    
Cr1   O11   S    
C14   H12   S    
Cr6   O17   S    
Cr5   O22   S    
Cr2   O12   S    
Cr3   O20   S    
Cr5   O9    S    
C3    C10   S    
C17   H15   S    
C4    O17   A    
C35   O13   A    
Cr2   O6    S    
Cr3   O14   S    
C23   O12   A    
C9    H17   S    
C10   C11   D    
C34   O7    A    
C6    C16   D    
C5    C17   D    
C26   C29   S    
Cr1   O1    S    
C22   C26   D    
C13   C16   S    
C27   C28   S    
C14   C15   S    
C30   Cl6   S    
C2    O15   A    
C2    C9    S    
C36   O6    A    
