data_mof_unit_26672.cif
_audit_creation_date              2012-12-11T15:50:35-0500
_audit_creation_method            fapswitch 2.2
_symmetry_space_group_name_H-M    P1
_symmetry_Int_Tables_number       1
_space_group_crystal_system       triclinic
_cell_length_a                    7.03821
_cell_length_b                    14.587695
_cell_length_c                    16.159596
_cell_angle_alpha                 89.975996
_cell_angle_beta                  89.915482
_cell_angle_gamma                 89.937205
_cell_volume                      1659.12314972

loop_
_atom_site_label
_atom_site_type_symbol
_atom_type_description
_atom_site_fract_x
_atom_site_fract_y
_atom_site_fract_z
_atom_type_partial_charge
O1    O     O_R   0.638140 0.833910 0.163320 -0.509414
O2    O     O_R   0.361860 0.166090 0.836680 -0.537789
O3    O     O_R   0.361860 0.166090 0.663320 -0.508241
O4    O     O_R   0.638140 0.833910 0.336680 -0.541106
O5    O     O_R   0.138140 0.666090 0.336680 -0.509577
O6    O     O_R   0.861860 0.333910 0.663320 -0.540830
O7    O     O_R   0.861860 0.333910 0.836680 -0.536764
O8    O     O_R   0.138140 0.666090 0.163320 -0.539510
O9    O     O_R   0.308390 0.844930 0.336080 -0.543751
O10   O     O_R   0.691610 0.155070 0.663920 -0.547806
O11   O     O_R   0.691610 0.155070 0.836080 -0.543834
O12   O     O_R   0.308390 0.844930 0.163920 -0.549458
O13   O     O_R   0.808390 0.655070 0.163920 -0.546104
O14   O     O_R   0.191610 0.344930 0.836080 -0.546864
O15   O     O_R   0.191610 0.344930 0.663920 -0.542851
O16   O     O_R   0.808390 0.655070 0.336080 -0.549716
C1    C     C_R   0.478343 0.868221 0.363594 0.693599
C2    C     C_R   0.522008 0.134502 0.634054 0.711274
C3    C     C_R   0.521558 0.131970 0.863735 0.702307
C4    C     C_R   0.478118 0.865472 0.134049 0.706213
C5    C     C_R   0.978786 0.631741 0.136405 0.691688
C6    C     C_R   0.021369 0.366356 0.865208 0.694433
C7    C     C_R   0.021573 0.368225 0.636423 0.697185
C8    C     C_R   0.978052 0.634571 0.365984 0.707042
O17   O     O_3   0.471620 0.691320 0.250000 -0.365296
O18   O     O_3   0.528380 0.308680 0.750000 -0.378557
O19   O     O_3   0.971620 0.808680 0.250000 -0.364520
O20   O     O_3   0.028380 0.191320 0.750000 -0.360005
V1    V     V_3+5 0.196770 0.760880 0.250000 1.396356
V2    V     V_3+5 0.803230 0.239120 0.750000 1.371783
V3    V     V_3+5 0.696770 0.739120 0.250000 1.393547
V4    V     V_3+5 0.303230 0.260880 0.750000 1.382861
C9    C     C_R   0.831648 0.545295 0.481906 -0.268308
C10   C     C_R   0.172670 0.465021 0.526688 -0.273965
C11   C     C_R   0.172754 0.468470 0.970230 -0.235071
C12   C     C_R   0.827279 0.527705 0.033197 -0.237259
C13   C     C_R   0.331850 0.954815 0.018262 -0.266683
C14   C     C_R   0.672582 0.035307 0.973503 -0.274255
C15   C     C_R   0.668357 0.044964 0.518184 -0.267356
C16   C     C_R   0.327297 0.965053 0.473452 -0.273656
H1    H     H_    0.704800 0.580560 0.468226 0.162843
H2    H     H_    0.308107 0.436140 0.543816 0.157270
H3    H     H_    0.307891 0.447701 0.945907 0.185032
H4    H     H_    0.692154 0.551264 0.055338 0.182872
H5    H     H_    0.205154 0.919486 0.031954 0.162640
H6    H     H_    0.807917 0.064293 0.956388 0.156803
H7    H     H_    0.795266 0.080025 0.531855 0.162888
H8    H     H_    0.191858 0.936298 0.456366 0.157145
C17   C     C_R   0.834525 0.482640 0.547403 0.300601
C18   C     C_R   0.167177 0.532423 0.464493 0.302033
C19   C     C_R   0.169364 0.527146 0.038759 0.305492
C20   C     C_R   0.830618 0.460877 0.971125 0.307374
C21   C     C_R   0.334680 0.017520 0.952810 0.298757
C22   C     C_R   0.667187 0.967836 0.035643 0.302061
C23   C     C_R   0.665390 0.982379 0.452670 0.299078
C24   C     C_R   0.332874 0.032374 0.535692 0.301598
C25   C     C_R   0.007644 0.438313 0.569089 -0.145271
C26   C     C_R   0.992606 0.568484 0.437054 -0.138258
C27   C     C_R   0.993574 0.562055 0.068618 -0.176389
C28   C     C_R   0.006392 0.433496 0.935186 -0.177701
C29   C     C_R   0.507630 0.061929 0.931112 -0.146101
C30   C     C_R   0.492708 0.931647 0.063054 -0.138260
C31   C     C_R   0.492237 0.938256 0.430966 -0.144527
C32   C     C_R   0.507465 0.068335 0.563053 -0.139685
N1    N     N_2   0.661178 0.468494 0.590683 -0.531760
H9    H     H_    0.612330 0.402033 0.592314 0.265794
C33   C     C_3   0.640965 0.519318 0.667039 -0.502475
H10   H     H_    0.744469 0.494816 0.713908 0.187770
H11   H     H_    0.664096 0.593609 0.655775 0.177569
H12   H     H_    0.495000 0.509878 0.691759 0.190613
N2    N     N_2   0.338947 0.571326 0.436545 -0.493068
H13   H     H_    0.446591 0.524143 0.430479 0.243089
C34   C     C_3   0.386779 0.655595 0.479768 -0.472798
H14   H     H_    0.498666 0.692937 0.445218 0.184290
H15   H     H_    0.436964 0.640005 0.543330 0.179653
H16   H     H_    0.262264 0.702278 0.484380 0.174505
N3    N     N_2   0.344864 0.544382 0.078787 -0.520158
H17   H     H_    0.386271 0.612002 0.081627 0.259573
C35   C     C_3   0.376951 0.490836 0.153024 -0.470451
H18   H     H_    0.272562 0.508967 0.201919 0.190058
H19   H     H_    0.364253 0.416561 0.139067 0.177013
H20   H     H_    0.521929 0.504117 0.177072 0.186096
N4    N     N_2   0.654775 0.419769 0.950068 -0.518712
H21   H     H_    0.616396 0.423124 0.888671 0.266524
C36   C     C_3   0.616894 0.333614 0.991574 -0.485679
H22   H     H_    0.724629 0.281232 0.974648 0.182207
H23   H     H_    0.474506 0.307760 0.973710 0.175356
H24   H     H_    0.619491 0.343411 0.059687 0.185799
N5    N     N_2   0.161490 0.031614 0.909571 -0.534614
H25   H     H_    0.112351 0.098073 0.907887 0.266223
C37   C     C_3   0.141928 0.980702 0.833267 -0.489752
H26   H     H_    0.245481 0.005195 0.786329 0.195549
H27   H     H_    0.165493 0.906432 0.844574 0.173898
H28   H     H_    0.996006 0.990054 0.808610 0.193189
N6    N     N_2   0.839033 0.928963 0.063525 -0.493653
H29   H     H_    0.946430 0.976153 0.069520 0.243341
C38   C     C_3   0.887462 0.844672 0.020312 -0.471315
H30   H     H_    0.999123 0.807265 0.054906 0.184447
H31   H     H_    0.938152 0.860244 0.956772 0.179288
H32   H     H_    0.763121 0.798041 0.015630 0.175502
N7    N     N_2   0.838733 0.968112 0.409381 -0.534564
H33   H     H_    0.887691 0.901619 0.407736 0.264973
C39   C     C_3   0.859020 0.019084 0.333082 -0.490302
H34   H     H_    0.755572 0.994786 0.286166 0.195524
H35   H     H_    0.835854 0.093374 0.344417 0.173649
H36   H     H_    0.005023 0.009558 0.308387 0.192641
N8    N     N_2   0.161091 0.071269 0.563809 -0.492772
H37   H     H_    0.053751 0.024073 0.570130 0.243160
C40   C     C_3   0.112509 0.155485 0.520523 -0.472176
H38   H     H_    0.000322 0.192725 0.555054 0.185345
H39   H     H_    0.062406 0.139843 0.456979 0.178825
H40   H     H_    0.236644 0.202268 0.515850 0.174752

loop_
_geom_bond_atom_site_label_1
_geom_bond_atom_site_label_2
_ccdc_geom_bond_type
O17   V3    S    
O18   V4    S    
C9    C26   A    
O12   V1    S    
O19   V1    S    
N8    C40   S    
C34   H14   S    
O16   C8    A    
N6    H29   S    
C10   H2    S    
C12   C27   A    
C38   H30   S    
O15   V4    S    
C36   H22   S    
O16   V3    S    
C15   C32   A    
O11   C3    A    
N7    H33   S    
C16   C31   A    
C17   N1    S    
O8    V1    S    
C3    C29   S    
C5    C27   S    
C40   H39   S    
C6    C28   S    
C9    C17   A    
O1    V3    S    
C17   C25   A    
O3    C2    A    
O2    V4    S    
C16   H8    S    
C20   C28   A    
C21   C29   A    
C15   C23   A    
O11   V2    S    
N1    C33   S    
C23   C31   A    
C10   C25   A    
N8    H37   S    
C24   C32   A    
N5    C37   S    
C11   H3    S    
C12   C20   A    
O9    V1    S    
C14   C29   A    
C13   C21   A    
O15   C7    A    
N7    C39   S    
O7    V2    S    
C34   H15   S    
C38   H31   S    
C13   C30   A    
O5    V1    S    
N3    C35   S    
O17   V1    S    
C10   C18   A    
C36   H23   S    
O19   V3    S    
C33   H10   S    
C18   C26   A    
O20   V4    S    
C40   H40   S    
C37   H26   S    
N2    C34   S    
C22   C30   A    
C16   C24   A    
N3    H17   S    
C11   C28   A    
C33   H11   S    
C20   N4    S    
C18   N2    S    
C19   N3    S    
C24   N8    S    
C37   H27   S    
O10   V2    S    
N4    H21   S    
C14   C22   A    
O12   C4    A    
O8    C5    A    
O13   C5    A    
C39   H35   S    
C22   N6    S    
O4    C1    A    
O9    C1    A    
O6    V2    S    
O18   V2    S    
C11   C19   A    
C34   H16   S    
C12   H4    S    
C19   C27   A    
C13   H5    S    
C38   H32   S    
C15   H7    S    
C36   H24   S    
C7    C25   S    
O1    C4    A    
N4    C36   S    
O2    C3    A    
O13   V3    S    
O14   V4    S    
C35   H20   S    
N6    C38   S    
O7    C6    A    
C23   N7    S    
C35   H19   S    
C33   H12   S    
C9    H1    S    
O14   C6    A    
O20   V2    S    
N2    H13   S    
C40   H38   S    
C1    C31   S    
C37   H28   S    
C21   N5    S    
C2    C32   S    
O5    C8    A    
O10   C2    A    
O6    C7    A    
C39   H36   S    
C4    C30   S    
O3    V4    S    
C14   H6    S    
O4    V3    S    
C35   H18   S    
C8    C26   S    
N1    H9    S    
C39   H34   S    
N5    H25   S    
