data_mof_unit_41018.cif
_audit_creation_date              2012-12-10T18:58:15-0500
_audit_creation_method            fapswitch 2.2
_symmetry_space_group_name_H-M    P1
_symmetry_Int_Tables_number       1
_space_group_crystal_system       triclinic
_cell_length_a                    11.05452
_cell_length_b                    10.89587
_cell_length_c                    9.55495
_cell_angle_alpha                 90.065346
_cell_angle_beta                  102.498656
_cell_angle_gamma                 90.288429
_cell_volume                      1123.58868556

loop_
_atom_site_label
_atom_site_type_symbol
_atom_type_description
_atom_site_fract_x
_atom_site_fract_y
_atom_site_fract_z
_atom_type_partial_charge
C1    C     C_R   0.499044 0.262977 0.499488 0.831282
C2    C     C_R   0.397013 0.467748 0.048465 -0.103838
C3    C     C_R   0.396900 0.468105 0.899912 -0.088253
C4    C     C_R   0.262886 0.499277 0.442002 0.855259
C5    C     C_R   0.607459 0.517961 0.953193 0.259975
C6    C     C_3   0.690751 0.626995 0.966779 -0.515066
C7    C     C_3   0.688923 0.630015 0.125154 -0.492692
C8    C     C_R   0.498840 0.737527 0.499180 0.832264
C9    C     C_R   0.737101 0.499335 0.558096 0.862118
C10   C     C_2   0.128074 0.495703 0.409617 -0.358921
C11   C     C_2   0.067434 0.494976 0.516289 -0.151226
C12   C     C_R   0.497263 0.130876 0.496644 -0.158452
C13   C     C_2   0.871931 0.499109 0.591117 -0.356914
C14   C     C_2   0.933007 0.489774 0.485442 -0.151935
C15   C     C_R   0.493543 0.062636 0.617497 0.130880
C16   C     C_3   0.386674 0.902507 0.135468 0.054416
C17   C     C_3   0.346051 0.788485 0.045215 -0.773187
C18   C     C_R   0.498691 0.066366 0.369214 -0.331829
C19   C     C_R   0.495254 0.936924 0.366205 0.439154
C20   C     C_R   0.497066 0.870724 0.495212 -0.199713
C21   C     C_R   0.494638 0.939055 0.617342 0.059149
C22   C     C_3   0.486935 0.931412 0.770889 -0.452253
C23   C     C_3   0.485789 0.072518 0.770490 -0.451882
C24   C     C_R   0.607250 0.519139 0.100341 0.256871
Cu1   Cu    Cu3+1 0.499990 0.499980 0.640670 0.933929
Cu2   Cu    Cu3+1 0.500010 0.500020 0.359330 0.948225
H1    H     H_    0.883722 0.478937 0.374730 0.172463
H2    H     H_    0.921533 0.507996 0.702115 0.139735
H3    H     H_    0.078142 0.492720 0.298314 0.140714
H4    H     H_    0.501822 0.115321 0.271451 0.176000
H5    H     H_    0.398157 0.889704 0.783710 0.202199
H6    H     H_    0.572112 0.893664 0.839937 0.198949
H7    H     H_    0.396407 0.112159 0.783508 0.189808
H8    H     H_    0.407127 0.977097 0.064626 0.154904
H9    H     H_    0.307071 0.931118 0.182694 0.128019
H10   H     H_    0.319167 0.715118 0.113275 0.259639
H11   H     H_    0.265039 0.810115 0.957902 0.184913
H12   H     H_    0.570372 0.114693 0.838026 0.201009
H13   H     H_    0.422786 0.754931 0.997393 0.251586
H14   H     H_    0.312929 0.443182 0.082161 0.142064
H15   H     H_    0.312747 0.443540 0.824273 0.137990
H16   H     H_    0.783091 0.603731 0.946014 0.193951
H17   H     H_    0.645375 0.706860 0.906228 0.211466
H18   H     H_    0.780939 0.610886 0.194782 0.187348
H19   H     H_    0.641521 0.711790 0.156726 0.260876
H20   H     H_    0.116987 0.499174 0.627707 0.171025
N1    N     N_R   0.500780 0.500930 0.148120 -0.180734
N2    N     N_R   0.500790 0.500890 0.852210 -0.185310
O1    O     O_R   0.500000 0.319640 0.618810 -0.580968
O2    O     O_R   0.500010 0.319680 0.381230 -0.589131
O3    O     O_R   0.320680 0.500000 0.575130 -0.590304
O4    O     O_R   0.320690 0.500040 0.337550 -0.600295
O5    O     O_R   0.499990 0.680320 0.618770 -0.587090
O6    O     O_R   0.500000 0.680360 0.381190 -0.527145
O7    O     O_R   0.679310 0.499960 0.662450 -0.586046
O8    O     O_R   0.679320 0.500000 0.424870 -0.582147
O9    O     O_3   0.495391 0.875437 0.239288 -0.572852

loop_
_geom_bond_atom_site_label_1
_geom_bond_atom_site_label_2
_ccdc_geom_bond_type
C8    O5    A    
Cu2   O6    S    
Cu1   O3    S    
C13   H2    S    
C6    C7    S    
C18   H4    S    
C17   H10   S    
Cu2   O4    S    
C14   H1    S    
C23   H12   S    
C1    O2    A    
C19   C20   A    
C10   H3    S    
C12   C15   A    
C16   O9    S    
C22   H5    S    
C15   C23   S    
C2    C3    A    
C9    O8    A    
C17   H11   S    
C7    H18   S    
C19   O9    S    
C5    C24   A    
Cu1   N2    S    
C8    C20   S    
C1    C12   S    
C22   H6    S    
Cu2   N1    S    
C4    O4    A    
C9    O7    A    
C7    H19   S    
C21   C22   S    
C11   C14   S    
Cu1   O5    S    
C6    H17   S    
Cu2   O2    S    
C16   H9    S    
C6    H16   S    
C5    C6    S    
C2    N1    A    
C5    N2    A    
Cu1   O1    S    
C10   C11   D    
C4    O3    A    
C4    C10   S    
C7    C24   S    
C2    H14   S    
C3    N2    A    
C15   C21   A    
C20   C21   A    
C18   C19   A    
C17   H13   S    
C8    O6    A    
C9    C13   S    
C22   C23   S    
C3    H15   S    
C11   H20   S    
C16   H8    S    
Cu1   Cu2   S    
C13   C14   D    
C24   N1    A    
C1    O1    A    
Cu1   O7    S    
Cu2   O8    S    
C16   C17   S    
C23   H7    S    
C12   C18   A    
