data_mof_unit_31467.cif
_audit_creation_date              2012-12-10T18:54:26-0500
_audit_creation_method            fapswitch 2.2
_symmetry_space_group_name_H-M    P1
_symmetry_Int_Tables_number       1
_space_group_crystal_system       triclinic
_cell_length_a                    19.413398
_cell_length_b                    18.436329
_cell_length_c                    9.070634
_cell_angle_alpha                 90.001881
_cell_angle_beta                  92.956704
_cell_angle_gamma                 90.00865
_cell_volume                      3242.16510397

loop_
_atom_site_label
_atom_site_type_symbol
_atom_type_description
_atom_site_fract_x
_atom_site_fract_y
_atom_site_fract_z
_atom_type_partial_charge
C1    C     C_R   0.367808 0.499951 0.501035 0.825716
C2    C     C_R   0.486112 0.201539 0.370721 -0.234491
C3    C     C_R   0.500015 0.838809 0.499956 0.098380
C4    C     C_R   0.500026 0.161281 0.499963 0.100526
C5    C     C_R   0.541559 0.961673 0.605473 -0.074340
C6    C     C_R   0.452107 0.038204 0.407540 -0.071138
C7    C     C_R   0.458505 0.961657 0.394405 -0.074309
C8    C     C_R   0.547961 0.038222 0.592332 -0.069193
C9    C     C_R   0.500032 0.078316 0.499943 -0.025448
C10   C     C_R   0.500026 0.921667 0.499947 -0.028164
C11   C     C_R   0.499831 0.499988 0.220882 0.864431
C12   C     C_R   0.632194 0.499960 0.498968 0.825628
C13   C     C_R   0.500171 0.499990 0.779118 0.864492
C14   C     C_1   0.499939 0.499939 0.065604 -0.124624
C15   C     C_1   0.500063 0.499942 0.934396 -0.124590
C16   C     C_R   0.745174 0.437185 0.534640 -0.171751
C17   C     C_R   0.257308 0.562073 0.546247 -0.211439
C18   C     C_R   0.254799 0.437211 0.464948 -0.173446
C19   C     C_R   0.742699 0.562177 0.454186 -0.209517
C20   C     C_R   0.817189 0.436107 0.533636 -0.030336
C21   C     C_R   0.185195 0.563970 0.544564 -0.021588
C22   C     C_R   0.182732 0.436165 0.466067 -0.031393
C23   C     C_R   0.442303 0.722777 0.451178 0.158594
C24   C     C_R   0.814759 0.564144 0.455725 -0.021320
C25   C     C_R   0.852500 0.500433 0.495557 -0.081721
C26   C     C_R   0.147484 0.500380 0.504404 -0.075730
C27   C     C_R   0.707816 0.499797 0.496142 -0.087167
C28   C     C_R   0.292192 0.499769 0.503868 -0.082348
C29   C     C_R   0.966437 0.502498 0.632948 -0.079537
C30   C     C_R   0.033521 0.499706 0.366970 -0.073024
C31   C     C_R   0.038205 0.502409 0.635183 -0.069156
C32   C     C_R   0.961754 0.499647 0.364757 -0.074846
C33   C     C_R   0.071839 0.500976 0.502187 0.170181
C34   C     C_R   0.522652 0.277350 0.623520 0.150803
C35   C     C_R   0.928147 0.501012 0.497747 0.159307
C36   C     C_2   0.853072 0.366474 0.571491 0.853622
C37   C     C_2   0.151271 0.633676 0.582157 0.853168
C38   C     C_2   0.146287 0.366791 0.428953 0.850570
C39   C     C_2   0.848103 0.634150 0.417525 0.856232
C40   C     C_2   0.383049 0.690449 0.366372 0.874208
C41   C     C_2   0.562581 0.309958 0.749521 0.886811
C42   C     C_2   0.616963 0.690494 0.633610 0.873523
C43   C     C_2   0.437440 0.309939 0.250459 0.887717
C44   C     C_2   0.576696 0.924191 0.733378 0.886337
C45   C     C_R   0.557707 0.722792 0.548789 0.160130
C46   C     C_2   0.393355 0.075420 0.328095 0.882791
C47   C     C_2   0.423376 0.924158 0.266491 0.886077
C48   C     C_2   0.606723 0.075461 0.671746 0.879964
C49   C     C_R   0.477367 0.277345 0.376458 0.150715
C50   C     C_R   0.439774 0.798670 0.468927 -0.227575
C51   C     C_R   0.513932 0.201537 0.629222 -0.233015
C52   C     C_R   0.560249 0.798682 0.530989 -0.230045
Cu1   Cu    Cu3+1 0.500000 0.573360 0.500000 1.035491
Cu2   Cu    Cu3+1 0.500000 0.426640 0.500000 1.020347
H1    H     H_    0.717880 0.388521 0.564233 0.228349
H2    H     H_    0.522910 0.174003 0.733637 0.187472
H3    H     H_    0.608792 0.826532 0.551847 0.185395
H4    H     H_    0.477151 0.174009 0.266292 0.187312
H5    H     H_    0.849565 0.269588 0.674703 0.358863
H6    H     H_    0.068750 0.699943 0.555428 0.366518
H7    H     H_    0.064165 0.301712 0.455479 0.368091
H8    H     H_    0.838435 0.731087 0.314859 0.358087
H9    H     H_    0.279849 0.688506 0.326090 0.343721
H10   H     H_    0.580850 0.314095 0.970216 0.349047
H11   H     H_    0.720159 0.688670 0.674034 0.341981
H12   H     H_    0.286560 0.609861 0.579517 0.210896
H13   H     H_    0.419171 0.314067 0.029763 0.349740
H14   H     H_    0.666035 0.899669 0.845673 0.358678
H15   H     H_    0.343835 0.099699 0.133385 0.360640
H16   H     H_    0.334046 0.899618 0.154147 0.361191
H17   H     H_    0.656274 0.099753 0.866427 0.357758
H18   H     H_    0.281994 0.388525 0.435051 0.221943
H19   H     H_    0.713356 0.609912 0.421178 0.218159
H20   H     H_    0.940639 0.503539 0.736007 0.127520
H21   H     H_    0.059299 0.498614 0.263888 0.127562
H22   H     H_    0.067604 0.503298 0.739963 0.127758
H23   H     H_    0.932338 0.498422 0.260013 0.127607
H24   H     H_    0.391236 0.826510 0.448034 0.186676
N1    N     N_R   0.500000 0.683620 0.500000 -0.244130
N2    N     N_R   0.500000 0.316380 0.500000 -0.245589
O1    O     O_R   0.400190 0.561980 0.499980 -0.593422
O2    O     O_R   0.820619 0.314843 0.657193 -0.734259
O3    O     O_2   0.181696 0.677096 0.664126 -0.550674
O4    O     O_R   0.085666 0.651009 0.521354 -0.728818
O5    O     O_2   0.172433 0.322790 0.347740 -0.551664
O6    O     O_R   0.083242 0.350492 0.489223 -0.725545
O7    O     O_2   0.907094 0.648060 0.462443 -0.564334
O8    O     O_R   0.810822 0.685499 0.332486 -0.732406
O9    O     O_2   0.392522 0.648913 0.264569 -0.551521
O10   O     O_R   0.316059 0.712627 0.394153 -0.763759
O11   O     O_2   0.610566 0.350755 0.728249 -0.574134
O12   O     O_R   0.599810 0.438020 0.500020 -0.553222
O13   O     O_R   0.549146 0.289354 0.893372 -0.736597
O14   O     O_2   0.607494 0.648914 0.735341 -0.552366
O15   O     O_R   0.683947 0.712768 0.605961 -0.765567
O16   O     O_2   0.389462 0.350730 0.271733 -0.574989
O17   O     O_R   0.450871 0.289333 0.106606 -0.736215
O18   O     O_2   0.542726 0.888621 0.817266 -0.522734
O19   O     O_R   0.648412 0.928112 0.755810 -0.724936
O20   O     O_2   0.352882 0.110934 0.397660 -0.540530
O21   O     O_R   0.385309 0.071358 0.174201 -0.719109
O22   O     O_2   0.457350 0.888583 0.182634 -0.523112
O23   O     O_R   0.599810 0.561980 0.500020 -0.593262
O24   O     O_R   0.351663 0.928070 0.244015 -0.720877
O25   O     O_2   0.647178 0.111000 0.602162 -0.547281
O26   O     O_R   0.614797 0.071394 0.825635 -0.719881
O27   O     O_R   0.400190 0.438020 0.499980 -0.552914
O28   O     O_R   0.500000 0.561940 0.288400 -0.534930
O29   O     O_R   0.500000 0.438060 0.711600 -0.589562
O30   O     O_R   0.500000 0.561940 0.711600 -0.534899
O31   O     O_R   0.500000 0.438060 0.288400 -0.589773
O32   O     O_2   0.909877 0.353161 0.525829 -0.562460

loop_
_geom_bond_atom_site_label_1
_geom_bond_atom_site_label_2
_ccdc_geom_bond_type
Cu1   O30   S    
C7    C10   A    
C21   C26   A    
H5    O2    S    
C39   O7    D    
C6    C9    A    
Cu1   Cu2   S    
C17   H12   S    
Cu2   O27   S    
C38   O6    S    
Cu1   N1    S    
H10   O13   S    
C44   O19   S    
H16   O24   S    
C20   C25   A    
C1    O1    A    
C23   C40   S    
C22   C38   S    
C24   C39   S    
Cu1   O1    S    
C51   H2    S    
C13   O29   A    
C34   N2    A    
C32   H23   S    
C44   O18   D    
C48   O26   S    
C36   O2    S    
C8    C9    A    
C36   O32   D    
C1    C28   S    
C31   C33   A    
C37   O4    S    
C40   O9    D    
C19   C27   A    
C16   C27   A    
C47   O22   D    
C18   C22   A    
C34   C41   S    
C39   O8    S    
C50   H24   S    
C3    C50   A    
Cu2   N2    S    
C18   H18   S    
C46   O21   S    
C41   O13   S    
C4    C51   A    
C11   O31   A    
C42   O15   S    
C32   C35   A    
C19   H19   S    
C18   C28   A    
C24   C25   A    
C12   O23   A    
C52   H3    S    
C43   C49   S    
C23   C50   A    
C29   H20   S    
C12   C27   S    
C45   C52   A    
H8    O8    S    
C17   C21   A    
Cu2   O29   S    
C42   C45   S    
C7    C47   S    
C2    C4    A    
C8    C48   S    
Cu2   O12   S    
C13   O30   A    
C2    C49   A    
C26   C33   S    
C48   O25   D    
C38   O5    D    
C16   C20   A    
C43   O16   D    
C34   C51   A    
C45   N1    A    
C25   C35   S    
C41   O11   D    
C5    C44   S    
C1    O27   A    
C13   C15   S    
C46   O20   D    
C47   O24   S    
C6    C46   S    
C30   C33   A    
C42   O14   D    
C17   C28   A    
C12   O12   A    
C43   O17   S    
C5    C8    A    
C3    C52   A    
C2    H4    S    
C6    C7    A    
H15   O21   S    
C29   C35   A    
C49   N2    A    
C40   O10   S    
C19   C24   A    
C16   H1    S    
C5    C10   A    
C29   C31   A    
C3    C10   S    
C30   C32   A    
C30   H21   S    
H6    O4    S    
Cu1   O28   S    
C31   H22   S    
Cu1   O23   S    
H9    O10   S    
C11   C14   S    
Cu2   O31   S    
H14   O19   S    
H7    O6    S    
H13   O17   S    
C20   C36   S    
H11   O15   S    
C21   C37   S    
C22   C26   A    
H17   O26   S    
C11   O28   A    
C14   C15   T    
C37   O3    D    
C23   N1    A    
C4    C9    S    
