data_mof_unit_64240.cif
_audit_creation_date              2012-12-10T16:57:09-0500
_audit_creation_method            fapswitch 2.2
_symmetry_space_group_name_H-M    P1
_symmetry_Int_Tables_number       1
_space_group_crystal_system       triclinic
_cell_length_a                    20.732072
_cell_length_b                    15.97328
_cell_length_c                    13.112207
_cell_angle_alpha                 89.87312
_cell_angle_beta                  91.399902
_cell_angle_gamma                 90.103255
_cell_volume                      4340.91456501

loop_
_atom_site_label
_atom_site_type_symbol
_atom_type_description
_atom_site_fract_x
_atom_site_fract_y
_atom_site_fract_z
_atom_type_partial_charge
C1    C     C_R   0.622028 0.840896 0.468152 0.778623
C2    C     C_2   0.998696 0.457793 0.945228 0.449381
C3    C     C_R   0.378602 0.159515 0.529664 0.813149
C4    C     C_R   0.378661 0.840405 0.529554 0.809798
C5    C     C_R   0.878602 0.659515 0.529664 0.813150
C6    C     C_R   0.878661 0.340405 0.529554 0.809798
C7    C     C_R   0.530449 0.998320 0.772700 0.757598
C8    C     C_R   0.030449 0.498320 0.772700 0.757598
C9    C     C_R   0.470050 0.000244 0.227676 0.852930
C10   C     C_R   0.970050 0.500244 0.227676 0.852929
C11   C     C_2   0.326463 0.778182 0.536154 0.235717
C12   C     C_R   0.620934 0.161111 0.471734 0.779658
C13   C     C_2   0.326182 0.221070 0.537837 0.231057
C14   C     C_2   0.826463 0.278182 0.536154 0.235717
C15   C     C_2   0.826182 0.721070 0.537837 0.231056
C16   C     C_2   0.264623 0.803696 0.539537 0.354079
C17   C     C_2   0.290067 0.241594 0.454649 0.353493
C18   C     C_2   0.764623 0.303696 0.539537 0.354078
C19   C     C_2   0.790067 0.741594 0.454649 0.353493
C20   C     C_2   0.669462 0.229517 0.468097 0.228898
C21   C     C_2   0.674836 0.780238 0.450266 0.233852
C22   C     C_2   0.169462 0.729517 0.468097 0.228897
C23   C     C_R   0.122028 0.340896 0.468152 0.778623
C24   C     C_2   0.174836 0.280238 0.450266 0.233853
C25   C     C_2   0.712554 0.239886 0.546432 0.360438
C26   C     C_2   0.737229 0.803832 0.464555 0.357553
C27   C     C_2   0.212554 0.739886 0.546432 0.360438
C28   C     C_2   0.237229 0.303832 0.464555 0.357553
C29   C     C_2   0.463533 0.001908 0.115921 -0.357822
C30   C     C_2   0.963533 0.501907 0.115921 -0.357821
C31   C     C_2   0.409502 0.053182 0.071557 0.926532
C32   C     C_2   0.909502 0.553181 0.071557 0.926533
C33   C     C_R   0.120934 0.661111 0.471734 0.779659
C34   C     C_2   0.507737 0.962209 0.057483 0.346007
C35   C     C_2   0.007737 0.462209 0.057483 0.346007
C36   C     C_2   0.542629 0.993835 0.884384 0.289881
C37   C     C_2   0.042629 0.493835 0.884384 0.289881
C38   C     C_2   0.498696 0.957793 0.945228 0.449382
H1    H     H_    0.743564 0.208412 0.682054 0.351901
H2    H     H_    0.613772 0.691449 0.417120 0.359848
H3    H     H_    0.139054 0.764425 0.333363 0.361456
H4    H     H_    0.113772 0.191449 0.417120 0.359848
H5    H     H_    0.387524 0.686579 0.530959 0.344430
H6    H     H_    0.342514 0.232575 0.683376 0.346266
H7    H     H_    0.887524 0.186579 0.530958 0.344430
H8    H     H_    0.842514 0.732575 0.683376 0.346267
H9    H     H_    0.419836 0.893638 0.959223 0.337831
H10   H     H_    0.919837 0.393637 0.959222 0.337832
H11   H     H_    0.573767 0.947237 0.165778 0.337113
H12   H     H_    0.800017 0.891201 0.494744 0.354758
H13   H     H_    0.073767 0.447238 0.165778 0.337113
H14   H     H_    0.623205 0.055240 0.873661 0.359741
H15   H     H_    0.123205 0.555241 0.873661 0.359741
H16   H     H_    0.373822 0.122331 0.954105 0.365673
H17   H     H_    0.873821 0.622330 0.954104 0.365673
H18   H     H_    0.243564 0.708411 0.682054 0.351902
H19   H     H_    0.300017 0.391201 0.494744 0.354758
H20   H     H_    0.202710 0.894180 0.541445 0.360286
H21   H     H_    0.271644 0.228962 0.310092 0.367085
H22   H     H_    0.702710 0.394180 0.541445 0.360286
H23   H     H_    0.771644 0.728962 0.310092 0.367085
H24   H     H_    0.639054 0.264425 0.333363 0.361456
O1    O     O_3   0.500000 0.000000 0.500000 -0.521431
O2    O     O_R   0.880760 0.402800 0.590320 -0.588984
O3    O     O_R   0.577210 0.000000 0.711160 -0.636459
O4    O     O_R   0.077210 0.500000 0.711160 -0.636459
O5    O     O_R   0.475030 0.069050 0.275760 -0.606441
O6    O     O_R   0.475030 0.930950 0.275760 -0.617056
O7    O     O_R   0.975030 0.569050 0.275760 -0.606441
O8    O     O_R   0.975030 0.430950 0.275760 -0.617056
O9    O     O_R   0.632300 0.097230 0.527310 -0.559951
O10   O     O_R   0.632300 0.902770 0.527310 -0.566969
O11   O     O_R   0.132300 0.597230 0.527310 -0.559951
O12   O     O_3   0.000000 0.500000 0.500000 -0.521431
O13   O     O_R   0.132300 0.402770 0.527310 -0.566969
O14   O     O_R   0.419940 0.833680 0.459580 -0.639017
O15   O     O_R   0.419940 0.166320 0.459580 -0.604062
O16   O     O_R   0.919940 0.333680 0.459580 -0.639017
O17   O     O_R   0.919940 0.666320 0.459580 -0.604062
O18   O     O_R   0.472710 0.000000 0.737340 -0.579127
O19   O     O_R   0.972710 0.500000 0.737340 -0.579127
O20   O     O_3   0.709682 0.189704 0.632438 -0.730861
O21   O     O_3   0.752371 0.885495 0.491141 -0.717080
O22   O     O_3   0.209682 0.689704 0.632438 -0.730861
O23   O     O_R   0.566980 0.833700 0.422750 -0.655499
O24   O     O_3   0.252371 0.385495 0.491141 -0.717080
O25   O     O_3   0.249990 0.888087 0.534468 -0.729341
O26   O     O_3   0.301320 0.203734 0.361999 -0.715020
O27   O     O_3   0.749990 0.388087 0.534468 -0.729340
O28   O     O_3   0.801320 0.703734 0.361999 -0.715020
O29   O     O_3   0.671796 0.282822 0.384912 -0.750552
O30   O     O_3   0.661221 0.699088 0.419755 -0.745420
O31   O     O_3   0.171796 0.782822 0.384912 -0.750552
O32   O     O_3   0.161221 0.199088 0.419755 -0.745420
O33   O     O_3   0.340012 0.693483 0.531856 -0.748802
O34   O     O_R   0.566980 0.166300 0.422750 -0.661563
O35   O     O_3   0.310672 0.253605 0.631822 -0.750078
O36   O     O_3   0.840012 0.193483 0.531855 -0.748802
O37   O     O_3   0.810672 0.753605 0.631822 -0.750078
O38   O     O_3   0.444654 0.918782 0.903124 -0.755785
O39   O     O_3   0.944654 0.418782 0.903124 -0.755785
O40   O     O_3   0.562640 0.923753 0.097827 -0.689094
O41   O     O_3   0.062640 0.423753 0.097827 -0.689094
O42   O     O_3   0.598131 0.028064 0.927987 -0.732402
O43   O     O_3   0.098131 0.528064 0.927987 -0.732402
O44   O     O_2   0.361767 0.066269 0.122160 -0.559152
O45   O     O_R   0.066980 0.333700 0.422750 -0.655499
O46   O     O_R   0.413575 0.088724 0.974314 -0.781797
O47   O     O_2   0.861766 0.566269 0.122160 -0.559152
O48   O     O_R   0.913574 0.588724 0.974314 -0.781796
O49   O     O_R   0.066980 0.666300 0.422750 -0.661563
O50   O     O_R   0.380760 0.097200 0.590320 -0.624072
O51   O     O_R   0.380760 0.902800 0.590320 -0.588984
O52   O     O_R   0.880760 0.597200 0.590320 -0.624072
Zn1   Zn    Zn3+2 0.434690 0.000000 0.602700 1.075677
Zn2   Zn    Zn3+2 0.934690 0.500000 0.602700 1.075677
Zn3   Zn    Zn3+2 0.584000 0.000000 0.565300 1.072336
Zn4   Zn    Zn3+2 0.084000 0.500000 0.565300 1.072336
Zn5   Zn    Zn3+2 0.490640 0.098690 0.416020 1.043769
Zn6   Zn    Zn3+2 0.490640 0.901310 0.416020 1.027020
Zn7   Zn    Zn3+2 0.990640 0.598690 0.416020 1.043769
Zn8   Zn    Zn3+2 0.990640 0.401310 0.416020 1.027020

loop_
_geom_bond_atom_site_label_1
_geom_bond_atom_site_label_2
_ccdc_geom_bond_type
C2    C35   S    
H8    O37   S    
C1    C21   S    
C26   O21   S    
O2    Zn2   S    
C5    O52   A    
O49   Zn7   S    
C17   O26   S    
C31   O46   S    
C14   C18   D    
O34   Zn5   S    
C21   C26   D    
H20   O25   S    
H22   O27   S    
C15   C19   D    
O17   Zn7   S    
O14   Zn6   S    
C32   O48   S    
C30   C35   D    
C27   O22   S    
C35   O41   S    
H7    O36   S    
C7    C36   S    
O1    Zn3   S    
C6    O16   A    
C6    C14   S    
C20   C25   D    
H13   O41   S    
H19   O24   S    
H6    O35   S    
C6    O2    A    
C19   C26   S    
O8    Zn8   S    
H21   O26   S    
H3    O31   S    
O10   Zn3   S    
C16   O25   S    
H5    O33   S    
C23   C24   S    
H18   O22   S    
C8    O4    A    
C33   O49   A    
C5    O17   A    
C3    C13   S    
C9    C29   S    
O1    Zn1   S    
C16   C27   S    
O12   Zn2   S    
H4    O32   S    
C18   O27   S    
C18   C25   S    
H12   O21   S    
C14   O36   S    
C1    O23   A    
O12   Zn4   S    
C20   O29   S    
C1    O10   A    
C5    C15   S    
C32   O47   D    
O9    Zn3   S    
C8    O19   A    
C4    O51   A    
C38   O38   S    
C15   O37   S    
H11   O40   S    
C2    O39   S    
C29   C34   D    
H9    O38   S    
O23   Zn6   S    
C9    O5    A    
C37   O43   S    
C24   O32   S    
C7    O3    A    
O1    Zn5   S    
C11   C16   D    
C10   C30   S    
O18   Zn1   S    
O7    Zn7   S    
C3    O50   A    
C23   O45   A    
H24   O29   S    
C12   C20   S    
C34   O40   S    
H2    O30   S    
C4    C11   S    
C10   O8    A    
C33   O11   A    
O12   Zn8   S    
C12   O9    A    
C22   C27   D    
H17   O48   S    
C28   O24   S    
C25   O20   S    
C22   O31   S    
C8    C37   S    
C3    O15   A    
H23   O28   S    
C11   O33   S    
C22   C33   S    
H14   O42   S    
O11   Zn4   S    
C34   C38   S    
C17   C28   S    
O13   Zn4   S    
C24   C28   D    
H1    O20   S    
C23   O13   A    
O15   Zn5   S    
O52   Zn2   S    
C13   C17   D    
H16   O46   S    
C36   O42   S    
C36   C38   D    
C9    O6    A    
C29   C31   S    
C19   O28   S    
O6    Zn6   S    
C30   C32   S    
O1    Zn6   S    
C2    C37   D    
H10   O39   S    
O19   Zn2   S    
C31   O44   D    
C13   O35   S    
O16   Zn8   S    
C4    O14   A    
C10   O7    A    
H15   O43   S    
O12   Zn7   S    
O4    Zn4   S    
O3    Zn3   S    
C12   O34   A    
O45   Zn8   S    
O5    Zn5   S    
O50   Zn1   S    
C7    O18   A    
O51   Zn1   S    
C21   O30   S    
