data_mof_unit_13321.cif
_audit_creation_date              2012-12-10T19:05:55-0500
_audit_creation_method            fapswitch 2.2
_symmetry_space_group_name_H-M    P1
_symmetry_Int_Tables_number       1
_space_group_crystal_system       triclinic
_cell_length_a                    19.334026
_cell_length_b                    10.851879
_cell_length_c                    9.552263
_cell_angle_alpha                 90.071658
_cell_angle_beta                  89.668508
_cell_angle_gamma                 90.638361
_cell_volume                      2004.00583727

loop_
_atom_site_label
_atom_site_type_symbol
_atom_type_description
_atom_site_fract_x
_atom_site_fract_y
_atom_site_fract_z
_atom_type_partial_charge
C1    C     C_R   0.500560 0.262723 0.499783 0.802739
C2    C     C_R   0.291328 0.500789 0.502457 -0.134557
C3    C     C_R   0.929188 0.492287 0.502056 0.408344
C4    C     C_R   0.069509 0.494925 0.501334 0.441351
C5    C     C_R   0.816661 0.560359 0.603439 -0.153822
C6    C     C_R   0.744682 0.562409 0.602458 -0.200605
C7    C     C_R   0.707886 0.496674 0.500377 -0.009598
C8    C     C_R   0.743685 0.427018 0.400692 -0.181884
C9    C     C_R   0.815792 0.425190 0.401092 -0.186431
C10   C     C_R   0.852984 0.492301 0.502235 0.061374
C11   C     C_R   0.492860 0.061996 0.619391 0.053121
C12   C     C_R   0.367447 0.500856 0.500637 0.837379
C13   C     C_R   0.503128 0.130153 0.498339 -0.068429
C14   C     C_R   0.516189 0.064764 0.373273 -0.218991
C15   C     C_R   0.515946 0.935403 0.373242 -0.229153
C16   C     C_R   0.503105 0.869877 0.498579 -0.105140
C17   C     C_R   0.492893 0.937966 0.619695 0.094184
C18   C     C_3   0.472926 0.928970 0.770345 0.344915
C19   C     C_3   0.472718 0.071300 0.769562 -0.555099
C20   C     C_R   0.530332 0.594433 0.072326 0.066226
C21   C     C_R   0.461825 0.414730 0.076005 0.577100
C22   C     C_R   0.462361 0.415499 0.925195 -0.181017
C23   C     C_R   0.500606 0.737265 0.499897 0.812223
C24   C     C_R   0.528992 0.595605 0.925840 0.177202
C25   C     C_3   0.600980 0.643574 0.914297 -0.534312
C26   C     C_3   0.603621 0.641253 0.073861 0.327559
C27   C     C_R   0.632325 0.499256 0.499804 0.767265
C28   C     C_R   0.254241 0.541659 0.621305 0.496315
C29   C     C_R   0.181787 0.541571 0.618448 -0.242000
C30   C     C_R   0.145759 0.496572 0.501554 -0.007371
C31   C     C_R   0.183106 0.454306 0.385006 -0.162662
C32   C     C_R   0.255127 0.457317 0.385080 -0.261044
Cu1   Cu    Cu3+1 0.500000 0.499980 0.640670 0.977045
Cu2   Cu    Cu3+1 0.500000 0.500020 0.359330 1.008243
H1    H     H_    0.525329 0.887479 0.275539 0.149594
H2    H     H_    0.514163 0.886282 0.834544 0.051037
H3    H     H_    0.420599 0.111970 0.783344 0.210718
H4    H     H_    0.514502 0.113494 0.833687 0.163835
H5    H     H_    0.432294 0.349114 0.866434 0.144198
H6    H     H_    0.636149 0.576519 0.863618 0.233121
H7    H     H_    0.603550 0.738168 0.870340 0.133969
H8    H     H_    0.153903 0.577584 0.707909 0.165929
H9    H     H_    0.607968 0.733584 0.124747 0.057316
H10   H     H_    0.156760 0.419671 0.293044 0.164884
H11   H     H_    0.282571 0.424280 0.293469 0.194701
H12   H     H_    0.843743 0.613191 0.682665 0.151198
H13   H     H_    0.717846 0.617250 0.679838 0.131157
H14   H     H_    0.715827 0.373893 0.322724 0.167450
H15   H     H_    0.526176 0.112801 0.275885 0.166645
N1    N     N_R   0.033913 0.440943 0.395161 -0.239578
N2    N     N_R   0.965086 0.439583 0.395558 -0.242057
N3    N     N_R   0.964810 0.546183 0.608117 -0.242566
N4    N     N_R   0.033558 0.547327 0.607851 -0.239262
N5    N     N_R   0.500440 0.500930 0.147930 -0.204499
N6    N     N_R   0.500440 0.500890 0.852020 -0.178819
O1    O     O_R   0.500000 0.319640 0.618810 -0.589690
O2    O     O_R   0.500010 0.319680 0.381230 -0.541887
O3    O     O_R   0.400140 0.499970 0.618830 -0.538662
O4    O     O_R   0.400150 0.500010 0.381250 -0.556634
O5    O     O_R   0.499990 0.680320 0.618770 -0.559551
O6    O     O_R   0.500000 0.680360 0.381190 -0.604114
O7    O     O_R   0.599850 0.499990 0.618750 -0.590487
O8    O     O_R   0.599860 0.500030 0.381170 -0.531736
O9    O     O_3   0.288785 0.593431 0.733971 -0.551615
C33   C     C_3   0.282108 0.514447 0.850627 -0.278408
H16   H     H_    0.228354 0.513877 0.892511 0.150256
H17   H     H_    0.298604 0.418906 0.825181 0.147314
H18   H     H_    0.316469 0.549385 0.934794 0.185660
O10   O     O_3   0.406047 0.876831 0.785025 -0.522206
C34   C     C_3   0.391635 0.858563 0.928320 -0.240441
H19   H     H_    0.395176 0.946527 0.988011 0.131951
H20   H     H_    0.426725 0.788980 0.973957 0.133953
H21   H     H_    0.337946 0.822609 0.939249 0.204102
O11   O     O_3   0.419405 0.335801 0.153606 -0.551095
C35   C     C_3   0.414011 0.217220 0.093856 -0.396453
H22   H     H_    0.395581 0.152274 0.175901 0.206233
H23   H     H_    0.464835 0.183130 0.055828 0.149190
H24   H     H_    0.374822 0.215815 0.009330 0.157521
O12   O     O_3   0.650487 0.552188 0.121923 -0.531710
C36   C     C_3   0.717394 0.605528 0.126309 -0.301980
H25   H     H_    0.722263 0.667388 0.218678 0.168655
H26   H     H_    0.730957 0.656746 0.028762 0.146185
H27   H     H_    0.755773 0.531050 0.136319 0.190666
H28   H     H_    0.842265 0.371150 0.322384 0.155545

loop_
_geom_bond_atom_site_label_1
_geom_bond_atom_site_label_2
_ccdc_geom_bond_type
Cu1   N6    S    
Cu1   O3    S    
C29   H8    S    
C32   H11   S    
C2    C12   S    
C7    C8    A    
C24   N6    A    
C11   C19   S    
C28   C29   A    
C19   H4    S    
C1    O1    A    
C25   H6    S    
C21   N5    A    
C4    N4    A    
C14   H15   S    
C16   C17   A    
C15   C16   A    
C7    C27   S    
C2    C32   A    
C18   C19   S    
C19   H3    S    
C12   O4    A    
C20   C24   A    
C8    C9    A    
C33   H17   S    
Cu2   O2    S    
C34   H19   S    
C9    C10   A    
C12   O3    A    
Cu1   O1    S    
C21   C22   A    
C36   H27   S    
C15   H1    S    
C26   H9    S    
Cu1   Cu2   S    
C23   O5    A    
C31   H10   S    
C24   C25   S    
C20   N5    A    
C6    H13   S    
C25   H7    S    
C3    N2    A    
Cu1   O7    S    
N1    N2    A    
C25   C26   S    
C21   O11   S    
Cu2   O6    S    
C4    N1    A    
C35   H22   S    
C8    H14   S    
C29   C30   A    
C27   O7    A    
C1    O2    A    
C31   C32   A    
C30   C31   A    
C33   H18   S    
C34   H21   S    
C17   C18   S    
C35   H23   S    
C6    C7    A    
C27   O8    A    
C28   O9    S    
C36   H26   S    
Cu2   N5    S    
Cu1   O5    S    
Cu2   O4    S    
C1    C13   S    
N3    N4    A    
C11   C17   A    
C36   H25   S    
C2    C28   A    
C3    N3    A    
C22   N6    A    
C16   C23   S    
C5    H12   S    
C26   O12   S    
O9    C33   S    
C5    C10   A    
C3    C10   S    
C11   C13   A    
C5    C6    A    
C20   C26   S    
C18   O10   S    
C22   H5    S    
Cu2   O8    S    
O10   C34   S    
C35   H24   S    
C9    H28   S    
O12   C36   S    
C23   O6    A    
O11   C35   S    
C33   H16   S    
C14   C15   A    
C34   H20   S    
C13   C14   A    
C18   H2    S    
C4    C30   S    
