data_mof_unit_32520.cif
_audit_creation_date              2013-03-05T15:53:36-0500
_audit_creation_method            fapswitch 2.2
_symmetry_space_group_name_H-M    P1
_symmetry_Int_Tables_number       1
_space_group_crystal_system       triclinic
_cell_length_a                    9.996093
_cell_length_b                    10.705
_cell_length_c                    13.58013
_cell_angle_alpha                 92.092583
_cell_angle_beta                  81.065404
_cell_angle_gamma                 91.80066
_cell_volume                      1434.10689921

loop_
_atom_site_label
_atom_site_type_symbol
_atom_site_description
_atom_site_fract_x
_atom_site_fract_y
_atom_site_fract_z
_atom_type_partial_charge
O1    O     O_R   0.385310 0.683220 0.500000 -0.623490
O2    O     O_R   0.614640 0.683250 0.500010 -0.649889
C1    C     C_R   0.503010 0.739144 0.492552 0.839113
O3    O     O_R   0.368830 0.499960 0.640340 -0.613580
O4    O     O_R   0.598160 0.499980 0.640350 -0.603600
C2    C     C_R   0.473940 0.501455 0.685663 0.874994
Zn1   Zn    Zn3+2 0.346870 0.499980 0.499990 1.042743
Zn2   Zn    Zn3+2 0.653130 0.500020 0.500010 1.029322
O5    O     O_R   0.385360 0.316750 0.499990 -0.585870
O6    O     O_R   0.614690 0.316780 0.500000 -0.569171
O7    O     O_R   0.401840 0.500020 0.359650 -0.565033
O8    O     O_R   0.631170 0.500040 0.359660 -0.555979
C3    C     C_R   0.495453 0.260479 0.507925 0.919591
C4    C     C_R   0.526247 0.500362 0.314283 0.926906
C5    C     C_1   0.548791 0.505327 0.209889 -0.053661
C6    C     C_2   0.563756 0.515055 0.017117 0.167619
C7    C     C_2   0.444888 0.526866 0.982534 0.168886
C8    C     C_1   0.443780 0.518202 0.878286 0.071955
C9    C     C_1   0.561157 0.510490 0.121695 0.086206
C10   C     C_1   0.452886 0.509877 0.790114 -0.088081
H1    H     H_    0.698347 0.894636 0.539592 0.184938
C11   C     C_R   0.293164 0.873169 0.410669 -0.178300
H2    H     H_    0.313354 0.786243 0.368484 0.193128
C12   C     C_R   0.165745 0.923518 0.414874 -0.189175
H3    H     H_    0.090439 0.872881 0.378670 0.200331
C13   C     C_R   0.133858 0.033921 0.470616 0.378776
C14   C     C_R   0.237088 0.100494 0.510886 -0.134836
H4    H     H_    0.210260 0.184142 0.555320 0.231489
C15   C     C_R   0.370799 0.055801 0.497380 0.042000
C16   C     C_R   0.391119 0.932906 0.462296 0.095131
C17   C     C_R   0.505770 0.872416 0.484885 -0.102146
C18   C     C_R   0.610714 0.939973 0.520736 -0.140129
H5    H     H_    0.688637 0.119331 0.555749 0.231829
C19   C     C_R   0.603011 0.067290 0.533525 -0.104968
C20   C     C_R   0.485834 0.126740 0.518448 -0.141891
C21   C     C_R   0.844589 0.662709 0.632180 -0.210028
H6    H     H_    0.743389 0.685053 0.624513 0.185771
C22   C     C_R   0.906406 0.731447 0.703627 -0.089207
C23   C     C_R   0.031330 0.690557 0.726397 -0.107005
C24   C     C_R   0.091762 0.586721 0.671517 -0.009254
C25   C     C_R   0.055197 0.557262 0.577333 0.080916
C26   C     C_R   0.916815 0.573491 0.568456 0.143646
N1    N     N_R   0.857120 0.501200 0.500900 -0.122250
C27   C     C_R   0.942329 0.428925 0.432298 -0.080706
C28   C     C_R   0.085938 0.440078 0.426865 0.269438
N2    N     N_R   0.142720 0.501280 0.500940 -0.148205
N3    N     N_R   0.318310 0.548845 0.047161 0.241608
O9    O     O_R   0.204896 0.511669 0.018398 -0.302984
O10   O     O_R   0.313842 0.624458 0.124810 -0.357780
C29   C     C_2   0.833520 0.840473 0.754159 0.437464
H7    H     H_    0.725305 0.847215 0.754357 0.072716
O11   O     O_2   0.893388 0.926788 0.791215 -0.521414
C30   C     C_2   0.089230 0.742678 0.814069 0.507309
H8    H     H_    0.025727 0.788836 0.875813 0.152570
O12   O     O_2   0.209762 0.733990 0.818156 -0.578255
C31   C     C_2   0.120653 0.480109 0.731856 0.542828
H9    H     H_    0.136252 0.495264 0.808724 0.115303
O13   O     O_2   0.123827 0.373066 0.697177 -0.534425
N4    N     N_R   0.170862 0.385232 0.342815 0.200145
O14   O     O_R   0.234242 0.283356 0.352258 -0.387679
O15   O     O_R   0.162962 0.422292 0.253788 -0.326039
N5    N     N_R   0.692319 0.499783 0.953088 0.204818
O16   O     O_R   0.803391 0.537686 0.985022 -0.344662
O17   O     O_R   0.701708 0.432150 0.870820 -0.367189
N6    N     N_R   0.998154 0.079043 0.484980 0.175921
O18   O     O_R   0.909188 0.029837 0.433554 -0.441031
O19   O     O_R   0.961771 0.168205 0.550492 -0.403926
C32   C     C_2   0.893763 0.327922 0.366980 0.616828
H10   H     H_    0.959605 0.251083 0.340892 0.119648
O20   O     O_2   0.785368 0.327881 0.337754 -0.520050

loop_
_geom_bond_atom_site_label_1
_geom_bond_atom_site_label_2
_geom_bond_distance
_ccdc_geom_bond_type
O4    Zn2   1.899713 S    
C5    C9    1.187945 T    
N1    C27   1.390802 A    
C12   H3    1.082622 S    
C3    C20   1.442699 S    
C15   C16   1.392840 A    
C22   C29   1.484446 S    
C14   C15   1.416563 A    
C2    C10   1.401278 S    
C25   C26   1.423590 A    
C15   C20   1.418547 A    
C21   C26   1.403993 A    
N3    O9    1.301563 A    
Zn2   N1    2.040655 S    
N5    O17   1.301459 A    
C16   C17   1.413237 A    
Zn2   O8    1.952152 S    
C14   H4    1.078528 S    
C21   C22   1.403655 A    
C7    C8    1.417090 S    
O8    C4    1.296499 A    
N4    O14   1.298489 A    
N3    O10   1.301710 A    
C24   C31   1.489933 S    
C23   C30   1.486284 S    
C30   H8    1.083646 S    
C27   C28   1.427382 A    
C1    C17   1.433349 S    
Zn1   O7    1.899713 S    
C13   C14   1.404414 A    
N5    O16   1.301477 A    
C25   N2    1.380737 A    
C6    N5    1.445713 S    
O3    Zn1   1.952152 S    
O3    C2    1.296976 A    
C21   H6    1.068244 S    
O7    C4    1.299220 A    
C12   C13   1.398139 A    
H5    C19   1.082616 S    
O2    C1    1.301885 A    
C30   O12   1.221307 D    
C6    C9    1.418978 S    
O4    C2    1.297668 A    
C19   C20   1.396338 A    
H1    C18   1.083486 S    
C11   C12   1.390819 A    
N4    O15   1.300748 A    
C27   C32   1.490729 S    
C26   N1    1.373239 A    
C17   C18   1.394909 A    
Zn1   N2    2.039222 S    
C7    N3    1.444037 S    
C23   C24   1.413433 A    
C22   C23   1.418017 A    
C31   H9    1.084854 S    
C8    C10   1.186936 T    
Zn2   O6    1.986979 S    
N6    O18   1.301035 A    
C29   O11   1.220650 D    
Zn1   O5    2.010683 S    
C32   O20   1.210411 D    
O5    C3    1.291824 A    
C4    C5    1.403199 S    
C28   N4    1.431642 S    
O1    Zn1   1.986981 S    
C24   C25   1.406236 A    
C11   C16   1.414347 A    
C29   H7    1.085967 S    
C28   N2    1.367185 A    
C13   N6    1.436524 S    
C11   H2    1.082491 S    
O2    Zn2   2.010686 S    
N6    O19   1.301585 A    
C6    C7    1.354810 D    
C31   O13   1.222338 D    
C32   H10   1.084258 S    
O1    C1    1.294633 A    
O6    C3    1.309663 A    
C18   C19   1.370698 A    
