data_mof_unit_50988.cif
_audit_creation_date              2012-12-10T18:15:14-0500
_audit_creation_method            fapswitch 2.2
_symmetry_space_group_name_H-M    P1
_symmetry_Int_Tables_number       1
_space_group_crystal_system       triclinic
_cell_length_a                    22.309098
_cell_length_b                    22.585723
_cell_length_c                    14.660574
_cell_angle_alpha                 89.803827
_cell_angle_beta                  90.248935
_cell_angle_gamma                 89.983281
_cell_volume                      7386.86765412

loop_
_atom_site_label
_atom_site_type_symbol
_atom_type_description
_atom_site_fract_x
_atom_site_fract_y
_atom_site_fract_z
_atom_type_partial_charge
C1    C     C_R   0.080341 0.420133 0.500230 0.812777
C2    C     C_R   0.080153 0.580039 0.499974 0.814575
C3    C     C_R   0.580351 0.920143 0.500229 0.812707
C4    C     C_R   0.580162 0.080031 0.499976 0.814497
C5    C     C_1   0.158850 0.665904 0.497074 0.022024
C6    C     C_1   0.159516 0.334635 0.499722 0.030720
C7    C     C_1   0.658882 0.165876 0.497111 0.022080
C8    C     C_1   0.659564 0.834676 0.499757 0.030839
C9    C     C_1   0.835217 0.339416 0.499197 0.044560
C10   C     C_1   0.836811 0.662061 0.498215 0.041763
C11   C     C_1   0.335186 0.839444 0.499193 0.044617
C12   C     C_1   0.336786 0.162042 0.498192 0.041773
C13   C     C_1   0.874021 0.376101 0.499769 -0.195538
C14   C     C_1   0.874980 0.624753 0.499020 -0.190685
C15   C     C_1   0.374002 0.876119 0.499770 -0.195571
C16   C     C_1   0.374967 0.124744 0.499012 -0.190706
C17   C     C_3   0.984781 0.564128 0.055012 0.350108
C18   C     C_3   0.987798 0.564232 0.947735 0.312988
C19   C     C_3   0.955160 0.452045 0.946909 0.337539
C20   C     C_3   0.951700 0.455463 0.054017 0.377532
C21   C     C_3   0.485093 0.064193 0.055014 0.350150
C22   C     C_3   0.488116 0.064285 0.947739 0.313007
C23   C     C_3   0.454908 0.952263 0.946907 0.337588
C24   C     C_3   0.451471 0.955689 0.054017 0.377476
C25   C     C_3   0.998824 0.500548 0.092112 -0.019362
C26   C     C_3   0.999142 0.500184 0.907845 -0.036771
C27   C     C_3   0.498820 0.000546 0.092112 -0.019401
C28   C     C_3   0.499136 0.000183 0.907846 -0.036825
C29   C     C_3   0.061816 0.481776 0.946853 -0.594874
C30   C     C_3   0.061326 0.481900 0.053804 -0.599755
C31   C     C_3   0.561715 0.981464 0.946853 -0.594833
C32   C     C_3   0.561227 0.981594 0.053804 -0.599695
C33   C     C_1   0.999921 0.500098 0.804834 0.203692
C34   C     C_1   0.999790 0.500116 0.195172 0.186555
C35   C     C_1   0.499918 0.000096 0.804834 0.203706
C36   C     C_1   0.499787 0.000114 0.195172 0.186522
C37   C     C_R   0.919761 0.419939 0.499964 0.817222
C38   C     C_R   0.919974 0.580235 0.499747 0.823102
C39   C     C_R   0.419756 0.919943 0.499964 0.817229
C40   C     C_R   0.419972 0.080235 0.499746 0.823079
C41   C     C_3   0.796823 0.251216 0.579754 0.257723
C42   C     C_3   0.791386 0.258552 0.407361 0.287625
C43   C     C_3   0.817634 0.769623 0.481871 0.247793
C44   C     C_3   0.757332 0.706800 0.591995 0.284887
C45   C     C_3   0.296492 0.751535 0.580168 0.257712
C46   C     C_3   0.291683 0.758259 0.407683 0.287652
C47   C     C_3   0.317678 0.269683 0.483082 0.247831
C48   C     C_3   0.256735 0.206211 0.591498 0.284826
C49   C     C_3   0.244624 0.706794 0.408455 0.264002
C50   C     C_3   0.246828 0.702942 0.577495 0.264939
C51   C     C_3   0.208663 0.256665 0.595226 0.261264
C52   C     C_3   0.266711 0.317097 0.485153 0.265061
C53   C     C_3   0.744346 0.207068 0.408108 0.263948
C54   C     C_3   0.747147 0.202636 0.577097 0.265054
C55   C     C_3   0.709283 0.757276 0.595662 0.261291
C56   C     C_3   0.766678 0.817054 0.483959 0.264963
C57   C     C_1   0.123310 0.626171 0.499394 -0.212777
C58   C     C_1   0.123843 0.374286 0.500578 -0.202662
C59   C     C_1   0.623336 0.126148 0.499407 -0.212691
C60   C     C_1   0.623877 0.874316 0.500579 -0.202622
C61   C     C_3   0.787774 0.294523 0.498004 0.009440
C62   C     C_3   0.789651 0.707165 0.497629 0.010397
C63   C     C_3   0.287741 0.794553 0.497984 0.009437
C64   C     C_3   0.289612 0.207137 0.497588 0.010407
C65   C     C_3   0.202624 0.714104 0.494565 -0.005441
C66   C     C_3   0.203480 0.286556 0.497623 -0.007220
C67   C     C_3   0.702652 0.214081 0.494622 -0.005450
C68   C     C_3   0.703526 0.786591 0.497717 -0.007225
C69   C     C_3   0.171539 0.779590 0.491709 0.005189
C70   C     C_3   0.187177 0.235977 0.422202 0.002624
C71   C     C_3   0.671558 0.279574 0.492554 0.005163
C72   C     C_3   0.686785 0.735571 0.423230 0.002630
C73   C     C_3   0.725264 0.324753 0.507077 -0.412391
C74   C     C_3   0.744277 0.694318 0.418951 -0.408752
C75   C     C_3   0.225198 0.824819 0.506273 -0.412475
C76   C     C_3   0.244701 0.194751 0.418120 -0.408671
Cu1   Cu    Cu3+1 0.999990 0.500000 0.589920 0.971693
Cu2   Cu    Cu3+1 0.999990 0.500000 0.410080 0.971026
Cu3   Cu    Cu3+1 0.499990 0.000000 0.589920 0.971720
Cu4   Cu    Cu3+1 0.499990 0.000000 0.410080 0.971044
H1    H     H_    0.271511 0.660794 0.562974 -0.000879
H2    H     H_    0.271384 0.665151 0.416911 -0.014366
H3    H     H_    0.274636 0.343770 0.548415 0.005481
H4    H     H_    0.226950 0.290097 0.644255 -0.010112
H5    H     H_    0.771767 0.160536 0.562029 -0.000914
H6    H     H_    0.771148 0.165409 0.416009 -0.014399
H7    H     H_    0.774967 0.844108 0.546728 0.005518
H8    H     H_    0.727854 0.791001 0.643964 -0.010203
H9    H     H_    0.841108 0.228931 0.568550 0.001143
H10   H     H_    0.837167 0.238107 0.405877 -0.003522
H11   H     H_    0.847872 0.778965 0.541366 0.006630
H12   H     H_    0.792576 0.717115 0.644311 0.003694
H13   H     H_    0.340824 0.729219 0.569530 0.001197
H14   H     H_    0.337459 0.737784 0.406781 -0.003523
H15   H     H_    0.347576 0.278666 0.543106 0.006735
H16   H     H_    0.291669 0.216205 0.644440 0.003571
H17   H     H_    0.723736 0.345760 0.575090 0.186890
H18   H     H_    0.722985 0.365136 0.465587 0.159228
H19   H     H_    0.768687 0.699798 0.353921 0.188506
H20   H     H_    0.734990 0.646803 0.413697 0.160084
H21   H     H_    0.223427 0.846074 0.574087 0.186906
H22   H     H_    0.223064 0.865046 0.464407 0.159226
H23   H     H_    0.269486 0.200611 0.353500 0.188460
H24   H     H_    0.235453 0.147270 0.412088 0.160153
H25   H     H_    0.965056 0.410685 0.080278 -0.010243
H26   H     H_    0.976317 0.408359 0.930386 0.025553
H27   H     H_    0.030530 0.587986 0.933473 0.080724
H28   H     H_    0.021993 0.592908 0.081115 0.016317
H29   H     H_    0.464608 0.910846 0.080267 -0.010209
H30   H     H_    0.475840 0.908473 0.930372 0.025572
H31   H     H_    0.530970 0.087827 0.933485 0.080766
H32   H     H_    0.522446 0.092793 0.081124 0.016280
H33   H     H_    0.096511 0.512681 0.079237 0.202723
H34   H     H_    0.097294 0.512342 0.921837 0.199337
H35   H     H_    0.074650 0.437018 0.922082 0.196673
H36   H     H_    0.073252 0.436944 0.079377 0.206272
H37   H     H_    0.596565 0.012206 0.079234 0.202685
H38   H     H_    0.597349 0.011851 0.921836 0.199360
H39   H     H_    0.574319 0.936641 0.922084 0.196674
H40   H     H_    0.572932 0.936582 0.079379 0.206344
N1    N     N_1   0.000150 0.500000 0.724970 -0.160730
N2    N     N_1   0.000150 0.500000 0.275030 -0.161779
N3    N     N_1   0.500150 0.000000 0.724970 -0.160712
N4    N     N_1   0.500150 0.000000 0.275030 -0.161780
O1    O     O_R   0.060270 0.439640 0.575970 -0.584884
O2    O     O_R   0.060270 0.439640 0.424030 -0.565173
O3    O     O_R   0.060270 0.560360 0.424030 -0.577578
O4    O     O_R   0.060270 0.560360 0.575970 -0.564870
O5    O     O_R   0.560270 0.939640 0.575970 -0.584868
O6    O     O_R   0.560270 0.939640 0.424030 -0.565091
O7    O     O_R   0.560270 0.060360 0.424030 -0.577652
O8    O     O_R   0.560270 0.060360 0.575970 -0.564718
O9    O     O_R   0.939710 0.439640 0.575970 -0.567774
O10   O     O_R   0.939710 0.439640 0.424030 -0.575305
O11   O     O_R   0.939710 0.560360 0.424030 -0.563175
O12   O     O_R   0.939710 0.560360 0.575970 -0.564604
O13   O     O_R   0.439710 0.939640 0.575970 -0.567811
O14   O     O_R   0.439710 0.939640 0.424030 -0.575290
O15   O     O_R   0.439710 0.060360 0.424030 -0.563109
O16   O     O_R   0.439710 0.060360 0.575970 -0.564708
O17   O     O_3   0.781827 0.297240 0.332078 -0.527342
C77   C     C_3   0.820933 0.283716 0.259734 -0.273676
H41   H     H_    0.818724 0.236066 0.241052 0.163835
H42   H     H_    0.867683 0.296382 0.277606 0.136223
H43   H     H_    0.807123 0.309796 0.198991 0.167319
O18   O     O_3   0.795547 0.282902 0.663416 -0.543595
C78   C     C_3   0.842736 0.264977 0.721590 -0.291183
H44   H     H_    0.886609 0.279722 0.693856 0.147662
H45   H     H_    0.842716 0.216228 0.732445 0.154338
H46   H     H_    0.836539 0.286173 0.788990 0.166908
O19   O     O_3   0.730867 0.650405 0.607119 -0.529457
C79   C     C_3   0.740007 0.631393 0.697882 -0.253812
H47   H     H_    0.723304 0.664615 0.747525 0.161231
H48   H     H_    0.788239 0.621768 0.710541 0.141056
H49   H     H_    0.714584 0.589796 0.708806 0.176227
O20   O     O_3   0.848652 0.771621 0.397245 -0.545052
C80   C     C_3   0.910939 0.778938 0.410360 -0.308662
H50   H     H_    0.930319 0.741840 0.450873 0.156524
H51   H     H_    0.920953 0.821924 0.443750 0.143562
H52   H     H_    0.933029 0.779100 0.342749 0.181305
O21   O     O_3   0.282421 0.796682 0.331992 -0.527367
C81   C     C_3   0.321904 0.782986 0.260199 -0.273832
H53   H     H_    0.319758 0.735295 0.241746 0.163797
H54   H     H_    0.368569 0.795664 0.278568 0.136421
H55   H     H_    0.308438 0.808948 0.199159 0.167097
O22   O     O_3   0.294918 0.783516 0.663546 -0.543641
C82   C     C_3   0.341779 0.765654 0.722379 -0.291069
H56   H     H_    0.385818 0.780247 0.695067 0.147545
H57   H     H_    0.341620 0.716934 0.733540 0.154407
H58   H     H_    0.335280 0.787036 0.789570 0.166964
O23   O     O_3   0.230181 0.149730 0.605447 -0.529516
C83   C     C_3   0.238730 0.130199 0.696080 -0.253530
H59   H     H_    0.221692 0.163132 0.745916 0.161270
H60   H     H_    0.286882 0.120512 0.709343 0.140834
H61   H     H_    0.213245 0.088538 0.706048 0.176241
O24   O     O_3   0.349173 0.272180 0.398897 -0.545055
C84   C     C_3   0.411366 0.279558 0.412923 -0.308753
H62   H     H_    0.430602 0.242248 0.453135 0.156523
H63   H     H_    0.421092 0.322356 0.447069 0.143595
H64   H     H_    0.433827 0.280196 0.345604 0.181629
O25   O     O_3   0.211732 0.705673 0.325038 -0.504835
C85   C     C_3   0.213341 0.649347 0.283746 -0.299495
H65   H     H_    0.195134 0.614623 0.329836 0.157414
H66   H     H_    0.259746 0.637959 0.262695 0.134303
H67   H     H_    0.184859 0.650499 0.221563 0.184785
O26   O     O_3   0.215952 0.697966 0.661815 -0.535306
C86   C     C_3   0.224113 0.641940 0.703061 -0.293533
H68   H     H_    0.272231 0.633649 0.718445 0.135015
H69   H     H_    0.205773 0.606127 0.659228 0.156377
H70   H     H_    0.199325 0.641096 0.768467 0.181398
O27   O     O_3   0.152835 0.234147 0.626717 -0.504081
C87   C     C_3   0.130770 0.266751 0.701338 -0.310439
H71   H     H_    0.125004 0.314298 0.683504 0.157271
H72   H     H_    0.160831 0.261838 0.761590 0.138904
H73   H     H_    0.086143 0.248942 0.720062 0.183210
O28   O     O_3   0.267493 0.355582 0.408335 -0.536700
C88   C     C_3   0.299829 0.408002 0.426379 -0.280786
H74   H     H_    0.345402 0.398363 0.453542 0.150369
H75   H     H_    0.274728 0.436478 0.474746 0.139734
H76   H     H_    0.305013 0.432989 0.361637 0.175199
O29   O     O_3   0.711160 0.206215 0.324952 -0.504832
C89   C     C_3   0.712584 0.150013 0.283247 -0.299846
H77   H     H_    0.694538 0.115158 0.329249 0.157476
H78   H     H_    0.758902 0.138669 0.261710 0.134268
H79   H     H_    0.683869 0.151361 0.221321 0.184804
O30   O     O_3   0.716568 0.197377 0.661629 -0.535251
C90   C     C_3   0.724969 0.141254 0.702445 -0.293386
H80   H     H_    0.773158 0.132992 0.717344 0.135115
H81   H     H_    0.706509 0.105537 0.658541 0.156191
H82   H     H_    0.700437 0.140197 0.768068 0.181320
O31   O     O_3   0.653644 0.734950 0.628226 -0.504061
C91   C     C_3   0.632046 0.767964 0.702737 -0.310095
H83   H     H_    0.626165 0.815412 0.684363 0.157290
H84   H     H_    0.662480 0.763383 0.762616 0.138830
H85   H     H_    0.587542 0.750258 0.722340 0.183257
O32   O     O_3   0.767007 0.855088 0.406602 -0.536755
C92   C     C_3   0.799572 0.907543 0.423407 -0.280573
H86   H     H_    0.845298 0.897970 0.450019 0.150460
H87   H     H_    0.774852 0.936367 0.471738 0.139655
H88   H     H_    0.804387 0.932127 0.358234 0.175216
C93   C     C_R   0.123770 0.791061 0.569389 0.100812
C94   C     C_R   0.062601 0.805403 0.550601 -0.194054
C95   C     C_R   0.020599 0.812702 0.620147 -0.139112
C96   C     C_R   0.038263 0.809365 0.710944 -0.101618
C97   C     C_R   0.098406 0.801160 0.732209 -0.152205
C98   C     C_R   0.140463 0.793714 0.662842 -0.045805
H89   H     H_    0.045602 0.813343 0.482938 0.119860
H90   H     H_    0.974261 0.822160 0.603342 0.110728
H91   H     H_    0.005757 0.815436 0.764705 0.119289
H92   H     H_    0.112885 0.801817 0.802779 0.127760
H93   H     H_    0.186387 0.793035 0.684364 0.218108
C99   C     C_R   0.139423 0.787883 0.395633 0.187492
C100  C     C_R   0.155249 0.831319 0.329099 -0.040106
C101  C     C_R   0.127048 0.833718 0.243761 -0.136796
C102  C     C_R   0.082016 0.793758 0.221430 -0.119090
C103  C     C_R   0.064403 0.751495 0.284802 -0.155793
C104  C     C_R   0.092255 0.748669 0.370110 -0.107017
H94   H     H_    0.189761 0.863773 0.337904 0.137022
H95   H     H_    0.140531 0.866822 0.194354 0.118668
H96   H     H_    0.060367 0.795928 0.155287 0.117578
H97   H     H_    0.028467 0.721105 0.268369 0.117123
H98   H     H_    0.073936 0.717355 0.417871 0.122781
C105  C     C_R   0.174950 0.260676 0.322507 0.097484
C106  C     C_R   0.220714 0.288113 0.270339 -0.044110
C107  C     C_R   0.209671 0.312829 0.184380 -0.151760
C108  C     C_R   0.153203 0.308437 0.144782 -0.122110
C109  C     C_R   0.108584 0.276922 0.189385 -0.132562
C110  C     C_R   0.119569 0.252024 0.275291 -0.179139
H99   H     H_    0.266486 0.288755 0.292545 0.218162
H100  H     H_    0.245560 0.334449 0.147623 0.125014
H101  H     H_    0.144718 0.327417 0.078058 0.112809
H102  H     H_    0.065473 0.270712 0.156587 0.113907
H103  H     H_    0.084022 0.224661 0.301135 0.123251
C111  C     C_R   0.129270 0.201318 0.455423 0.186409
C112  C     C_R   0.074399 0.232701 0.466921 -0.110754
C113  C     C_R   0.022726 0.205544 0.500327 -0.151723
C114  C     C_R   0.023402 0.145894 0.523384 -0.121625
C115  C     C_R   0.075591 0.113183 0.512064 -0.135822
C116  C     C_R   0.127611 0.139932 0.478526 -0.037350
H104  H     H_    0.069805 0.278033 0.445311 0.121579
H105  H     H_    0.981794 0.230882 0.507352 0.113397
H106  H     H_    0.983315 0.124859 0.549284 0.110258
H107  H     H_    0.075949 0.066608 0.529831 0.118262
H108  H     H_    0.165174 0.110547 0.474239 0.138448
C117  C     C_R   0.624056 0.290757 0.570706 0.100882
C118  C     C_R   0.562815 0.305118 0.552519 -0.194104
C119  C     C_R   0.521052 0.312155 0.622462 -0.138972
C120  C     C_R   0.539032 0.308521 0.713094 -0.101282
C121  C     C_R   0.599251 0.300281 0.733814 -0.152242
C122  C     C_R   0.641070 0.293098 0.664049 -0.045836
H109  H     H_    0.545579 0.313267 0.485052 0.119777
H110  H     H_    0.474652 0.321639 0.606107 0.110764
H111  H     H_    0.506708 0.314388 0.767165 0.119448
H112  H     H_    0.613973 0.300703 0.804274 0.127808
H113  H     H_    0.687068 0.292362 0.685202 0.218053
C123  C     C_R   0.639122 0.288210 0.396794 0.187600
C124  C     C_R   0.654699 0.331910 0.330532 -0.040115
C125  C     C_R   0.626241 0.334591 0.245409 -0.136691
C126  C     C_R   0.581191 0.294661 0.223036 -0.118991
C127  C     C_R   0.563807 0.252155 0.286166 -0.156031
C128  C     C_R   0.591901 0.249058 0.371269 -0.107047
H114  H     H_    0.689197 0.364373 0.339380 0.136942
H115  H     H_    0.639541 0.367893 0.196199 0.118720
H116  H     H_    0.559349 0.297046 0.157056 0.117590
H117  H     H_    0.527858 0.221785 0.269715 0.117378
H118  H     H_    0.573744 0.217564 0.418892 0.122734
C129  C     C_R   0.673979 0.759675 0.323353 0.097506
C130  C     C_R   0.719433 0.786805 0.270189 -0.044029
C131  C     C_R   0.707893 0.810995 0.184023 -0.151808
C132  C     C_R   0.651208 0.806344 0.145234 -0.122000
C133  C     C_R   0.606860 0.775085 0.190874 -0.132429
C134  C     C_R   0.618340 0.750715 0.276991 -0.179351
H119  H     H_    0.765330 0.787588 0.291775 0.218138
H120  H     H_    0.743562 0.832398 0.146482 0.125009
H121  H     H_    0.642338 0.824914 0.078353 0.112638
H122  H     H_    0.563570 0.768659 0.158732 0.113956
H123  H     H_    0.582955 0.723497 0.303692 0.123258
C135  C     C_R   0.629077 0.701114 0.457718 0.186367
C136  C     C_R   0.574270 0.732565 0.469478 -0.110742
C137  C     C_R   0.522795 0.705610 0.503953 -0.151704
C138  C     C_R   0.523612 0.646103 0.527876 -0.121655
C139  C     C_R   0.575740 0.613327 0.516354 -0.135800
C140  C     C_R   0.627561 0.639872 0.481744 -0.037348
H124  H     H_    0.569549 0.777763 0.447268 0.121455
H125  H     H_    0.481901 0.730987 0.511139 0.113438
H126  H     H_    0.483679 0.625226 0.554605 0.110327
H127  H     H_    0.576206 0.566863 0.534800 0.118306
H128  H     H_    0.665103 0.610466 0.477399 0.138525
O33   O     O_3   0.946023 0.602288 0.902745 -0.599792
C141  C     C_3   0.887784 0.579301 0.893158 -0.130383
H129  H     H_    0.871826 0.555405 0.954414 0.258163
H130  H     H_    0.884818 0.551833 0.830745 0.185992
H131  H     H_    0.856593 0.616987 0.882686 0.126106
O34   O     O_3   0.928205 0.583669 0.087239 -0.523012
C142  C     C_3   0.930185 0.644024 0.111647 -0.283429
H132  H     H_    0.946806 0.672064 0.054563 0.169768
H133  H     H_    0.958476 0.650340 0.173486 0.145492
H134  H     H_    0.884104 0.658844 0.128202 0.187233
O35   O     O_3   0.892937 0.471902 0.081574 -0.505704
C143  C     C_3   0.867995 0.429298 0.140883 -0.262055
H135  H     H_    0.822588 0.444204 0.161061 0.190175
H136  H     H_    0.895358 0.424482 0.204068 0.158271
H137  H     H_    0.863243 0.385865 0.106181 0.121207
O36   O     O_3   0.897425 0.456310 0.906350 -0.573818
C144  C     C_3   0.875124 0.400130 0.881634 -0.321795
H138  H     H_    0.875139 0.369092 0.940691 0.143358
H139  H     H_    0.901602 0.381450 0.824425 0.157454
H140  H     H_    0.828146 0.405228 0.857800 0.199170
O37   O     O_3   0.446539 0.102551 0.902746 -0.599764
C145  C     C_3   0.388186 0.079851 0.893137 -0.130374
H141  H     H_    0.372095 0.056044 0.954392 0.258090
H142  H     H_    0.385092 0.052392 0.830728 0.185953
H143  H     H_    0.357188 0.117690 0.882638 0.126336
O38   O     O_3   0.428612 0.084006 0.087234 -0.523006
C146  C     C_3   0.430890 0.144351 0.111642 -0.283595
H144  H     H_    0.447639 0.172311 0.054555 0.169853
H145  H     H_    0.459220 0.150533 0.173474 0.145589
H146  H     H_    0.384883 0.159390 0.128211 0.187102
O39   O     O_3   0.392790 0.972406 0.081587 -0.505787
C147  C     C_3   0.367645 0.929921 0.140903 -0.261615
H147  H     H_    0.322331 0.945066 0.161141 0.189973
H148  H     H_    0.395012 0.924944 0.204055 0.158227
H149  H     H_    0.362636 0.886523 0.106181 0.121430
O40   O     O_3   0.397193 0.956821 0.906357 -0.573821
C148  C     C_3   0.374602 0.900757 0.881631 -0.322072
H150  H     H_    0.374462 0.869713 0.940680 0.143404
H151  H     H_    0.400980 0.881950 0.824414 0.157563
H152  H     H_    0.327649 0.906092 0.857805 0.199063

loop_
_geom_bond_atom_site_label_1
_geom_bond_atom_site_label_2
_ccdc_geom_bond_type
C107  H100  S    
C80   H50   S    
C6    C58   T    
C133  C134  A    
C52   O28   S    
C24   C27   S    
C41   C61   S    
C109  H102  S    
C104  H98   S    
C36   N4    T    
C20   H25   S    
C23   O40   S    
C106  C107  A    
C55   H8    S    
C88   H75   S    
C9    C13   T    
C127  H117  S    
C11   C15   T    
C19   C20   S    
O36   C144  S    
C90   H82   S    
C38   O12   A    
C82   H58   S    
C47   O24   S    
C44   H12   S    
C83   H61   S    
C25   C34   S    
C76   H23   S    
O19   C79   S    
C3    O5    A    
C21   C22   S    
C134  H123  S    
Cu2   O3    S    
C7    C59   T    
O21   C81   S    
C81   H54   S    
C141  H130  S    
C89   H77   S    
O27   C87   S    
C87   H73   S    
C78   H46   S    
C147  H147  S    
C69   C99   S    
C47   C64   S    
C71   C73   S    
O30   C90   S    
C74   H20   S    
O34   C142  S    
O25   C85   S    
C53   O29   S    
C85   H67   S    
C49   H2    S    
C117  C122  A    
C14   C38   S    
C81   H55   S    
C119  H110  S    
C68   C72   S    
C127  C128  A    
C148  H152  S    
Cu2   O10   S    
C15   C39   S    
C145  H142  S    
C16   C40   S    
Cu3   O13   S    
C80   H52   S    
C77   H42   S    
C135  C136  A    
C43   O20   S    
C21   H32   S    
Cu1   O1    S    
C137  C138  A    
O18   C78   S    
C128  H118  S    
C23   H30   S    
C48   H16   S    
O38   C146  S    
O28   C88   S    
C21   O38   S    
C47   C52   S    
Cu4   O15   S    
C97   H92   S    
C17   C25   S    
C96   H91   S    
C44   C55   S    
C66   C70   S    
C111  C116  A    
C40   O16   A    
C69   C93   S    
C146  H144  S    
C19   H26   S    
C91   H83   S    
C105  C110  A    
C75   H21   S    
O26   C86   S    
C8    C60   T    
C50   H1    S    
C87   H72   S    
C30   H33   S    
C137  H125  S    
C41   H9    S    
C124  H114  S    
C102  H96   S    
C78   H44   S    
C147  H149  S    
C32   H37   S    
C45   H13   S    
C70   C111  S    
C2    C57   S    
C82   H57   S    
C93   C94   A    
C121  H112  S    
C9    C61   S    
C45   C50   S    
C11   C63   S    
C118  H109  S    
C42   C53   S    
C12   C64   S    
C103  C104  A    
C114  C115  A    
C144  H139  S    
C85   H65   S    
C41   O18   S    
C28   C35   S    
C84   H63   S    
C23   C24   S    
C100  C101  A    
C2    O3    A    
C29   H35   S    
C39   O14   A    
C34   N2    T    
C124  C125  A    
C72   C129  S    
C83   H60   S    
C131  C132  A    
C108  H101  S    
C73   H18   S    
C106  H99   S    
C12   C16   T    
C1    O2    A    
C10   C14   T    
C110  H103  S    
C92   H86   S    
C56   C68   S    
C145  H143  S    
C42   H10   S    
C143  H136  S    
C103  H97   S    
C31   H38   S    
C29   C30   S    
C70   C105  S    
C48   O23   S    
C26   C33   S    
C31   C32   S    
C46   H14   S    
C91   H85   S    
C102  C103  A    
C42   O17   S    
C17   C18   S    
C23   C28   S    
C49   O25   S    
C125  H115  S    
C99   C104  A    
C50   O26   S    
C51   O27   S    
C108  C109  A    
C142  H134  S    
C122  H113  S    
C107  C108  A    
C119  C120  A    
C140  H128  S    
C143  H135  S    
C46   C63   S    
C35   N3    T    
C115  C116  A    
C63   C75   S    
C20   O35   S    
Cu4   O14   S    
C135  C140  A    
C88   H74   S    
C53   C67   S    
C50   C65   S    
C85   H66   S    
C56   O32   S    
Cu1   N1    S    
C7    C67   S    
O40   C148  S    
C90   H81   S    
C129  C134  A    
C79   H47   S    
C113  H105  S    
C76   H24   S    
C18   C26   S    
O23   C83   S    
C96   C97   A    
C55   C68   S    
C19   O36   S    
C30   H36   S    
Cu1   Cu2   S    
C92   H88   S    
C46   C49   S    
C89   H78   S    
C78   H45   S    
C147  H148  S    
C48   C64   S    
C20   C25   S    
C105  C106  A    
Cu3   O5    S    
C132  C133  A    
O29   C89   S    
C19   C26   S    
C86   H70   S    
C112  H104  S    
C54   O30   S    
C46   O21   S    
C126  C127  A    
Cu1   O12   S    
C148  H151  S    
Cu2   O11   S    
C3    C60   S    
Cu3   O16   S    
C21   C27   S    
C142  H132  S    
C80   H51   S    
Cu4   O7    S    
C22   C28   S    
C121  C122  A    
C77   H43   S    
C10   C62   S    
C136  H124  S    
C114  H106  S    
C95   C96   A    
C72   C74   S    
C116  H108  S    
C145  H141  S    
C17   H28   S    
C82   H56   S    
C22   O37   S    
C61   C73   S    
C139  H127  S    
C90   H80   S    
C52   H3    S    
C100  H94   S    
C143  H137  S    
C111  C112  A    
O39   C147  S    
C79   H49   S    
C71   C123  S    
C130  H119  S    
C31   H39   S    
C91   H84   S    
C101  C102  A    
Cu2   O2    S    
C52   C66   S    
C146  H145  S    
C81   H53   S    
Cu4   N4    S    
C25   C30   S    
C141  H129  S    
C27   C32   S    
C28   C31   S    
C138  C139  A    
C24   H29   S    
C72   C135  S    
C146  H146  S    
C74   H19   S    
C27   C36   S    
C131  H120  S    
C5    C57   T    
C17   O34   S    
C133  H122  S    
C86   H68   S    
C130  C131  A    
C4    O8    A    
C138  H126  S    
C65   C69   S    
C93   C98   A    
C99   C100  A    
C38   O11   A    
C69   C75   S    
C67   C71   S    
C144  H138  S    
O35   C143  S    
C120  C121  A    
C84   H62   S    
C77   H41   S    
C62   C74   S    
O17   C77   S    
C51   H4    S    
C51   C66   S    
C43   C62   S    
C141  H131  S    
C2    O4    A    
C29   H34   S    
C39   O13   A    
C88   H76   S    
C3    O6    A    
O37   C145  S    
C115  H107  S    
C136  C137  A    
O33   C141  S    
C73   H17   S    
C49   C65   S    
O20   C80   S    
C1    O1    A    
C123  C128  A    
C98   H93   S    
C40   O15   A    
C18   H27   S    
C94   H89   S    
C48   C51   S    
O31   C91   S    
C120  H111  S    
C75   H22   S    
C53   H6    S    
C117  C118  A    
C13   C37   S    
C71   C117  S    
C33   N1    T    
Cu1   O9    S    
C32   H40   S    
C4    O7    A    
C142  H133  S    
C44   O19   S    
Cu4   O6    S    
C132  H121  S    
O32   C92   S    
C5    C65   S    
C95   H90   S    
C56   H7    S    
C54   C67   S    
C44   C62   S    
C126  H116  S    
Cu3   N3    S    
C45   C63   S    
C43   H11   S    
C144  H140  S    
C84   H64   S    
C113  C114  A    
C97   C98   A    
C64   C76   S    
C123  C124  A    
C42   C61   S    
Cu1   O4    S    
O24   C84   S    
C24   O39   S    
C79   H48   S    
C8    C68   S    
C129  C130  A    
C70   C76   S    
O22   C82   S    
C37   O9    A    
C112  C113  A    
C83   H59   S    
C45   O22   S    
C139  C140  A    
C18   O33   S    
C125  C126  A    
C54   H5    S    
C109  C110  A    
C92   H87   S    
C87   H71   S    
C1    C58   S    
Cu3   O8    S    
C4    C59   S    
C101  H95   S    
C94   C95   A    
Cu2   N2    S    
C41   C54   S    
C86   H69   S    
C118  C119  A    
C55   O31   S    
Cu3   Cu4   S    
C43   C56   S    
C6    C66   S    
C26   C29   S    
C22   H31   S    
C37   O10   A    
C47   H15   S    
C89   H79   S    
C148  H150  S    
