data_mof_unit_6152.cif
_audit_creation_date              2013-03-05T15:54:45-0500
_audit_creation_method            fapswitch 2.2
_symmetry_space_group_name_H-M    P1
_symmetry_Int_Tables_number       1
_space_group_crystal_system       triclinic
_cell_length_a                    12.308488
_cell_length_b                    13.162403
_cell_length_c                    15.065851
_cell_angle_alpha                 77.616261
_cell_angle_beta                  101.158535
_cell_angle_gamma                 116.568065
_cell_volume                      2118.92352765

loop_
_atom_site_label
_atom_site_type_symbol
_atom_site_description
_atom_site_fract_x
_atom_site_fract_y
_atom_site_fract_z
_atom_type_partial_charge
O1    O     O_R   0.972510 0.318130 0.526570 -0.560672
O2    O     O_R   0.806530 0.359650 0.490890 -0.612892
C1    C     C_R   0.854893 0.286543 0.507326 0.788330
O3    O     O_R   0.082980 0.479210 0.647590 -0.591273
O4    O     O_R   0.917000 0.520730 0.611900 -0.604866
C2    C     C_R   0.998887 0.499079 0.671055 0.804435
Cu1   Cu    Cu3+1 0.098270 0.475420 0.521130 0.979114
Cu2   Cu    Cu3+1 0.901730 0.524580 0.478870 0.922556
O5    O     O_R   0.193470 0.640350 0.509110 -0.597269
O6    O     O_R   0.027490 0.681870 0.473430 -0.588309
O7    O     O_R   0.083000 0.479270 0.388100 -0.527673
O8    O     O_R   0.917020 0.520790 0.352410 -0.605369
C3    C     C_R   0.145134 0.713600 0.486341 0.806627
C4    C     C_R   0.998646 0.496830 0.329169 0.845451
C5    C     C_R   0.940314 0.549979 0.166470 -0.301198
C6    C     C_R   0.996324 0.490780 0.232864 -0.181291
C7    C     C_R   0.050398 0.428335 0.206622 0.291364
C8    C     C_R   0.050762 0.429084 0.113186 -0.006479
C9    C     C_R   0.994927 0.490396 0.047052 0.013849
C10   C     C_R   0.938913 0.550102 0.074004 0.114169
C11   C     C_R   0.104053 0.368593 0.084151 -0.152884
C12   C     C_R   0.104814 0.371201 0.991445 -0.235550
C13   C     C_R   0.050845 0.432708 0.925990 0.114626
C14   C     C_R   0.994442 0.491629 0.953552 0.087038
C15   C     C_R   0.937576 0.551852 0.887564 0.107079
C16   C     C_R   0.881792 0.610330 0.915307 -0.214798
C17   C     C_R   0.882691 0.609663 0.008032 -0.194488
C18   C     C_R   0.052124 0.436030 0.833238 -0.247445
C19   C     C_R   0.996206 0.496128 0.767764 -0.070377
C20   C     C_R   0.937995 0.552912 0.794894 -0.251245
H1    H     H_    0.898933 0.597697 0.186809 0.166286
H2    H     H_    0.145682 0.319016 0.132546 0.193868
H3    H     H_    0.147419 0.324758 0.970928 0.143067
H4    H     H_    0.095653 0.390819 0.812000 0.147298
H5    H     H_    0.894846 0.599395 0.743980 0.157432
H6    H     H_    0.837908 0.656858 0.865327 0.142308
H7    H     H_    0.839415 0.655746 0.028194 0.140821
C21   C     C_R   0.272659 0.024059 0.378758 0.163503
H8    H     H_    0.091874 0.886387 0.384875 0.147503
H9    H     H_    0.458740 0.224140 0.323904 0.182939
C22   C     C_R   0.227878 0.835116 0.466877 -0.075812
C23   C     C_R   0.815518 0.083706 0.561996 -0.167988
C24   C     C_R   0.736858 0.968175 0.577077 -0.149877
C25   C     C_R   0.613443 0.931183 0.545197 -0.180909
C26   C     C_R   0.566411 0.009518 0.494053 0.091550
C27   C     C_R   0.649987 0.124610 0.468999 0.082048
C28   C     C_R   0.439429 0.977097 0.466218 0.032814
C29   C     C_R   0.398942 0.055731 0.405984 0.144256
C30   C     C_R   0.485492 0.163819 0.372936 -0.208846
C31   C     C_R   0.608677 0.196901 0.402681 -0.206048
C32   C     C_R   0.351362 0.869057 0.498110 -0.256646
C33   C     C_R   0.188058 0.913103 0.409135 -0.235457
C34   C     C_R   0.773015 0.163465 0.510121 -0.085777
H10   H     H_    0.376303 0.808507 0.547478 0.154429
H11   H     H_    0.909508 0.110889 0.592655 0.154117
H12   H     H_    0.558168 0.840250 0.559835 0.127476
H13   H     H_    0.771026 0.907157 0.616209 0.140890
H14   H     H_    0.670914 0.279027 0.370724 0.183417
C35   C     C_R   0.346674 0.328333 0.645970 -0.292500
H15   H     H_    0.169106 0.309361 0.662686 0.112476
H16   H     H_    0.547157 0.294794 0.675275 0.153759
H17   H     H_    0.345907 0.261649 0.702695 0.136120
N1    N     N_R   0.246280 0.438190 0.553160 -0.180296
C36   C     C_R   0.759383 0.645302 0.375833 0.074002
C37   C     C_R   0.662617 0.676800 0.348961 -0.249203
C38   C     C_R   0.559110 0.621897 0.395547 -0.161321
C39   C     C_R   0.551190 0.534310 0.470186 -0.002847
C40   C     C_R   0.652976 0.505158 0.495360 0.283038
C41   C     C_R   0.446858 0.474912 0.520888 -0.031383
C42   C     C_R   0.446723 0.387936 0.595067 0.173336
C43   C     C_R   0.546554 0.361025 0.618440 -0.272747
C44   C     C_R   0.647342 0.418533 0.570033 -0.180101
C45   C     C_R   0.341880 0.497656 0.501773 0.088515
C46   C     C_R   0.246739 0.355009 0.623746 0.082262
N2    N     N_R   0.754320 0.561190 0.447410 -0.207785
H18   H     H_    0.333858 0.562029 0.446614 0.124695
H19   H     H_    0.839387 0.688443 0.339335 0.121357
H20   H     H_    0.487011 0.649752 0.371779 0.142542
H21   H     H_    0.667862 0.744027 0.291822 0.148232
H22   H     H_    0.719047 0.391952 0.594155 0.207596
N3    N     N_3   0.231062 0.103635 0.318852 -0.549126
H23   H     H_    0.250735 0.108697 0.253147 0.201021
H24   H     H_    0.136093 0.072448 0.315312 0.241481
N4    N     N_R   0.100924 0.361437 0.274300 0.118754
O9    O     O_R   0.029636 0.271098 0.324462 -0.365638
O10   O     O_R   0.218501 0.392957 0.287883 -0.375462

loop_
_geom_bond_atom_site_label_1
_geom_bond_atom_site_label_2
_geom_bond_distance
_ccdc_geom_bond_type
C37   H21   1.082552 S    
C8    C11   1.408245 A    
C36   H19   1.081651 S    
C9    C10   1.409867 A    
C3    C22   1.462445 S    
N3    H23   1.045475 S    
Cu1   Cu2   2.702504 S    
C26   C27   1.416552 A    
C40   N2    1.385316 A    
Cu1   O7    1.968224 S    
C16   C17   1.393064 A    
C20   H5    1.084647 S    
C18   C19   1.400727 A    
N4    O10   1.301184 A    
C23   C34   1.402757 A    
O4    C2    1.300647 A    
O7    C4    1.299833 A    
C21   C33   1.401461 A    
C5    C6    1.400820 A    
C8    C9    1.415107 A    
O5    C3    1.301328 A    
C6    C7    1.416136 A    
C13   C14   1.409679 A    
C41   C45   1.416742 A    
C42   C43   1.388417 A    
C22   C33   1.397387 A    
C21   C29   1.415982 A    
Cu2   O8    1.963604 S    
H16   C43   1.084615 S    
H8    C33   1.083549 S    
C18   H4    1.084790 S    
C11   C12   1.391483 A    
O3    Cu1   1.963604 S    
N3    H24   1.045834 S    
C26   C28   1.423820 A    
C5    C10   1.389497 A    
C38   H20   1.077923 S    
C11   H2    1.081855 S    
C39   C40   1.429813 A    
C31   H14   1.079773 S    
C38   C39   1.410308 A    
N4    O9    1.301101 A    
O3    C2    1.299285 A    
C28   C32   1.399200 A    
N1    C45   1.365806 A    
C15   C16   1.400142 A    
Cu2   N2    2.024884 S    
O1    C1    1.305198 A    
C24   C25   1.389814 A    
C19   C20   1.400873 A    
C23   H11   1.083295 S    
C25   H12   1.077270 S    
C28   C29   1.423582 A    
C40   C44   1.407043 A    
C7    C8    1.406475 A    
C13   C18   1.391609 A    
C14   C15   1.412644 A    
C35   C46   1.387412 A    
Cu1   N1    2.036851 S    
C16   H6    1.083741 S    
C29   C30   1.397342 A    
C10   C17   1.402223 A    
O8    C4    1.303230 A    
C30   C31   1.385464 A    
C21   N3    1.438459 S    
C45   H18   1.076722 S    
C4    C6    1.464161 S    
C23   C24   1.386143 A    
C25   C26   1.418610 A    
C15   C20   1.394215 A    
Cu1   O5    1.938193 S    
C12   H3    1.083874 S    
C35   H17   1.083894 S    
O1    Cu1   1.949011 S    
O2    Cu2   1.938194 S    
O6    C3    1.301495 A    
O4    Cu2   1.968225 S    
C5    H1    1.084873 S    
N1    C46   1.354056 A    
C27   C31   1.410874 A    
C32   H10   1.076488 S    
C36   C37   1.391928 A    
C7    N4    1.435648 S    
O2    C1    1.301835 A    
C43   C44   1.384629 A    
C44   H22   1.063470 S    
C1    C34   1.472607 S    
C17   H7    1.083774 S    
C27   C34   1.420735 A    
H15   C46   1.081876 S    
C36   N2    1.358187 A    
C9    C14   1.404144 A    
C41   C42   1.417682 A    
C24   H13   1.082856 S    
C35   C42   1.401202 A    
C2    C19   1.455560 S    
Cu2   O6    1.949010 S    
C37   C38   1.393889 A    
C12   C13   1.397932 A    
C39   C41   1.438483 A    
C22   C32   1.391789 A    
H9    C30   1.082888 S    
