data_mof_unit_52749.cif
_audit_creation_date              2012-12-10T17:23:42-0500
_audit_creation_method            fapswitch 2.2
_symmetry_space_group_name_H-M    P1
_symmetry_Int_Tables_number       1
_space_group_crystal_system       triclinic
_cell_length_a                    9.5966
_cell_length_b                    10.796931
_cell_length_c                    17.329934
_cell_angle_alpha                 92.431755
_cell_angle_beta                  85.665479
_cell_angle_gamma                 90.06016
_cell_volume                      1788.86834497

loop_
_atom_site_label
_atom_site_type_symbol
_atom_type_description
_atom_site_fract_x
_atom_site_fract_y
_atom_site_fract_z
_atom_type_partial_charge
C1    C     C_R   0.499477 0.737463 0.504110 0.794534
C2    C     C_R   0.342903 0.494528 0.776714 -0.242693
C3    C     C_R   0.413576 0.479287 0.146011 -0.151600
C4    C     C_R   0.406311 0.481742 0.226205 -0.208069
C5    C     C_R   0.658805 0.499766 0.223032 -0.201659
C6    C     C_R   0.665933 0.497561 0.142391 -0.170308
C7    C     C_R   0.543193 0.490257 0.103646 0.195103
C8    C     C_2   0.450136 0.541428 0.981171 -0.242962
C9    C     C_2   0.552227 0.492296 0.018939 -0.236206
C10   C     C_R   0.528536 0.493615 0.265419 -0.029858
C11   C     C_R   0.306288 0.877679 0.614890 -0.219373
C12   C     C_R   0.481411 0.502631 0.649858 0.780478
C13   C     C_R   0.204718 0.943943 0.660971 -0.170900
C14   C     C_R   0.198397 0.072922 0.659051 0.154555
C15   C     C_R   0.297843 0.135255 0.611693 -0.210161
C16   C     C_R   0.397723 0.069200 0.561322 0.073992
C17   C     C_R   0.400124 0.938195 0.562141 0.100871
C18   C     C_R   0.498980 0.871740 0.511439 -0.100030
C19   C     C_R   0.599397 0.934044 0.465411 -0.200561
C20   C     C_R   0.599012 0.061614 0.465499 -0.209133
C21   C     C_R   0.497464 0.129622 0.511100 -0.086973
C22   C     C_R   0.869721 0.336218 0.396709 -0.153894
C23   C     C_R   0.499102 0.263027 0.504132 0.774560
C24   C     C_R   0.948549 0.255815 0.346343 -0.220123
C25   C     C_R   0.092079 0.255193 0.346601 -0.208548
C26   C     C_R   0.157652 0.335076 0.397158 -0.146924
C27   C     C_R   0.081565 0.419113 0.449375 0.207853
C28   C     C_R   0.931996 0.419408 0.449268 0.212369
C29   C     C_R   0.919568 0.576413 0.548453 -0.063804
C30   C     C_R   0.067443 0.576330 0.548453 -0.066214
C31   C     C_R   0.518599 0.498251 0.350109 0.777597
C32   C     C_R   0.471145 0.512513 0.734454 -0.049547
C33   C     C_R   0.589817 0.543665 0.773317 -0.205307
C34   C     C_R   0.581129 0.555426 0.853386 -0.189133
C35   C     C_R   0.454216 0.534270 0.896328 0.165087
C36   C     C_R   0.332925 0.504831 0.857754 0.123085
Cu1   Cu    Cu3+1 0.359340 0.500010 0.500010 0.922702
Cu2   Cu    Cu3+1 0.640660 0.499990 0.499990 0.932492
H1    H     H_    0.689485 0.560401 0.741874 0.153595
H2    H     H_    0.766809 0.503941 0.110301 0.126249
H3    H     H_    0.676285 0.883448 0.427314 0.159165
H4    H     H_    0.310461 0.778918 0.621892 0.150123
H5    H     H_    0.130604 0.894225 0.698391 0.127233
H6    H     H_    0.295783 0.235203 0.615677 0.161399
H7    H     H_    0.675933 0.107369 0.427570 0.147935
H8    H     H_    0.859041 0.639084 0.588190 0.133282
H9    H     H_    0.760578 0.328724 0.391829 0.194426
H10   H     H_    0.897538 0.193339 0.306884 0.147455
H11   H     H_    0.304671 0.474117 0.257329 0.159546
H12   H     H_    0.153433 0.192263 0.307308 0.150926
H13   H     H_    0.268052 0.326594 0.392498 0.198576
H14   H     H_    0.117154 0.638765 0.588290 0.129121
H15   H     H_    0.754738 0.507349 0.252035 0.157494
H16   H     H_    0.644739 0.452691 0.987181 0.153508
H17   H     H_    0.317639 0.467666 0.117451 0.122994
H18   H     H_    0.250669 0.470949 0.746760 0.149896
H19   H     H_    0.358996 0.582999 0.012935 0.155726
H20   H     H_    0.673998 0.581783 0.881824 0.140662
N1    N     N_R   0.852190 0.498790 0.499250 -0.199263
N2    N     N_R   0.148060 0.498710 0.499220 -0.200537
O1    O     O_R   0.381190 0.680360 0.500010 -0.575080
O2    O     O_R   0.618760 0.680340 0.500000 -0.577105
O3    O     O_R   0.367440 0.500030 0.613600 -0.602260
O4    O     O_R   0.605010 0.500010 0.613590 -0.581650
O5    O     O_R   0.381240 0.319660 0.500000 -0.607942
O6    O     O_R   0.618810 0.319640 0.499990 -0.591448
O7    O     O_R   0.394990 0.499990 0.386410 -0.596967
O8    O     O_R   0.632560 0.499970 0.386400 -0.601677
C37   C     C_3   0.082246 0.143094 0.705450 -0.412467
C38   C     C_3   0.098980 0.141450 0.792679 -0.351393
C39   C     C_3   0.970084 0.196039 0.838993 -0.867284
H21   H     H_    0.947248 0.290348 0.819934 0.251981
H22   H     H_    0.877889 0.135887 0.830922 0.258837
H23   H     H_    0.988471 0.202132 0.901538 0.242301
H24   H     H_    0.113800 0.044988 0.810551 0.219621
H25   H     H_    0.192678 0.196312 0.806490 0.218574
H26   H     H_    0.079417 0.241127 0.688227 0.191278
H27   H     H_    0.980855 0.100372 0.692076 0.205936
C40   C     C_3   0.193690 0.478799 0.900843 -0.442862
C41   C     C_3   0.105463 0.597061 0.913614 -0.334666
C42   C     C_3   0.965511 0.570883 0.957668 -0.878338
H28   H     H_    0.906416 0.500067 0.925177 0.248359
H29   H     H_    0.982507 0.536915 0.015835 0.250304
H30   H     H_    0.902439 0.657311 0.965035 0.243832
H31   H     H_    0.162309 0.668300 0.947102 0.215779
H32   H     H_    0.085796 0.634743 0.856685 0.215713
H33   H     H_    0.135962 0.409384 0.866765 0.208200
H34   H     H_    0.208331 0.436478 0.956997 0.199620

loop_
_geom_bond_atom_site_label_1
_geom_bond_atom_site_label_2
_ccdc_geom_bond_type
C16   C21   A    
C37   H26   S    
C35   C36   A    
C1    O2    A    
C40   H33   S    
C42   H28   S    
C31   O7    A    
C1    C18   S    
C41   H31   S    
C23   O6    A    
C5    H15   S    
Cu1   Cu2   S    
C15   H6    S    
C18   C19   A    
C3    C7    A    
C27   N2    A    
C5    C6    A    
C12   O4    A    
C15   C16   A    
C11   H4    S    
C2    C32   A    
C34   C35   A    
C25   H12   S    
C41   H32   S    
Cu1   O3    S    
C3    H17   S    
C10   C31   S    
Cu2   O6    S    
C8    C9    D    
C30   N2    A    
C38   C39   S    
C20   H7    S    
C22   H9    S    
C22   C28   A    
C13   C14   A    
C12   C32   S    
C37   H27   S    
C40   H34   S    
C42   H29   S    
C33   C34   A    
Cu2   O4    S    
C31   O8    A    
C24   H10   S    
C29   N1    A    
C24   C25   A    
C39   H22   S    
C12   O3    A    
C16   C17   A    
C25   C26   A    
Cu2   N1    S    
Cu1   O5    S    
C8    C35   S    
C29   C30   A    
C8    H19   S    
C17   C18   A    
C26   C27   A    
C33   H1    S    
Cu2   O8    S    
C21   C23   S    
C38   H25   S    
C14   C37   S    
C6    H2    S    
C4    C10   A    
C3    C4    A    
C13   H5    S    
C42   H30   S    
C28   N1    A    
C2    C36   A    
C7    C9    S    
C30   H14   S    
C11   C17   A    
C41   C42   S    
C36   C40   S    
C1    O1    A    
C39   H23   S    
Cu1   O1    S    
C6    C7    A    
C4    H11   S    
C29   H8    S    
C32   C33   A    
C23   O5    A    
C19   C20   A    
C39   H21   S    
C2    H18   S    
C26   H13   S    
C11   C13   A    
Cu1   O7    S    
C22   C24   A    
C37   C38   S    
Cu1   N2    S    
C40   C41   S    
C5    C10   A    
C20   C21   A    
C38   H24   S    
C27   C28   A    
C34   H20   S    
C14   C15   A    
C9    H16   S    
C19   H3    S    
Cu2   O2    S    
