data_mof_unit_28825.cif
_audit_creation_date              2012-12-10T20:37:33-0500
_audit_creation_method            fapswitch 2.2
_symmetry_space_group_name_H-M    P1
_symmetry_Int_Tables_number       1
_space_group_crystal_system       triclinic
_cell_length_a                    15.72141
_cell_length_b                    10.744352
_cell_length_c                    9.887972
_cell_angle_alpha                 89.861338
_cell_angle_beta                  89.495585
_cell_angle_gamma                 90.409606
_cell_volume                      1670.12771313

loop_
_atom_site_label
_atom_site_type_symbol
_atom_type_description
_atom_site_fract_x
_atom_site_fract_y
_atom_site_fract_z
_atom_type_partial_charge
C1    C     C_R   0.499571 0.260573 0.499948 0.893229
C2    C     C_R   0.498561 0.129321 0.498403 -0.077567
C3    C     C_R   0.491392 0.064689 0.375327 -0.196533
C4    C     C_R   0.337983 0.499905 0.500484 0.893683
C5    C     C_R   0.491763 0.935556 0.375405 -0.151530
C6    C     C_R   0.499492 0.870749 0.498525 -0.087415
C7    C     C_R   0.506236 0.937864 0.617497 0.060291
C8    C     C_3   0.515754 0.929955 0.768404 -0.121574
C9    C     C_3   0.514458 0.074090 0.766499 -0.548636
C10   C     C_R   0.438101 0.437529 0.072273 0.177730
C11   C     C_R   0.565853 0.551509 0.069036 0.001363
C12   C     C_3   0.082969 0.494303 0.498021 0.114209
C13   C     C_R   0.565977 0.549114 0.925613 -0.083348
C14   C     C_R   0.438043 0.437781 0.929944 0.204382
C15   C     C_3   0.344919 0.462046 0.925356 -0.490093
C16   C     C_R   0.500017 0.739453 0.499816 0.929839
C17   C     C_3   0.344930 0.462087 0.078862 -0.456292
C18   C     C_R   0.662002 0.500425 0.499480 0.938266
C19   C     C_3   0.971352 0.377600 0.508529 -0.057117
C20   C     C_3   0.028140 0.427669 0.393264 -0.054718
C21   C     C_1   0.249096 0.498333 0.501278 -0.138360
C22   C     C_1   0.750846 0.499309 0.498248 -0.110602
C23   C     C_3   0.971444 0.561667 0.603119 -0.145363
C24   C     C_3   0.027250 0.443691 0.614465 -0.218276
C25   C     C_2   0.058582 0.352978 0.274666 0.939399
C26   C     C_2   0.600468 0.878317 0.812463 0.938071
C27   C     C_2   0.637343 0.616295 0.133782 0.993385
C28   C     C_2   0.940303 0.245776 0.521603 0.950070
C29   C     C_2   0.439338 0.871485 0.839237 0.921167
C30   C     C_3   0.916905 0.494481 0.497498 0.116989
C31   C     C_3   0.028765 0.612154 0.486890 -0.150675
C32   C     C_3   0.972605 0.545040 0.381034 -0.220415
C33   C     C_1   0.173821 0.496517 0.500391 0.025403
C34   C     C_1   0.826092 0.497454 0.497627 0.032225
C35   C     C_R   0.505207 0.062253 0.617091 0.101139
H1    H     H_    0.457330 0.116459 0.814382 0.218203
H2    H     H_    0.946228 0.616906 0.689131 0.163533
H3    H     H_    0.051222 0.402143 0.709606 0.173000
H4    H     H_    0.485516 0.112952 0.279567 0.183482
H5    H     H_    0.485942 0.887446 0.279714 0.212980
H6    H     H_    0.157862 0.284464 0.169018 0.343127
H7    H     H_    0.707291 0.785362 0.762513 0.341730
H8    H     H_    0.764596 0.633012 0.151706 0.344665
H9    H     H_    0.840384 0.127401 0.532344 0.356563
H10   H     H_    0.395114 0.757591 0.986970 0.332432
H11   H     H_    0.575719 0.119686 0.793580 0.218132
H12   H     H_    0.617530 0.592350 0.869058 0.174389
H13   H     H_    0.329946 0.554372 0.880799 0.228899
H14   H     H_    0.309004 0.382382 0.881853 0.209979
H15   H     H_    0.329973 0.554506 0.123155 0.221312
H16   H     H_    0.308995 0.382541 0.123843 0.227201
H17   H     H_    0.948575 0.586133 0.285693 0.169606
H18   H     H_    0.054232 0.708516 0.478266 0.169176
N1    N     N_R   0.499430 0.499140 0.142800 -0.151935
N2    N     N_R   0.499430 0.499180 0.857150 -0.116323
O1    O     O_R   0.500010 0.316790 0.614690 -0.617276
O2    O     O_R   0.145610 0.336723 0.252072 -0.810835
O3    O     O_2   0.623473 0.892433 0.929296 -0.582623
O4    O     O_R   0.652614 0.815474 0.720260 -0.808808
O5    O     O_2   0.624365 0.704557 0.208418 -0.571386
O6    O     O_R   0.720616 0.580996 0.102571 -0.813783
O7    O     O_2   0.991775 0.161573 0.530943 -0.606884
O8    O     O_R   0.853124 0.219675 0.523076 -0.791173
O9    O     O_2   0.367334 0.896381 0.802252 -0.624654
O10   O     O_R   0.450868 0.789829 0.947783 -0.799252
O11   O     O_R   0.500000 0.316760 0.385350 -0.628627
O12   O     O_R   0.376780 0.500010 0.614650 -0.622279
O13   O     O_R   0.376770 0.499970 0.385310 -0.616979
O14   O     O_R   0.500000 0.683240 0.614650 -0.613042
O15   O     O_R   0.499990 0.683210 0.385310 -0.592111
O16   O     O_R   0.623230 0.500030 0.614690 -0.613347
O17   O     O_R   0.623220 0.499990 0.385350 -0.609428
O18   O     O_2   0.006729 0.306502 0.198148 -0.598805
Zn1   Zn    Zn3+2 0.500010 0.500020 0.653130 0.982920
Zn2   Zn    Zn3+2 0.499990 0.499980 0.346870 0.995888

loop_
_geom_bond_atom_site_label_1
_geom_bond_atom_site_label_2
_ccdc_geom_bond_type
C2    C35   A    
C8    C26   S    
C19   C20   S    
C17   H16   S    
C7    C8    S    
O13   Zn2   S    
C8    C29   S    
C1    O1    A    
C27   O5    D    
C5    C6    A    
C21   C33   T    
C20   C25   S    
C10   C17   S    
C1    C2    S    
C32   H17   S    
C27   O6    S    
N2    Zn1   S    
C8    C9    S    
C9    H1    S    
C24   H3    S    
C23   C24   S    
C26   O4    S    
C14   N2    A    
C29   O9    D    
C3    H4    S    
C9    H11   S    
C25   O2    S    
C15   H13   S    
O17   Zn2   S    
H9    O8    S    
C18   O17   A    
C22   C34   T    
O1    Zn1   S    
C30   C34   S    
C23   C30   S    
C16   O15   A    
C10   C14   A    
C13   H12   S    
C23   H2    S    
C23   C31   S    
C17   H15   S    
C4    O12   A    
C31   C32   S    
C11   C27   S    
C12   C20   S    
C1    O11   A    
O14   Zn1   S    
O12   Zn1   S    
C31   H18   S    
C19   C28   S    
C26   O3    D    
C11   N1    A    
C29   O10   S    
C12   C31   S    
H10   O10   S    
H8    O6    S    
C4    O13   A    
C20   C32   S    
C18   O16   A    
C15   C17   S    
C18   C22   S    
C7    C35   A    
C16   O14   A    
C3    C5    A    
H7    O4    S    
O16   Zn1   S    
C6    C7    A    
C12   C24   S    
C19   C24   S    
H6    O2    S    
C30   C32   S    
C4    C21   S    
C11   C13   A    
O11   Zn2   S    
C2    C3    A    
C25   O18   D    
C15   H14   S    
C10   N1    A    
C6    C16   S    
N1    Zn2   S    
C28   O8    S    
C5    H5    S    
O15   Zn2   S    
C9    C35   S    
C14   C15   S    
C12   C33   S    
C19   C30   S    
C13   N2    A    
C28   O7    D    
