data_mof_unit_12562.cif
_audit_creation_date              2012-12-11T17:10:39-0500
_audit_creation_method            fapswitch 2.2
_symmetry_space_group_name_H-M    P1
_symmetry_Int_Tables_number       1
_space_group_crystal_system       triclinic
_cell_length_a                    14.853799
_cell_length_b                    15.006984
_cell_length_c                    14.883083
_cell_angle_alpha                 109.842459
_cell_angle_beta                  109.815659
_cell_angle_gamma                 109.220728
_cell_volume                      2539.04966668

loop_
_atom_site_label
_atom_site_type_symbol
_atom_type_description
_atom_site_fract_x
_atom_site_fract_y
_atom_site_fract_z
_atom_type_partial_charge
C1    C     C_R   0.199800 0.290633 0.193482 -0.124450
C2    C     C_R   0.565526 0.563244 0.868036 0.082361
C3    C     C_R   0.450249 0.175548 0.498109 0.145146
C4    C     C_R   0.168476 0.457068 0.494156 0.039792
C5    C     C_R   0.400971 0.704329 0.406606 0.433360
C6    C     C_R   0.797070 0.489902 0.592132 -0.150998
C7    C     C_R   0.568591 0.474798 0.254570 -0.141725
C8    C     C_R   0.723199 0.814138 0.748183 -0.110677
C9    C     C_R   0.815265 0.722244 0.747887 -0.124780
C10   C     C_R   0.474777 0.564611 0.250359 -0.072870
C11   C     C_R   0.497306 0.800821 0.590657 -0.197311
C12   C     C_R   0.596026 0.503663 0.803834 -0.115751
C13   C     C_R   0.703203 0.396115 0.409256 -0.104083
C14   C     C_R   0.434642 0.799465 0.497185 0.018688
C15   C     C_R   0.793447 0.418901 0.500939 0.084616
C16   C     C_R   0.552475 0.548756 0.225244 0.052264
C17   C     C_R   0.826315 0.824740 0.773287 0.056640
C18   C     C_R   0.928431 0.409268 0.154757 -0.073949
C19   C     C_R   0.955403 0.426217 0.260943 -0.139395
C20   C     C_R   0.941781 0.338845 0.280744 0.076076
C21   C     C_R   0.900009 0.234287 0.192919 -0.156456
C22   C     C_R   0.873324 0.217789 0.086840 -0.112542
C23   C     C_R   0.430597 0.187282 0.406630 -0.057025
C24   C     C_R   0.886687 0.305011 0.067654 -0.107233
C25   C     C_R   0.862399 0.328462 0.395429 -0.165320
C26   C     C_R   0.869604 0.376449 0.497704 0.082767
C27   C     C_R   0.966003 0.410797 0.594072 0.022336
C28   C     C_R   0.061619 0.426568 0.587993 -0.213778
C29   C     C_R   0.061299 0.410462 0.489017 0.067416
C30   C     C_R   0.957716 0.354295 0.389529 0.004384
C31   C     C_R   0.056605 0.518028 0.801861 -0.191062
C32   C     C_R   0.058192 0.530937 0.900092 -0.070066
C33   C     C_R   0.971693 0.452759 0.896665 -0.095850
C34   C     C_R   0.273498 0.532108 0.589564 -0.120014
C35   C     C_R   0.883341 0.361476 0.794995 -0.142937
C36   C     C_R   0.881407 0.348187 0.696588 -0.098600
C37   C     C_R   0.967916 0.426479 0.698940 0.098663
C38   C     C_R   0.660328 0.554284 0.035286 0.139487
C39   C     C_R   0.605799 0.599428 0.985377 0.029211
C40   C     C_R   0.576651 0.667280 0.046573 -0.191719
C41   C     C_R   0.575218 0.664865 0.139299 -0.152928
C42   C     C_R   0.601630 0.593597 0.169549 0.043432
C43   C     C_R   0.657767 0.550791 0.125851 0.159327
C44   C     C_3   0.648118 0.440048 0.085905 -0.503102
C45   C     C_R   0.528861 0.277374 0.592055 -0.050414
C46   C     C_3   0.651837 0.444553 0.987575 -0.478799
C47   C     C_R   0.410016 0.899369 0.402782 0.073011
C48   C     C_R   0.413871 0.884127 0.490657 0.082943
C49   C     C_R   0.404936 0.955705 0.572523 -0.279485
C50   C     C_R   0.406775 0.049750 0.572479 0.462240
C51   C     C_R   0.419051 0.070787 0.490410 -0.036662
C52   C     C_R   0.411463 0.989703 0.401879 -0.119694
C53   C     C_3   0.472784 0.991144 0.339263 0.322824
C54   C     C_3   0.472066 0.889952 0.341724 -0.012321
C55   C     C_R   0.022888 0.121093 0.961937 0.117212
C56   C     C_R   0.184330 0.436982 0.404573 -0.076317
C57   C     C_R   0.119448 0.118493 0.012204 0.056445
C58   C     C_R   0.125316 0.025061 0.959017 -0.173750
C59   C     C_R   0.030576 0.930266 0.867269 -0.175602
C60   C     C_R   0.928981 0.927748 0.828755 0.065194
C61   C     C_R   0.927374 0.025622 0.870717 0.087936
C62   C     C_3   0.906017 0.083482 0.808684 -0.430989
C63   C     C_3   0.010234 0.186007 0.906279 -0.467900
C64   C     C_R   0.503094 0.593251 0.804571 -0.125539
C65   C     C_R   0.291945 0.200589 0.194785 -0.140149
C66   C     C_R   0.199000 0.198439 0.129328 0.052408
H1    H     H_    0.147756 0.322092 0.163331 0.129897
H2    H     H_    0.849231 0.517172 0.677813 0.112864
H3    H     H_    0.627107 0.447935 0.252633 0.110342
H4    H     H_    0.702351 0.877964 0.758231 0.106761
H5    H     H_    0.878615 0.700144 0.756905 0.097605
H6    H     H_    0.444485 0.618596 0.240052 0.147288
H7    H     H_    0.525310 0.857454 0.675383 0.119260
H8    H     H_    0.665044 0.333029 0.324311 0.098383
H9    H     H_    0.863701 0.291628 0.985071 0.099315
H10   H     H_    0.938189 0.476554 0.139628 0.118551
H11   H     H_    0.985089 0.506707 0.327317 0.127138
H12   H     H_    0.660299 0.484343 0.832125 0.095460
H13   H     H_    0.886842 0.165695 0.206429 0.132746
H14   H     H_    0.840683 0.137060 0.019134 0.116804
H15   H     H_    0.785234 0.288496 0.319025 0.131106
H16   H     H_    0.137127 0.455951 0.661846 0.129999
H17   H     H_    0.123890 0.579997 0.806133 0.112456
H18   H     H_    0.126522 0.601681 0.978953 0.133642
H19   H     H_    0.973210 0.462953 0.972803 0.116911
H20   H     H_    0.816469 0.300804 0.792410 0.126714
H21   H     H_    0.812898 0.276580 0.618682 0.192483
H22   H     H_    0.542243 0.711279 0.016263 0.129496
H23   H     H_    0.376030 0.123713 0.320575 0.091739
H24   H     H_    0.539643 0.707049 0.176629 0.148215
H25   H     H_    0.722009 0.442173 0.141738 0.194966
H26   H     H_    0.566986 0.373865 0.061147 0.213325
H27   H     H_    0.728286 0.450094 0.987366 0.183215
H28   H     H_    0.573201 0.381074 0.908060 0.242737
H29   H     H_    0.402701 0.941954 0.638818 0.167300
H30   H     H_    0.420566 0.972729 0.254209 0.036833
H31   H     H_    0.418827 0.815715 0.257640 0.112682
H32   H     H_    0.293802 0.566691 0.674989 0.096423
H33   H     H_    0.199589 0.020878 0.993332 0.123080
H34   H     H_    0.035624 0.856955 0.834522 0.122969
H35   H     H_    0.911197 0.052912 0.732287 0.224640
H36   H     H_    0.829931 0.088152 0.796413 0.189046
H37   H     H_    0.077074 0.214569 0.887455 0.214318
H38   H     H_    0.995483 0.251147 0.949696 0.191786
H39   H     H_    0.567177 0.297441 0.677443 0.132767
H40   H     H_    0.126173 0.379747 0.318337 0.122705
H41   H     H_    0.479260 0.653084 0.833522 0.085875
H42   H     H_    0.326228 0.150783 0.167610 0.095396
N1    N     N_R   0.291070 0.347930 0.293870 -0.043591
N2    N     N_R   0.708930 0.502750 0.556810 -0.041604
N3    N     N_R   0.502760 0.445970 0.293860 -0.046267
N4    N     N_R   0.652110 0.708890 0.706130 -0.043986
N5    N     N_R   0.708930 0.652070 0.706130 -0.044838
N6    N     N_R   0.445950 0.502780 0.293850 -0.036014
N7    N     N_R   0.502760 0.708900 0.556790 -0.058882
N8    N     N_R   0.652110 0.445950 0.443190 -0.044553
N9    N     N_R   0.554050 0.497220 0.706150 -0.043958
N10   N     N_R   0.497240 0.291100 0.443210 -0.040347
N11   N     N_R   0.347890 0.554050 0.556810 -0.046652
N12   N     N_R   0.554050 0.347900 0.556830 -0.055184
N13   N     N_R   0.291070 0.497250 0.443190 -0.039140
N14   N     N_R   0.497240 0.554030 0.706140 -0.041203
N15   N     N_R   0.347890 0.291110 0.293870 -0.047383
N16   N     N_R   0.445950 0.652100 0.443170 -0.074651
Ni1   Ni    Ni4+2 0.369690 0.500010 0.369700 0.275333
Ni2   Ni    Ni4+2 0.630310 0.499990 0.630300 0.217385
Ni3   Ni    Ni4+2 0.500000 0.369720 0.369720 0.228103
Ni4   Ni    Ni4+2 0.500000 0.630280 0.630280 0.210705
Cl1   Cl    Cl    0.399522 0.140337 0.678341 -0.702454
Cl2   Cl    Cl    0.606872 0.110866 0.413003 -0.667830
I1    I     I_    0.631135 0.906115 0.433049 -0.382205
Cl3   Cl    Cl    0.280750 0.637207 0.276388 -0.759959

loop_
_geom_bond_atom_site_label_1
_geom_bond_atom_site_label_2
_ccdc_geom_bond_type
N2    N8    A    
C41   C42   A    
C3    C23   A    
C35   C36   A    
C57   C66   S    
C43   C44   S    
C2    C12   A    
C23   N10   A    
C20   C30   S    
C53   C54   S    
C54   I1    S    
C5    N16   A    
C28   C29   A    
C26   C27   A    
C62   C63   S    
C18   C24   A    
C36   C37   A    
C8    N4    A    
C38   C39   A    
C35   H20   S    
N12   Ni2   S    
C34   N11   A    
C31   H17   S    
C18   C19   A    
C19   H11   S    
C33   H19   S    
C1    N1    A    
C6    C15   A    
C2    C39   S    
C5    Cl3   S    
C31   C32   A    
C44   C46   S    
N8    Ni3   S    
C12   H12   S    
C23   H23   S    
C54   H31   S    
C11   N7    A    
N9    Ni2   S    
C65   H42   S    
C4    C29   S    
C44   H26   S    
C62   H35   S    
N11   Ni4   S    
C6    H2    S    
C41   H24   S    
C59   C60   A    
C21   C22   A    
C4    C56   A    
C53   H30   S    
C25   H15   S    
C59   H34   S    
C6    N2    A    
N4    N5    A    
C45   H39   S    
C2    C64   A    
C1    C66   A    
N11   N13   A    
C36   H21   S    
C32   H18   S    
C4    C34   A    
C38   C46   S    
C28   H16   S    
C51   C52   A    
C63   H37   S    
C11   H7    S    
C39   C40   A    
N6    Ni1   S    
C3    C51   S    
N1    N15   A    
C15   C26   S    
C14   C48   S    
N5    Ni2   S    
C58   C59   A    
C3    C45   A    
N7    Ni4   S    
C31   C37   A    
C55   C63   S    
C60   C61   A    
N9    N14   A    
N13   Ni1   S    
C29   C30   A    
C50   Cl1   S    
N15   Ni3   S    
C47   C48   A    
C46   H28   S    
C21   H13   S    
C50   C51   A    
C11   C14   A    
C49   H29   S    
C56   H40   S    
C5    C14   A    
C44   H25   S    
N2    Ni2   S    
C47   C54   S    
C45   N12   A    
C9    C17   A    
C48   C49   A    
C49   C50   A    
C13   C15   A    
N3    Ni3   S    
C22   C24   A    
N10   Ni3   S    
C16   C42   S    
C52   C53   S    
C64   H41   S    
N1    Ni1   S    
C25   C30   A    
C40   C41   A    
C18   H10   S    
N7    N16   A    
C7    C16   A    
C58   H33   S    
C9    H5    S    
C34   H32   S    
C63   H38   S    
C10   N6    A    
C7    H3    S    
C24   H9    S    
C47   C52   A    
C1    H1    S    
C8    H4    S    
C8    C17   A    
C9    N5    A    
C32   C33   A    
C40   H22   S    
C19   C20   A    
C55   C57   A    
C25   C26   A    
C22   H14   S    
C38   C43   A    
C10   C16   A    
C56   N13   A    
C57   C58   A    
C46   H27   S    
C27   C37   S    
C64   N14   A    
C55   C61   A    
C33   C35   A    
C7    N3    A    
N3    N6    A    
C65   N15   A    
N14   Ni4   S    
C61   C62   S    
N10   N12   A    
N4    Ni4   S    
C13   N8    A    
C17   C60   S    
C12   N9    A    
C20   C21   A    
C65   C66   A    
C42   C43   A    
C27   C28   A    
N16   Ni1   S    
C53   Cl2   S    
C13   H8    S    
C62   H36   S    
C10   H6    S    
