data_mof_unit_50109.cif
_audit_creation_date              2012-12-11T17:07:25-0500
_audit_creation_method            fapswitch 2.2
_symmetry_space_group_name_H-M    P1
_symmetry_Int_Tables_number       1
_space_group_crystal_system       triclinic
_cell_length_a                    6.949182
_cell_length_b                    14.490597
_cell_length_c                    16.101202
_cell_angle_alpha                 89.944688
_cell_angle_beta                  90.126546
_cell_angle_gamma                 90.081033
_cell_volume                      1621.34922506

loop_
_atom_site_label
_atom_site_type_symbol
_atom_type_description
_atom_site_fract_x
_atom_site_fract_y
_atom_site_fract_z
_atom_type_partial_charge
O1    O     O_R   0.505720 0.583900 0.413310 -0.538274
O2    O     O_R   0.175940 0.594920 0.586080 -0.543694
O3    O     O_R   0.005640 0.416100 0.586690 -0.534534
C1    C     C_R   0.345196 0.616676 0.614974 0.712085
O4    O     O_R   0.176000 0.594930 0.413930 -0.544367
O5    O     O_R   0.005700 0.416110 0.413310 -0.541562
C2    C     C_R   0.344740 0.616941 0.385135 0.690632
O6    O     O_R   0.505660 0.583890 0.586690 -0.538435
O7    O     O_3   0.339200 0.441330 0.500000 -0.365537
V1    V     V_3+5 0.064350 0.510880 0.500000 1.397585
O8    O     O_R   0.675980 0.405080 0.413920 -0.539183
C3    C     C_R   0.844880 0.383170 0.385009 0.687915
O9    O     O_R   0.675920 0.405070 0.586070 -0.536615
C4    C     C_R   0.844818 0.382978 0.614485 0.700075
V2    V     V_3+5 0.564340 0.489120 0.500000 1.412475
O10   O     O_3   0.839360 0.558670 0.500000 -0.373297
H1    H     H_    0.112888 0.090452 0.513729 0.111753
C5    C     C_R   0.717343 0.428499 0.780462 -0.142565
C6    C     C_R   0.656263 0.452946 0.859793 -0.097172
C7    C     C_R   0.667992 0.389735 0.924565 -0.116541
C8    C     C_R   0.740997 0.301605 0.910533 -0.138324
C9    C     C_R   0.802960 0.274462 0.830502 0.073436
C10   C     C_R   0.790753 0.339239 0.764047 0.065452
C11   C     C_R   0.879605 0.185135 0.816455 -0.185635
C12   C     C_R   0.943789 0.160584 0.735871 0.062072
C13   C     C_R   0.931419 0.225326 0.669392 0.073443
C14   C     C_R   0.854943 0.314701 0.683445 -0.182557
C15   C     C_R   0.017480 0.071371 0.719520 -0.135131
C16   C     C_R   0.078391 0.046865 0.640192 -0.072811
C17   C     C_R   0.066325 0.110000 0.575367 -0.119244
C18   C     C_R   0.993206 0.198126 0.589358 -0.132894
H2    H     H_    0.707430 0.480658 0.732536 0.111836
H3    H     H_    0.600528 0.521530 0.871120 0.136618
H4    H     H_    0.621353 0.409245 0.986202 0.116800
H5    H     H_    0.749616 0.255501 0.963293 0.100845
H6    H     H_    0.027723 0.019295 0.767500 0.109104
H7    H     H_    0.134317 0.978309 0.628921 0.134515
H8    H     H_    0.984409 0.244197 0.536580 0.101797
C19   C     C_R   0.728115 0.182171 0.241457 0.099953
C20   C     C_R   0.882268 0.182517 0.185454 -0.111239
C21   C     C_R   0.033430 0.245032 0.200978 -0.177535
H9    H     H_    0.155666 0.247780 0.159708 0.134174
C22   C     C_R   0.021982 0.309203 0.266492 -0.176297
H10   H     H_    0.136445 0.359168 0.273892 0.128407
C23   C     C_R   0.858694 0.313043 0.318256 -0.112965
C24   C     C_R   0.716374 0.245895 0.306081 0.104108
C25   C     C_3   0.505087 0.257549 0.294403 -0.406197
C26   C     C_3   0.517755 0.187752 0.224289 -0.400242
H11   H     H_    0.467892 0.328183 0.272818 0.166452
H12   H     H_    0.421647 0.232138 0.348648 0.176200
H13   H     H_    0.487154 0.217655 0.162049 0.169968
H14   H     H_    0.442360 0.121813 0.238136 0.165918
C27   C     C_R   0.525505 0.729134 0.704737 0.041614
C28   C     C_R   0.356822 0.680137 0.686837 -0.128774
C29   C     C_R   0.205647 0.686413 0.744719 -0.203671
H15   H     H_    0.078849 0.643638 0.737154 0.150214
C30   C     C_R   0.216174 0.747527 0.813010 0.122898
C31   C     C_R   0.377812 0.807278 0.822731 -0.125946
C32   C     C_R   0.534173 0.791866 0.769687 0.074472
C33   C     C_3   0.658635 0.856864 0.721373 0.181903
C34   C     C_3   0.649295 0.787688 0.650199 -0.372294
H16   H     H_    0.805646 0.866411 0.747741 0.103154
H17   H     H_    0.790257 0.754475 0.637381 0.138800
H18   H     H_    0.571396 0.813059 0.594234 0.179533
C35   C     C_R   0.506113 0.681825 0.258110 0.099933
C36   C     C_R   0.352627 0.682339 0.314433 -0.111892
C37   C     C_R   0.201680 0.744864 0.299114 -0.178335
H19   H     H_    0.079780 0.747595 0.340564 0.132277
C38   C     C_R   0.213023 0.809101 0.233587 -0.172574
H20   H     H_    0.098918 0.859149 0.226358 0.125339
C39   C     C_R   0.375929 0.812912 0.181620 -0.107320
C40   C     C_R   0.517726 0.745615 0.193467 0.118918
C41   C     C_3   0.729346 0.756917 0.204499 -0.403302
C42   C     C_3   0.716828 0.687011 0.274677 -0.405174
H21   H     H_    0.767773 0.827455 0.225939 0.162577
H22   H     H_    0.811587 0.731475 0.150008 0.196012
H23   H     H_    0.748783 0.716740 0.336814 0.171056
H24   H     H_    0.791127 0.620969 0.260631 0.171877
O11   O     O_R   0.229140 0.916090 0.913340 -0.523967
O12   O     O_R   0.558860 0.905090 0.086080 -0.538579
O13   O     O_R   0.729100 0.083920 0.086690 -0.542004
C43   C     C_R   0.389869 0.883137 0.114957 0.703315
O14   O     O_R   0.558860 0.905090 0.913930 -0.537106
O15   O     O_R   0.729100 0.083920 0.913310 -0.541219
C44   C     C_R   0.389043 0.880610 0.887100 0.741251
O16   O     O_R   0.229140 0.916080 0.086720 -0.535165
O17   O     O_3   0.395570 0.058660 0.000020 -0.375261
V3    V     V_3+5 0.670450 0.989140 0.000000 1.438802
O18   O     O_R   0.058810 0.094980 0.913910 -0.537263
C45   C     C_R   0.889891 0.116926 0.885426 0.688903
O19   O     O_R   0.058810 0.094980 0.086060 -0.546641
C46   C     C_R   0.890164 0.117062 0.114811 0.675851
V4    V     V_3+5 0.170450 0.010950 0.999970 1.438982
O20   O     O_3   0.895460 0.941370 0.999990 -0.347262
I1    I     I_    0.985790 0.738893 0.899184 -0.455702
O21   O     O_3   0.563187 0.939249 0.701639 -0.636535
H25   H     H_    0.590994 0.982435 0.747922 0.287537

loop_
_geom_bond_atom_site_label_1
_geom_bond_atom_site_label_2
_ccdc_geom_bond_type
C29   H15   S    
V4    O20   S    
C21   C22   A    
C41   C42   S    
C6    C7    A    
C1    O6    A    
C27   C32   A    
C25   H11   S    
C23   C24   A    
C12   C15   A    
C13   C14   A    
C15   C16   A    
O11   V4    S    
O5    C3    A    
C17   C18   A    
V2    O10   S    
C33   H16   S    
C5    C6    A    
C21   H9    S    
C34   H17   S    
C24   C25   S    
O13   C46   A    
C27   C34   S    
C26   H13   S    
C42   H23   S    
O1    V2    S    
C10   C14   A    
C4    C14   S    
O7    V1    S    
C39   C43   S    
C7    H4    S    
C36   C37   A    
C32   C33   S    
C8    C9    A    
H1    C17   S    
C41   H21   S    
O15   C45   A    
C25   H12   S    
V3    O20   S    
C38   C39   A    
C5    C10   A    
C11   C12   A    
O12   C43   A    
C6    H3    S    
O19   C46   A    
O4    C2    A    
C40   C41   S    
C12   C13   A    
C43   O16   A    
C35   C42   S    
C37   H19   S    
C33   C34   S    
C37   C38   A    
C34   H18   S    
O2    C1    A    
C22   H10   S    
C16   C17   A    
O16   V4    S    
O19   V4    S    
C25   C26   S    
O21   H25   S    
C20   C46   S    
C22   C23   A    
O3    C4    A    
C19   C24   A    
C33   O21   S    
C20   C21   A    
O14   C44   A    
O6    V2    S    
O8    V2    S    
O9    V2    S    
C42   H24   S    
C41   H22   S    
C9    C11   A    
C5    H2    S    
O2    V1    S    
C31   C44   S    
O11   C44   A    
C28   C29   A    
C1    C28   S    
O1    C2    A    
C13   C18   A    
O15   V3    S    
C3    C23   S    
C11   C45   S    
O5    V1    S    
O8    C3    A    
C27   C28   A    
C8    H5    S    
C35   C40   A    
C18   H8    S    
C29   C30   A    
C31   C32   A    
O4    V1    S    
O12   V3    S    
O3    V1    S    
V1    O10   S    
C2    C36   S    
C30   C31   A    
O17   V4    S    
O14   V3    S    
O18   V4    S    
C38   H20   S    
O13   V3    S    
C19   C20   A    
C26   H14   S    
C39   C40   A    
C7    C8    A    
C15   H6    S    
O17   V3    S    
C35   C36   A    
C30   I1    S    
C16   H7    S    
C9    C10   A    
O18   C45   A    
O9    C4    A    
O7    V2    S    
C19   C26   S    
