data_mof_unit_30577.cif
_audit_creation_date              2013-03-05T16:31:29-0500
_audit_creation_method            fapswitch 2.2
_symmetry_space_group_name_H-M    P1
_symmetry_Int_Tables_number       1
_space_group_crystal_system       triclinic
_cell_length_a                    15.078245
_cell_length_b                    10.83882
_cell_length_c                    9.546567
_cell_angle_alpha                 90.53104
_cell_angle_beta                  89.661634
_cell_angle_gamma                 90.33787
_cell_volume                      1560.07826007

loop_
_atom_site_label
_atom_site_type_symbol
_atom_site_description
_atom_site_fract_x
_atom_site_fract_y
_atom_site_fract_z
_atom_type_partial_charge
O1    O     O_R   0.500000 0.319640 0.618810 -0.581499
O2    O     O_R   0.500010 0.319680 0.381230 -0.582870
C1    C     C_R   0.497848 0.262416 0.499378 0.801528
O3    O     O_R   0.370250 0.499950 0.618800 -0.590573
O4    O     O_R   0.370260 0.499990 0.381220 -0.594794
C2    C     C_R   0.328682 0.499928 0.500365 0.808565
Cu1   Cu    Cu3+1 0.500000 0.499980 0.640670 0.944454
Cu2   Cu    Cu3+1 0.500000 0.500020 0.359330 0.945442
O5    O     O_R   0.499990 0.680320 0.618770 -0.576974
O6    O     O_R   0.500000 0.680360 0.381190 -0.585086
O7    O     O_R   0.629740 0.500010 0.618780 -0.585846
O8    O     O_R   0.629750 0.500050 0.381200 -0.584771
C3    C     C_R   0.498496 0.737836 0.500331 0.807164
C4    C     C_R   0.671405 0.500164 0.499796 0.815771
C5    C     C_R   0.815132 0.537135 0.379539 -0.180799
C6    C     C_R   0.768356 0.501975 0.500027 -0.091376
C7    C     C_R   0.814173 0.469661 0.621302 -0.224071
C8    C     C_R   0.906519 0.469928 0.621926 0.122165
C9    C     C_R   0.953655 0.506264 0.500586 0.016326
C10   C     C_R   0.907878 0.543352 0.379095 -0.014305
C11   C     C_R   0.952405 0.433818 0.741880 -0.133654
C12   C     C_R   0.044800 0.433740 0.742452 -0.178547
C13   C     C_R   0.092315 0.468701 0.622563 0.112710
C14   C     C_R   0.046675 0.504768 0.500936 0.066228
C15   C     C_R   0.094131 0.538789 0.379643 0.042750
C16   C     C_R   0.048897 0.577128 0.260394 -0.274213
C17   C     C_R   0.956197 0.582690 0.259659 0.337955
C18   C     C_R   0.184798 0.467893 0.622003 -0.235629
C19   C     C_R   0.231933 0.501008 0.500916 -0.067840
C20   C     C_R   0.186494 0.535901 0.380092 -0.215428
H1    H     H_    0.778704 0.558566 0.286227 0.180896
H2    H     H_    0.778002 0.442038 0.714539 0.151625
H3    H     H_    0.916766 0.405429 0.835197 0.166453
H4    H     H_    0.079075 0.405820 0.836356 0.147934
H5    H     H_    0.219986 0.440205 0.715228 0.142053
H6    H     H_    0.223035 0.562570 0.286851 0.151612
H7    H     H_    0.085919 0.606394 0.168701 0.181138
C21   C     C_R   0.481185 0.065399 0.623530 0.122977
C22   C     C_R   0.488200 0.129507 0.498020 -0.098234
C23   C     C_R   0.482740 0.063212 0.371123 -0.208568
H8    H     H_    0.482722 0.110063 0.271400 0.166785
C24   C     C_R   0.483372 0.934511 0.371942 -0.205061
H9    H     H_    0.483500 0.885524 0.272556 0.162418
C25   C     C_R   0.489553 0.871115 0.499639 -0.096823
C26   C     C_R   0.481904 0.938362 0.624571 0.129953
C27   C     C_3   0.537056 0.936298 0.753984 -0.480336
C28   C     C_3   0.535675 0.076080 0.752936 -0.443608
H10   H     H_    0.500073 0.897194 0.844495 0.197145
H11   H     H_    0.604329 0.898010 0.734554 0.205353
H12   H     H_    0.497721 0.116821 0.842027 0.197800
H13   H     H_    0.601961 0.118355 0.733501 0.204153
C29   C     C_R   0.574818 0.531087 0.073251 0.246113
N1    N     N_R   0.500570 0.500930 0.147930 -0.186307
C30   C     C_R   0.429079 0.457039 0.074506 -0.084463
H14   H     H_    0.371152 0.423527 0.129791 0.142582
C31   C     C_R   0.428987 0.457325 0.925790 -0.077612
H15   H     H_    0.370985 0.424206 0.870787 0.137242
N2    N     N_R   0.500570 0.500890 0.852020 -0.185261
C32   C     C_R   0.575250 0.529335 0.925859 0.245934
C33   C     C_3   0.625244 0.647725 0.919202 -0.480672
C34   C     C_3   0.622791 0.651659 0.077938 -0.461596
H16   H     H_    0.693081 0.635442 0.875171 0.220111
H17   H     H_    0.585950 0.721231 0.870698 0.209363
H18   H     H_    0.689440 0.644182 0.124693 0.231860
H19   H     H_    0.581367 0.727679 0.121170 0.206001
N3    N     N_R   0.912949 0.633151 0.139509 0.107644
O9    O     O_R   0.856258 0.722240 0.155887 -0.383194
O10   O     O_R   0.943620 0.609680 0.014483 -0.386193

loop_
_geom_bond_atom_site_label_1
_geom_bond_atom_site_label_2
_geom_bond_distance
_ccdc_geom_bond_type
Cu2   N1    2.018227 S    
O1    C1    1.293376 A    
C34   H18   1.105734 S    
N3    O10   1.300927 A    
C13   C14   1.412659 A    
C16   H7    1.084330 S    
C5    H1    1.077174 S    
C19   C20   1.401216 A    
C10   C17   1.417111 A    
C6    C7    1.400058 A    
O4    Cu2   1.966154 S    
C8    C11   1.401469 A    
Cu1   N2    2.017668 S    
C9    C10   1.415842 A    
C7    C8    1.392445 A    
C20   H6    1.084692 S    
Cu2   O8    1.968735 S    
C23   C24   1.395145 A    
O2    C1    1.292591 A    
N2    C32   1.364248 A    
C14   C15   1.408489 A    
C1    C22   1.446988 S    
C32   C33   1.486075 S    
C17   N3    1.436909 S    
C27   C28   1.515464 S    
N1    C30   1.369797 A    
C29   N1    1.363463 A    
Cu1   O7    1.966151 S    
C27   H11   1.112140 S    
C18   C19   1.401845 A    
C16   C17   1.399469 A    
O4    C2    1.295512 A    
C24   C25   1.408759 A    
C33   H17   1.102665 S    
O3    C2    1.295980 A    
C23   H8    1.083130 S    
C29   C32   1.407019 A    
C31   N2    1.369338 A    
C9    C14   1.402784 A    
C28   H12   1.111824 S    
C30   C31   1.419774 A    
C29   C34   1.490391 S    
O3    Cu1   1.968736 S    
C3    C25   1.451741 S    
C5    C10   1.399656 A    
C12   H4    1.083812 S    
O7    C4    1.294805 A    
C4    C6    1.461869 S    
C26   C27   1.493735 S    
C11   H3    1.083762 S    
C13   C18   1.394543 A    
C5    C6    1.400407 A    
C27   H10   1.111537 S    
C34   H19   1.111802 S    
Cu1   Cu2   2.685835 S    
C2    C19   1.458895 S    
C21   C22   1.393823 A    
C31   H15   1.080585 S    
C12   C13   1.400698 A    
C33   H16   1.111836 S    
C8    C9    1.413339 A    
C24   H9    1.082955 S    
C22   C23   1.405357 A    
Cu1   O5    1.967748 S    
C7    H2    1.084733 S    
O5    C3    1.296582 A    
C30   H14   1.080614 S    
C15   C20   1.393239 A    
C21   C26   1.377163 A    
C28   H13   1.112357 S    
N3    O9    1.301120 A    
O1    Cu1   1.963857 S    
C15   C16   1.398270 A    
C11   C12   1.393203 A    
Cu2   O6    1.963857 S    
O2    Cu2   1.967748 S    
C25   C26   1.396526 A    
C18   H5    1.084456 S    
O8    C4    1.297965 A    
C33   C34   1.515829 S    
C21   C28   1.490918 S    
O6    C3    1.291895 A    
