data_mof_unit_27250.cif
_audit_creation_date              2012-12-10T19:13:23-0500
_audit_creation_method            fapswitch 2.2
_symmetry_space_group_name_H-M    P1
_symmetry_Int_Tables_number       1
_space_group_crystal_system       triclinic
_cell_length_a                    9.688984
_cell_length_b                    10.656002
_cell_length_c                    16.709217
_cell_angle_alpha                 90.514545
_cell_angle_beta                  85.496737
_cell_angle_gamma                 90.730305
_cell_volume                      1719.63642627

loop_
_atom_site_label
_atom_site_type_symbol
_atom_type_description
_atom_site_fract_x
_atom_site_fract_y
_atom_site_fract_z
_atom_type_partial_charge
C1    C     C_R   0.500389 0.742619 0.500770 0.881265
C2    C     C_R   0.375121 0.414824 0.778008 -0.226596
C3    C     C_R   0.420217 0.342884 0.156939 -0.190474
C4    C     C_R   0.416557 0.381389 0.236214 -0.220612
C5    C     C_R   0.646337 0.474300 0.212873 -0.322179
C6    C     C_R   0.648287 0.440163 0.131617 0.556588
C7    C     C_R   0.532623 0.377173 0.104080 0.105215
C8    C     C_2   0.438164 0.474893 0.991784 0.121442
C9    C     C_2   0.510877 0.380617 0.019457 -0.245429
C10   C     C_R   0.526949 0.451780 0.263646 -0.089408
C11   C     C_3   0.348761 0.925270 0.517235 -0.457436
C12   C     C_R   0.481181 0.502878 0.653259 0.907762
C13   C     C_3   0.344510 0.068773 0.523650 0.370551
C14   C     C_3   0.584180 0.929889 0.570855 -0.384703
C15   C     C_3   0.563263 0.929473 0.421003 -0.413061
C16   C     C_3   0.499842 0.879052 0.502239 0.107523
C17   C     C_3   0.495453 0.121209 0.504561 0.108976
C18   C     C_3   0.589107 0.073815 0.568939 -0.366137
C19   C     C_3   0.553162 0.072989 0.420698 -0.504489
C20   C     C_3   0.910968 0.589068 0.562631 -0.232755
C21   C     C_3   0.073726 0.592825 0.561261 -0.239946
C22   C     C_3   0.916080 0.374823 0.519526 -0.279700
C23   C     C_R   0.498434 0.257578 0.503000 0.861652
C24   C     C_3   0.928396 0.539163 0.422786 -0.304302
C25   C     C_3   0.078310 0.377704 0.521069 -0.358857
C26   C     C_3   0.091972 0.536984 0.420912 0.501041
C27   C     C_R   0.518461 0.492002 0.346989 0.894568
C28   C     C_R   0.467757 0.501636 0.740033 -0.081246
C29   C     C_R   0.544263 0.585036 0.785767 0.122399
C30   C     C_R   0.528152 0.578973 0.868873 -0.131824
C31   C     C_R   0.438899 0.489702 0.906052 0.114792
C32   C     C_R   0.361703 0.407870 0.861053 -0.159080
H1    H     H_    0.302796 0.881374 0.573433 0.182313
H2    H     H_    0.285906 0.894095 0.467481 0.175050
H3    H     H_    0.278245 0.104211 0.477145 0.047119
H4    H     H_    0.534231 0.898876 0.629656 0.206935
H5    H     H_    0.554782 0.112503 0.629232 0.199849
H6    H     H_    0.673780 0.901762 0.411300 0.184614
H7    H     H_    0.508161 0.889096 0.370686 0.165165
H8    H     H_    0.484101 0.102051 0.374138 0.167187
H9    H     H_    0.325895 0.358151 0.275665 0.146890
H10   H     H_    0.657690 0.114057 0.404160 0.194700
H11   H     H_    0.691710 0.893482 0.564947 0.188851
H12   H     H_    0.698150 0.105576 0.554677 0.165791
H13   H     H_    0.867626 0.560670 0.623360 0.192340
H14   H     H_    0.872120 0.684876 0.552350 0.167793
H15   H     H_    0.112221 0.689816 0.548293 0.179522
H16   H     H_    0.105583 0.570391 0.621970 0.159376
H17   H     H_    0.867989 0.341270 0.578250 0.170072
H18   H     H_    0.107351 0.350983 0.581403 0.194761
H19   H     H_    0.894203 0.475536 0.374869 0.120785
H20   H     H_    0.734597 0.522767 0.235222 0.152082
H21   H     H_    0.892134 0.634449 0.408419 0.167028
H22   H     H_    0.129864 0.462577 0.377255 0.017210
H23   H     H_    0.886228 0.305498 0.473591 0.154054
H24   H     H_    0.123634 0.306707 0.477849 0.146426
H25   H     H_    0.564811 0.314152 0.978760 0.165056
H26   H     H_    0.293579 0.337758 0.890163 0.153060
H27   H     H_    0.330332 0.296076 0.135178 0.167137
H28   H     H_    0.316523 0.350071 0.743187 0.169457
H29   H     H_    0.588147 0.641413 0.904598 0.163064
N1    N     N_3   0.861190 0.500250 0.501720 -0.048700
N2    N     N_3   0.138550 0.503270 0.501080 -0.059290
O1    O     O_R   0.383960 0.685090 0.500020 -0.590732
O2    O     O_R   0.616040 0.685320 0.499960 -0.628442
O3    O     O_R   0.370240 0.499890 0.615830 -0.623890
O4    O     O_R   0.602330 0.500120 0.615770 -0.600062
O5    O     O_R   0.383960 0.314680 0.500040 -0.627037
O6    O     O_R   0.616040 0.314910 0.499980 -0.638527
O7    O     O_R   0.397670 0.499880 0.384230 -0.610905
O8    O     O_R   0.629760 0.500110 0.384170 -0.626108
Zn1   Zn    Zn3+2 0.345040 0.499850 0.500040 0.951426
Zn2   Zn    Zn3+2 0.654960 0.500150 0.499960 0.915994
I1    I     I_    0.682360 0.724470 0.736022 -0.495818
O9    O     O_3   0.761792 0.466442 0.078363 -0.621761
C33   C     C_3   0.786067 0.597519 0.071850 0.090132
H30   H     H_    0.711338 0.657152 0.109006 0.138566
H31   H     H_    0.777351 0.624252 0.008373 0.178371
C34   C     C_3   0.932477 0.628469 0.093402 -0.794737
H32   H     H_    0.008466 0.575639 0.053356 0.288204
H33   H     H_    0.953670 0.730543 0.086080 0.222002
H34   H     H_    0.944843 0.602684 0.156620 0.231942
O10   O     O_3   0.292335 0.107522 0.601947 -0.603729
C35   C     C_3   0.147184 0.086836 0.613912 0.094071
H35   H     H_    0.119869 0.985429 0.613050 0.139750
H36   H     H_    0.090932 0.132975 0.567183 0.113613
C36   C     C_3   0.094892 0.138005 0.695892 -0.815154
H37   H     H_    0.116926 0.240061 0.700051 0.236436
H38   H     H_    0.981293 0.122268 0.705557 0.214296
H39   H     H_    0.146427 0.089290 0.743698 0.264691
O11   O     O_3   0.149104 0.655607 0.397339 -0.604508
C37   C     C_3   0.153866 0.669018 0.312978 0.085290
H40   H     H_    0.049941 0.654167 0.290263 0.112378
H41   H     H_    0.227659 0.601494 0.282526 0.179295
C38   C     C_3   0.203034 0.801084 0.290866 -0.811475
H42   H     H_    0.309348 0.816827 0.309350 0.245175
H43   H     H_    0.203947 0.813621 0.224922 0.237455
H44   H     H_    0.132670 0.871094 0.321439 0.236875
I2    I     I_    0.347721 0.622138 0.064972 -0.484311

loop_
_geom_bond_atom_site_label_1
_geom_bond_atom_site_label_2
_ccdc_geom_bond_type
C10   C27   S    
C36   H37   S    
C14   C18   S    
C38   H42   S    
C35   C36   S    
C32   H26   S    
C26   N2    S    
C38   H44   S    
C6    O9    S    
C15   C19   S    
C17   C23   S    
C12   C28   S    
C28   C29   A    
C8    I2    S    
C24   C26   S    
C13   H3    S    
C3    C7    A    
C14   H4    S    
C30   C31   A    
C2    H28   S    
C4    H9    S    
C15   C16   S    
O2    Zn2   S    
C2    C32   A    
C25   N2    S    
C23   O6    A    
C25   H18   S    
O3    Zn1   S    
C31   C32   A    
C8    C9    D    
C22   C25   S    
C1    O2    A    
C25   H24   S    
N1    Zn2   S    
O6    Zn2   S    
O4    Zn2   S    
C20   H13   S    
C19   H10   S    
C21   H16   S    
C24   H19   S    
C26   H22   S    
C12   O4    A    
N2    Zn1   S    
C11   H1    S    
C35   H35   S    
O11   C37   S    
C34   H33   S    
C29   I1    S    
C24   H21   S    
C12   O3    A    
C37   C38   S    
C23   O5    A    
O9    C33   S    
C15   H6    S    
C29   C30   A    
C18   H12   S    
C22   N1    S    
C11   C16   S    
O10   C35   S    
O5    Zn1   S    
C37   H41   S    
C17   C18   S    
C5    H20   S    
C1    C16   S    
C33   H30   S    
C15   H7    S    
C6    C7    A    
C27   O7    A    
C22   H17   S    
C36   H38   S    
C14   C16   S    
C30   H29   S    
C4    C10   A    
C3    C4    A    
C1    O1    A    
C27   O8    A    
O8    Zn2   S    
C7    C9    S    
C24   N1    S    
C8    C31   S    
C18   H5    S    
C11   H2    S    
C33   H31   S    
C34   H34   S    
O7    Zn1   S    
C38   H43   S    
C22   H23   S    
C13   O10   S    
C13   C17   S    
C26   O11   S    
C5    C10   A    
C11   C13   S    
C5    C6    A    
C37   H40   S    
C17   C19   S    
C9    H25   S    
O1    Zn1   S    
C20   N1    S    
C21   N2    S    
C19   H8    S    
C34   H32   S    
C33   C34   S    
C20   C21   S    
C36   H39   S    
C35   H36   S    
C2    C28   A    
C20   H14   S    
C14   H11   S    
C21   H15   S    
C3    H27   S    
