data_mof_unit_15056.cif
_audit_creation_date              2013-03-05T16:34:53-0500
_audit_creation_method            fapswitch 2.2
_symmetry_space_group_name_H-M    P1
_symmetry_Int_Tables_number       1
_space_group_crystal_system       triclinic
_cell_length_a                    15.129855
_cell_length_b                    9.098339
_cell_length_c                    7.777537
_cell_angle_alpha                 90.041542
_cell_angle_beta                  89.999919
_cell_angle_gamma                 90.000073
_cell_volume                      1070.62862803

loop_
_atom_site_label
_atom_site_type_symbol
_atom_site_description
_atom_site_fract_x
_atom_site_fract_y
_atom_site_fract_z
_atom_type_partial_charge
O1    O     O_R   0.500000 0.288390 0.642760 -0.572592
O2    O     O_R   0.500000 0.711610 0.357240 -0.572592
O3    O     O_R   0.500000 0.711610 0.642760 -0.588846
O4    O     O_R   0.500000 0.288390 0.357240 -0.588846
H1    H     H_    0.919736 0.367128 0.906890 0.209066
H2    H     H_    0.080264 0.632872 0.093110 0.209066
H3    H     H_    0.919737 0.632872 0.093110 0.209065
H4    H     H_    0.080263 0.367128 0.906890 0.209065
C1    C     C_R   0.500000 0.219987 0.499963 0.828785
C2    C     C_R   0.500000 0.780012 0.500037 0.828785
O5    O     O_R   0.370260 0.500000 0.642800 -0.533188
O6    O     O_R   0.629740 0.500000 0.357200 -0.533188
O7    O     O_R   0.629740 0.500000 0.642800 -0.533188
O8    O     O_R   0.370260 0.500000 0.357200 -0.533188
C3    C     C_R   0.328149 0.500000 0.500000 0.899417
C4    C     C_R   0.671850 0.500000 0.500000 0.899417
Cu1   Cu    Cu3+1 0.500000 0.500000 0.669080 1.110729
Cu2   Cu    Cu3+1 0.500000 0.500000 0.330920 1.110729
N1    N     N_1   0.500000 0.500000 0.076820 0.001428
N2    N     N_1   0.500000 0.500000 0.923180 0.001428
C5    C     C_R   0.814956 0.547885 0.353506 0.506713
C6    C     C_R   0.185044 0.452115 0.646494 0.506713
C7    C     C_R   0.814956 0.452115 0.646494 0.506714
C8    C     C_R   0.185044 0.547885 0.353506 0.506714
C9    C     C_R   0.768609 0.500000 0.500000 -0.325957
C10   C     C_R   0.231391 0.500000 0.500000 -0.325957
C11   C     C_R   0.907225 0.452047 0.647247 -0.007945
C12   C     C_R   0.092775 0.547953 0.352753 -0.007945
C13   C     C_R   0.907225 0.547953 0.352753 -0.007945
C14   C     C_R   0.092775 0.452047 0.647247 -0.007945
C15   C     C_R   0.953561 0.500000 0.500000 -0.031061
C16   C     C_R   0.046439 0.500000 0.500000 -0.031061
C17   C     C_R   0.954018 0.404410 0.792618 -0.151552
C18   C     C_R   0.045982 0.595590 0.207382 -0.151552
C19   C     C_R   0.954018 0.595590 0.207382 -0.151553
C20   C     C_R   0.045982 0.404410 0.792618 -0.151552
C21   C     C_1   0.500000 0.065356 0.499949 -0.128697
C22   C     C_1   0.500000 0.934644 0.500051 -0.128697
F1    F     F_    0.770504 0.597148 0.212739 -0.619696
F2    F     F_    0.229495 0.402852 0.787261 -0.619696
F3    F     F_    0.770504 0.402852 0.787260 -0.619696
F4    F     F_    0.229496 0.597148 0.212740 -0.619696

loop_
_geom_bond_atom_site_label_1
_geom_bond_atom_site_label_2
_geom_bond_distance
_ccdc_geom_bond_type
C21   C22   1.189258 T    
C7    C11   1.396029 A    
O2    Cu2   1.936004 S    
C8    F4    1.361085 S    
C13   C19   1.402891 A    
O1    Cu1   1.936005 S    
N1    N2    1.194942 T    
C7    F3    1.361085 S    
C14   C20   1.402891 A    
C2    C22   1.406892 S    
O4    Cu2   1.936300 S    
Cu1   N2    1.976271 S    
C1    C21   1.406892 S    
Cu1   Cu2   2.630053 S    
C12   C18   1.402890 A    
C13   C15   1.412118 A    
O3    C2    1.272985 A    
C11   C17   1.402890 A    
C14   C16   1.412118 A    
H3    C19   1.083703 S    
C8    C10   1.407264 A    
O3    Cu1   1.936299 S    
O5    C3    1.280402 A    
C7    C9    1.407264 A    
H4    C20   1.083703 S    
C18   C19   1.391400 A    
C11   C15   1.412118 A    
O7    Cu1   1.973560 S    
O2    C2    1.272701 A    
O6    C4    1.280402 A    
C12   C16   1.412118 A    
C17   C20   1.391400 A    
O1    C1    1.272701 A    
C8    C12   1.396029 A    
Cu2   N1    1.976271 S    
C6    C10   1.407266 A    
O7    C4    1.280403 A    
O6    Cu2   1.973560 S    
C4    C9    1.463942 S    
C5    C9    1.407266 A    
C6    F2    1.361085 S    
O5    Cu1   1.973562 S    
C3    C10   1.463942 S    
C6    C14   1.396027 A    
O4    C1    1.272985 A    
O8    C3    1.280403 A    
C5    C13   1.396027 A    
O8    Cu2   1.973561 S    
C15   C16   1.405232 A    
H2    C18   1.083703 S    
H1    C17   1.083703 S    
C5    F1    1.361085 S    
