data_mof_unit_28851.cif
_audit_creation_date              2012-12-11T14:36:08-0500
_audit_creation_method            fapswitch 2.2
_symmetry_space_group_name_H-M    P1
_symmetry_Int_Tables_number       1
_space_group_crystal_system       triclinic
_cell_length_a                    13.509096
_cell_length_b                    13.518263
_cell_length_c                    27.44859
_cell_angle_alpha                 90.856684
_cell_angle_beta                  89.90135
_cell_angle_gamma                 60.118335
_cell_volume                      4345.51879972

loop_
_atom_site_label
_atom_site_type_symbol
_atom_type_description
_atom_site_fract_x
_atom_site_fract_y
_atom_site_fract_z
_atom_type_partial_charge
C1    C     C_R   0.620181 0.101678 0.570058 0.540967
C2    C     C_1   0.631259 0.729058 0.615419 0.060988
C3    C     C_3   0.668454 0.558524 0.765416 -0.114195
C4    C     C_3   0.691709 0.630940 0.802819 -0.011450
C5    C     C_3   0.575951 0.670164 0.742612 0.182958
C6    C     C_3   0.665968 0.670488 0.708590 0.046228
C7    C     C_3   0.598452 0.741889 0.780607 -0.083176
C8    C     C_3   0.689567 0.742138 0.746086 -0.100316
C9    C     C_1   0.698813 0.614363 0.855451 0.013052
C10   C     C_1   0.649810 0.697933 0.656877 0.071947
C11   C     C_3   0.084250 0.142833 0.738931 -0.096268
C12   C     C_R   0.599424 0.779423 0.568529 0.550887
C13   C     C_3   0.179821 0.064725 0.774438 -0.069342
C14   C     C_1   0.100000 0.199942 0.902099 0.016794
C15   C     C_1   0.223360 0.142860 0.616612 0.049035
C16   C     C_3   0.055078 0.247686 0.772368 -0.064806
C17   C     C_3   0.150805 0.169572 0.807069 0.007846
C18   C     C_3   0.141551 0.269492 0.744024 -0.089406
C19   C     C_3   0.170057 0.165119 0.711323 0.056842
C20   C     C_3   0.236926 0.191869 0.779517 -0.099683
C21   C     C_3   0.264884 0.088041 0.746192 0.182221
C22   C     C_1   0.129285 0.180824 0.859851 -0.016222
C23   C     C_R   0.276452 0.122734 0.569380 0.553830
C24   C     C_1   0.191998 0.156014 0.658571 0.040274
C25   C     C_3   0.616401 0.282586 0.740363 -0.102703
C26   C     C_3   0.550955 0.251735 0.778545 -0.164603
C27   C     C_1   0.691354 0.207492 0.903309 0.022964
C28   C     C_1   0.635524 0.134846 0.617986 0.022844
C29   C     C_3   0.725357 0.217517 0.770811 0.230976
C30   C     C_3   0.661047 0.188103 0.808596 0.113085
C31   C     C_3   0.762537 0.105170 0.742412 -0.091449
C32   C     C_3   0.651509 0.169306 0.712760 -0.025790
C33   C     C_3   0.695000 0.077936 0.780003 0.239974
C34   C     C_R   0.623712 0.101665 0.432184 0.558110
C35   C     C_3   0.585144 0.138670 0.749942 -0.098257
C36   C     C_1   0.673731 0.197324 0.861098 0.042173
C37   C     C_1   0.644238 0.154313 0.660227 -0.018876
C38   C     C_R   0.748718 0.684053 0.363085 0.243179
C39   C     C_R   0.757284 0.670261 0.312154 0.008392
C40   C     C_R   0.765323 0.659591 0.209345 0.000047
C41   C     C_R   0.853322 0.663654 0.235831 0.202692
C42   C     C_R   0.849678 0.665386 0.286659 0.005194
C43   C     C_R   0.772302 0.641105 0.158601 -0.138769
C44   C     C_R   0.685329 0.633570 0.134051 -0.002469
C45   C     C_R   0.604378 0.771964 0.431549 0.535900
C46   C     C_R   0.571143 0.679105 0.361489 -0.136366
C47   C     C_R   0.578167 0.665586 0.311145 0.005421
C48   C     C_R   0.668986 0.667069 0.286083 -0.028928
C49   C     C_R   0.491970 0.658944 0.285068 0.183429
C50   C     C_R   0.492355 0.661844 0.234536 -0.078962
C51   C     C_R   0.581508 0.663884 0.209499 -0.020827
C52   C     C_R   0.671809 0.664219 0.234979 0.021742
C53   C     C_R   0.585762 0.655988 0.159169 -0.119997
C54   C     C_R   0.647320 0.702585 0.386568 -0.023900
C55   C     C_R   0.209938 0.059251 0.359672 -0.164583
C56   C     C_R   0.274980 0.121813 0.432146 0.564916
C57   C     C_R   0.172557 0.077890 0.311391 -0.004951
C58   C     C_R   0.133585 0.105971 0.210685 -0.042972
C59   C     C_R   0.149336 0.006851 0.232861 -0.049364
C60   C     C_R   0.168114 0.991974 0.282802 0.264363
C61   C     C_R   0.113407 0.120080 0.160709 -0.177309
C62   C     C_R   0.096879 0.219402 0.138242 0.037066
C63   C     C_R   0.154983 0.258658 0.369441 0.192102
C64   C     C_R   0.143740 0.272539 0.318740 0.026705
C65   C     C_R   0.149307 0.181739 0.289774 -0.026424
C66   C     C_R   0.135566 0.369024 0.295449 0.171477
C67   C     C_3   0.758741 0.559769 0.730834 0.160977
C68   C     C_R   0.127119 0.376338 0.245063 -0.088989
C69   C     C_R   0.122280 0.291868 0.216591 -0.012148
C70   C     C_R   0.134163 0.193606 0.239051 0.006314
C71   C     C_R   0.107453 0.303124 0.165877 0.240821
C72   C     C_R   0.206314 0.147987 0.387898 -0.004920
C73   C     C_R   0.561137 0.242085 0.364538 0.197021
C74   C     C_R   0.565925 0.255176 0.313813 -0.034413
C75   C     C_R   0.574203 0.277299 0.211866 0.031502
C76   C     C_R   0.478735 0.357356 0.238997 0.160623
C77   C     C_R   0.474823 0.345237 0.289218 -0.057145
C78   C     C_3   0.782517 0.630509 0.768851 0.194085
C79   C     C_R   0.587162 0.292468 0.162093 -0.106467
C80   C     C_R   0.682398 0.209525 0.136087 -0.009625
C81   C     C_R   0.750439 0.072364 0.360969 0.212273
C82   C     C_R   0.752394 0.077497 0.309942 0.043119
C83   C     C_R   0.659771 0.170932 0.286519 -0.059506
C84   C     C_R   0.842249 0.991185 0.281172 0.217646
C85   C     C_R   0.840264 0.000366 0.230872 -0.120816
C86   C     C_R   0.752600 0.094957 0.208245 -0.026024
C87   C     C_R   0.661804 0.180955 0.235584 0.028654
C88   C     C_R   0.758365 0.106756 0.158554 -0.119125
C89   C     C_1   0.703276 0.596392 0.898391 0.029269
C90   C     C_R   0.647812 0.143292 0.386625 0.007192
C91   C     C_R   0.049871 0.235897 0.949854 0.548262
C92   C     C_R   0.712715 0.560834 0.947750 0.546567
C93   C     C_R   0.722250 0.225250 0.951096 0.548477
C94   C     C_R   0.046128 0.247145 0.089282 0.561553
C95   C     C_R   0.707673 0.574777 0.086675 0.542660
C96   C     C_R   0.718620 0.233655 0.089431 0.544416
Cr1   Cr    Cr6+3 0.417550 0.169090 0.500530 1.135720
Cr2   Cr    Cr6+3 0.669180 0.913420 0.499920 1.094614
Cr3   Cr    Cr6+3 0.413260 0.917540 0.499520 1.073625
Cr4   Cr    Cr6+3 0.909170 0.177380 0.020380 1.042603
Cr5   Cr    Cr6+3 0.912710 0.429210 0.018220 1.078466
Cr6   Cr    Cr6+3 0.657170 0.432570 0.019030 1.049599
H1    H     H_    0.300882 0.210103 0.796420 0.134680
H2    H     H_    0.124797 0.353791 0.731056 0.192313
H3    H     H_    0.968854 0.314847 0.784693 0.196630
H4    H     H_    0.464586 0.310892 0.793683 0.136763
H5    H     H_    0.586143 0.366959 0.723567 0.157915
H6    H     H_    0.527510 0.105114 0.740897 0.177773
H7    H     H_    0.849483 0.046026 0.727812 0.123148
H8    H     H_    0.848698 0.622619 0.138511 0.133768
H9    H     H_    0.918273 0.666875 0.306195 0.262421
H10   H     H_    0.516881 0.652873 0.140264 0.146295
H11   H     H_    0.424666 0.658710 0.214714 0.183400
H12   H     H_    0.498211 0.685497 0.380708 0.195225
H13   H     H_    0.106066 0.055585 0.139622 0.130662
H14   H     H_    0.248311 0.974613 0.374668 0.159367
H15   H     H_    0.146507 0.940370 0.211350 0.154346
H16   H     H_    0.697581 0.817573 0.737110 0.160471
H17   H     H_    0.126583 0.448626 0.228490 0.227572
H18   H     H_    0.527893 0.370473 0.144174 0.172795
H19   H     H_    0.398427 0.406391 0.308417 0.222704
H20   H     H_    0.830117 0.039495 0.138418 0.140616
H21   H     H_    0.532906 0.815631 0.802261 0.181679
H22   H     H_    0.909389 0.933831 0.209309 0.151041
H23   H     H_    0.658791 0.483940 0.774097 0.168971
H24   H     H_    0.197564 0.980022 0.787301 0.164535
H25   H     H_    0.021143 0.123778 0.721755 0.143735
O1    O     O_R   0.301710 0.195650 0.554160 -0.489886
O2    O     O_R   0.658900 0.818120 0.449760 -0.472878
O3    O     O_R   0.503220 0.801620 0.445520 -0.515189
O4    O     O_R   0.319370 0.022040 0.450020 -0.512455
O5    O     O_3   0.499990 0.000010 0.499990 -0.282983
O6    O     O_R   0.818720 0.150820 0.967160 -0.492278
O7    O     O_R   0.006410 0.181720 0.970200 -0.492113
O8    O     O_R   0.027890 0.334070 0.964920 -0.493398
O9    O     O_R   0.809600 0.521790 0.967960 -0.486929
O10   O     O_R   0.635520 0.542770 0.964420 -0.504150
O11   O     O_R   0.665950 0.325030 0.970100 -0.495082
O12   O     O_R   0.522390 0.158990 0.550460 -0.493270
O13   O     O_R   0.816620 0.158530 0.074540 -0.520960
O14   O     O_R   0.004460 0.188870 0.069750 -0.517932
O15   O     O_R   0.025800 0.341780 0.072300 -0.445323
O16   O     O_R   0.807650 0.528950 0.067500 -0.499208
O17   O     O_R   0.633420 0.550490 0.071810 -0.516178
O18   O     O_R   0.664000 0.332180 0.069640 -0.495646
O19   O     O_3   0.826350 0.346390 0.019210 -0.263815
O20   O     O_R   0.694390 0.003530 0.554040 -0.503397
O21   O     O_R   0.657700 0.819660 0.549320 -0.498031
O22   O     O_R   0.501930 0.803280 0.552920 -0.483970
O23   O     O_R   0.318170 0.023580 0.549580 -0.487302
O24   O     O_R   0.303010 0.193990 0.446760 -0.437497
O25   O     O_R   0.523600 0.157450 0.450900 -0.432596
O26   O     O_R   0.695690 0.001860 0.446640 -0.480210
Br1   Br    Br    0.932150 0.601107 0.788618 -0.470942
O27   O     O_3   0.733760 0.972531 0.802095 -0.666790
H26   H     H_    0.783215 0.914337 0.777458 0.338588
O28   O     O_3   0.798596 0.258817 0.782969 -0.716481
H27   H     H_    0.821945 0.275730 0.751385 0.338598
Br2   Br    Br    0.867735 0.434214 0.690101 -0.552958
O29   O     O_3   0.836235 0.685852 0.388281 -0.620764
H28   H     H_    0.836375 0.659524 0.421797 0.357062
O30   O     O_3   0.943538 0.667205 0.213986 -0.678611
H29   H     H_    0.918041 0.706317 0.182501 0.325573
Br3   Br    Br    0.372875 0.643649 0.316267 -0.419417
O31   O     O_3   0.180149 0.893105 0.302000 -0.606712
H30   H     H_    0.154577 0.907565 0.336468 0.362330
O32   O     O_3   0.100486 0.396571 0.143007 -0.647117
H31   H     H_    0.040478 0.465662 0.160089 0.333562
Br4   Br    Br    0.158277 0.484350 0.326853 -0.322217
Br5   Br    Br    0.079436 0.385404 0.415203 -0.380777
O33   O     O_3   0.471654 0.321846 0.393006 -0.639269
H32   H     H_    0.453296 0.398788 0.382399 0.348978
Br6   Br    Br    0.347611 0.480818 0.209091 -0.460143
Br7   Br    Br    0.966820 0.852307 0.305664 -0.292209
O34   O     O_3   0.848450 0.998635 0.385369 -0.606448
H33   H     H_    0.846630 0.032819 0.417821 0.334807
Br8   Br    Br    0.427156 0.695666 0.723572 -0.448742
Br9   Br    Br    0.415097 0.976903 0.722704 -0.577195

loop_
_geom_bond_atom_site_label_1
_geom_bond_atom_site_label_2
_ccdc_geom_bond_type
C83   C87   A    
O33   H32   S    
C49   C50   A    
C45   O2    A    
O31   H30   S    
C11   C13   S    
C41   C42   A    
C66   Br4   S    
C66   C68   A    
C74   C83   A    
C43   C44   A    
C2    C12   S    
C26   H4    S    
C81   C82   A    
C8    H16   S    
C7    C8    S    
C47   C49   A    
C20   H1    S    
C31   C32   S    
C85   C86   A    
C95   O16   A    
C96   O18   A    
Cr3   O22   S    
C11   C19   S    
O28   H27   S    
Cr3   O5    S    
C13   C17   S    
C81   O34   S    
C76   Br6   S    
C19   C21   S    
C73   C90   A    
C93   O6    A    
Cr4   O14   S    
C4    C7    S    
C68   H17   S    
C5    C6    S    
C86   C88   A    
Cr5   O9    S    
C55   H14   S    
C65   C70   A    
C17   C20   S    
C58   C70   A    
C85   H22   S    
C18   C19   S    
Cr6   O11   S    
C69   C71   A    
C49   Br3   S    
C93   O11   A    
Cr4   O13   S    
C44   C53   A    
C40   C43   A    
O34   H33   S    
Cr4   O19   S    
C16   C17   S    
C56   C72   S    
C74   C77   A    
C61   H13   S    
C1    C28   S    
C31   C33   S    
C35   H6    S    
C43   H8    S    
C73   O33   S    
C55   C72   A    
C30   C33   S    
C57   C60   A    
C61   C62   A    
C25   C32   S    
C15   C23   S    
Cr2   O26   S    
C59   C60   A    
C59   H15   S    
C71   O32   S    
C41   O30   S    
C8    C78   S    
C92   O9    A    
C67   C78   S    
Cr6   O17   S    
Cr1   O1    S    
C84   Br7   S    
C92   O10   A    
Cr4   O7    S    
C39   C42   A    
Cr5   O8    S    
C73   C74   A    
C25   C29   S    
Cr3   O23   S    
Cr5   O19   S    
C46   H12   S    
C51   C52   A    
C94   O15   A    
C32   C35   S    
C77   H19   S    
C76   C77   A    
C88   H20   S    
C9    C89   T    
O32   H31   S    
C5    C7    S    
C34   O25   A    
C86   C87   A    
C68   C69   A    
C63   Br5   S    
C6    C8    S    
C58   C59   A    
C40   C52   A    
C79   C80   A    
C78   Br1   S    
C89   C92   S    
Cr6   O10   S    
C64   C66   A    
C11   H25   S    
C75   C76   A    
C34   C90   S    
C4    C78   S    
C29   C30   S    
C11   C16   S    
C47   C48   A    
C38   C54   A    
C48   C52   A    
C79   H18   S    
C46   C54   A    
C33   O27   S    
C50   C51   A    
C31   H7    S    
C13   C21   S    
C16   C18   S    
C18   H2    S    
C32   C37   S    
C84   C85   A    
C56   O24   A    
C5    Br8   S    
C16   H3    S    
C81   C90   A    
C53   H10   S    
C75   C87   A    
C15   C24   T    
C23   O23   A    
C45   C54   S    
C26   C30   S    
C82   C84   A    
C62   C94   S    
C95   O17   A    
C1    O20   A    
C80   C96   S    
C13   H24   S    
C3    C4    S    
C2    C10   T    
Cr4   O6    S    
C25   H5    S    
C67   Br2   S    
O30   H29   S    
C34   O26   A    
C46   C47   A    
C21   Br9   S    
Cr3   O3    S    
C20   C21   S    
C94   O14   A    
C12   O22   A    
C42   H9    S    
C3    C67   S    
C60   O31   S    
Cr1   O5    S    
C57   C65   A    
C3    C5    S    
C1    O12   A    
C96   O13   A    
C29   O28   S    
C3    H23   S    
Cr3   O4    S    
C27   C36   T    
C17   C22   S    
C30   C36   S    
C50   H11   S    
C64   C65   A    
C14   C22   T    
C55   C57   A    
C19   C24   S    
C25   C26   S    
C38   O29   S    
C80   C88   A    
C44   C95   S    
C6    C67   S    
O29   H28   S    
Cr5   O16   S    
C12   O21   A    
C38   C39   A    
C91   O7    A    
Cr2   O21   S    
C28   C37   T    
C58   C61   A    
Cr2   O2    S    
C63   C72   A    
C33   C35   S    
Cr1   O25   S    
C62   C71   A    
C18   C20   S    
C69   C70   A    
C14   C91   S    
C56   O4    A    
C27   C93   S    
C6    C10   S    
C63   C64   A    
C26   C35   S    
C45   O3    A    
C91   O8    A    
Cr6   O18   S    
C29   C31   S    
C82   C83   A    
Cr2   O20   S    
Cr2   O5    S    
O27   H26   S    
C39   C48   A    
C40   C41   A    
C51   C53   A    
C4    C9    S    
C75   C79   A    
Cr1   O12   S    
Cr1   O24   S    
Cr6   O19   S    
C7    H21   S    
C23   O1    A    
Cr5   O15   S    
