data_mof_unit_7269.cif
_audit_creation_date              2012-12-10T17:07:19-0500
_audit_creation_method            fapswitch 2.2
_symmetry_space_group_name_H-M    P1
_symmetry_Int_Tables_number       1
_space_group_crystal_system       triclinic
_cell_length_a                    30.177805
_cell_length_b                    30.175471
_cell_length_c                    30.176083
_cell_angle_alpha                 89.897785
_cell_angle_beta                  89.90444
_cell_angle_gamma                 89.944417
_cell_volume                      27479.135961

loop_
_atom_site_label
_atom_site_type_symbol
_atom_type_description
_atom_site_fract_x
_atom_site_fract_y
_atom_site_fract_z
_atom_type_partial_charge
C1    C     C_R   0.000018 0.414334 0.499989 0.805419
C2    C     C_R   0.000028 0.500021 0.414327 0.805469
C3    C     C_R   0.999983 0.585673 0.500021 0.804463
C4    C     C_R   0.999968 0.500011 0.585668 0.804819
C5    C     C_R   0.414358 0.499972 0.000034 0.805465
C6    C     C_R   0.500034 0.585835 0.999988 0.806006
C7    C     C_R   0.585630 0.500023 0.999962 0.801440
C8    C     C_R   0.500078 0.414379 0.000033 0.801412
C9    C     C_R   0.500296 0.999981 0.585780 0.805385
C10   C     C_R   0.585648 0.999980 0.499962 0.805030
C11   C     C_R   0.499859 0.000020 0.414299 0.803362
C12   C     C_R   0.414357 0.000029 0.500073 0.802829
C13   C     C_R   0.499994 0.914547 0.999986 0.794674
C14   C     C_R   0.500066 0.999759 0.914498 0.797253
C15   C     C_R   0.499980 0.085653 0.999983 0.801919
C16   C     C_R   0.499973 0.999822 0.085574 0.798409
C17   C     C_R   0.914366 0.000005 0.500041 0.799947
C18   C     C_R   0.000070 0.085609 0.499966 0.801411
C19   C     C_R   0.085635 0.999821 0.499935 0.800363
C20   C     C_R   0.000085 0.914395 0.500024 0.798559
C21   C     C_R   0.999943 0.499966 0.085602 0.801264
C22   C     C_R   0.085636 0.499980 0.000019 0.802323
C23   C     C_R   0.999932 0.500034 0.914393 0.801433
C24   C     C_R   0.914350 0.500019 0.000008 0.800450
C25   C     C_R   0.029552 0.472932 0.156735 -0.200581
C26   C     C_R   0.029471 0.843277 0.472756 -0.203359
C27   C     C_R   0.029224 0.527327 0.843144 -0.200480
C28   C     C_R   0.029540 0.156690 0.527115 -0.204259
C29   C     C_R   0.970129 0.526795 0.156740 -0.204167
C30   C     C_R   0.970887 0.156841 0.472569 -0.200292
C31   C     C_R   0.970331 0.472997 0.843343 -0.204369
C32   C     C_R   0.970091 0.843225 0.526692 -0.205277
C33   C     C_R   0.510902 0.843923 0.961428 -0.205107
C34   C     C_R   0.842983 0.530449 0.026046 -0.200602
C35   C     C_R   0.530571 0.156960 0.974046 -0.200034
C36   C     C_R   0.156955 0.470675 0.972738 -0.200429
C37   C     C_R   0.488344 0.843829 0.038397 -0.195298
C38   C     C_R   0.156807 0.529112 0.027500 -0.200313
C39   C     C_R   0.469330 0.156951 0.025852 -0.200262
C40   C     C_R   0.843131 0.469773 0.973781 -0.200655
C41   C     C_R   0.843058 0.027175 0.529408 -0.199753
C42   C     C_R   0.524804 0.031087 0.156543 -0.200132
C43   C     C_R   0.156988 0.973737 0.469335 -0.200322
C44   C     C_R   0.482549 0.035631 0.843623 -0.203694
C45   C     C_R   0.843198 0.971751 0.471611 -0.205419
C46   C     C_R   0.519074 0.964226 0.843732 -0.206237
C47   C     C_R   0.156786 0.026321 0.529719 -0.200537
C48   C     C_R   0.475256 0.968114 0.156702 -0.211644
C49   C     C_R   0.516916 0.963270 0.657483 -0.199008
C50   C     C_R   0.528807 0.343204 0.972012 -0.204617
C51   C     C_R   0.522309 0.033030 0.342709 -0.200264
C52   C     C_R   0.490858 0.657660 0.039020 -0.201660
C53   C     C_R   0.485560 0.037053 0.657506 -0.192777
C54   C     C_R   0.510269 0.657790 0.961231 -0.200502
C55   C     C_R   0.477046 0.966923 0.342983 -0.204635
C56   C     C_R   0.471586 0.343165 0.028247 -0.200479
C57   C     C_R   0.968792 0.343055 0.474943 -0.200287
C58   C     C_R   0.343235 0.971386 0.472008 -0.201479
C59   C     C_R   0.031518 0.657060 0.475267 -0.200667
C60   C     C_R   0.656992 0.969908 0.473484 -0.192606
C61   C     C_R   0.031379 0.342926 0.524906 -0.200198
C62   C     C_R   0.656871 0.029725 0.526727 -0.200722
C63   C     C_R   0.968275 0.657022 0.524603 -0.192168
C64   C     C_R   0.342940 0.029078 0.527574 -0.200237
C65   C     C_R   0.343023 0.526831 0.029751 -0.200117
C66   C     C_R   0.031275 0.524959 0.656934 -0.200672
C67   C     C_R   0.656789 0.527921 0.028664 -0.201791
C68   C     C_R   0.968392 0.524647 0.342975 -0.200013
C69   C     C_R   0.343168 0.472894 0.970552 -0.200571
C70   C     C_R   0.031694 0.475424 0.342944 -0.200400
C71   C     C_R   0.656935 0.472474 0.970892 -0.201864
C72   C     C_R   0.968456 0.475242 0.657108 -0.200622
C73   C     C_R   0.999866 0.499889 0.133832 -0.094124
C74   C     C_R   0.999988 0.866161 0.499965 -0.092775
C75   C     C_R   0.999824 0.500119 0.866155 -0.094527
C76   C     C_R   0.000172 0.133851 0.499882 -0.094793
C77   C     C_R   0.499899 0.866603 0.999976 -0.080861
C78   C     C_R   0.866031 0.500068 0.999963 -0.099111
C79   C     C_R   0.499944 0.133981 0.999949 -0.100124
C80   C     C_R   0.133930 0.499927 0.000081 -0.098261
C81   C     C_R   0.866077 0.999735 0.500244 -0.096514
C82   C     C_R   0.499960 0.999683 0.133753 -0.089940
C83   C     C_R   0.133928 0.999859 0.499715 -0.098761
C84   C     C_R   0.500348 0.999740 0.866457 -0.083846
C85   C     C_R   0.500838 0.000030 0.634350 -0.111159
C86   C     C_R   0.500171 0.366114 0.000108 -0.095752
C87   C     C_R   0.499684 0.000023 0.365881 -0.103337
C88   C     C_R   0.500374 0.634507 0.000058 -0.112083
C89   C     C_R   0.000061 0.365981 0.499949 -0.101445
C90   C     C_R   0.366051 0.000124 0.499946 -0.098148
C91   C     C_R   0.999943 0.634041 0.499990 -0.102655
C92   C     C_R   0.633966 0.999912 0.500011 -0.100870
C93   C     C_R   0.366053 0.499897 0.000117 -0.099169
C94   C     C_R   0.999896 0.500069 0.634027 -0.101747
C95   C     C_R   0.633912 0.500121 0.999856 -0.098477
C96   C     C_R   0.000065 0.500054 0.365959 -0.101847
C97   C     C_R   0.969410 0.527006 0.203221 0.066362
C98   C     C_R   0.968284 0.796780 0.525682 0.061101
C99   C     C_R   0.969585 0.472809 0.796863 0.066308
C100  C     C_R   0.970156 0.203318 0.472347 0.065871
C101  C     C_R   0.030316 0.472752 0.203209 0.066031
C102  C     C_R   0.030266 0.203172 0.527321 0.066299
C103  C     C_R   0.029944 0.527552 0.796668 0.065962
C104  C     C_R   0.030039 0.796799 0.472370 0.066261
C105  C     C_R   0.489337 0.797383 0.039425 0.061550
C106  C     C_R   0.796685 0.470343 0.972117 0.065802
C107  C     C_R   0.469046 0.203432 0.026541 0.065044
C108  C     C_R   0.203283 0.529327 0.028263 0.065446
C109  C     C_R   0.510058 0.797495 0.960530 0.069791
C110  C     C_R   0.203433 0.470372 0.972071 0.065367
C111  C     C_R   0.530954 0.203438 0.973424 0.064527
C112  C     C_R   0.796523 0.530043 0.027515 0.065717
C113  C     C_R   0.796749 0.969877 0.472501 0.060482
C114  C     C_R   0.475067 0.967378 0.203194 0.066783
C115  C     C_R   0.203190 0.028113 0.529022 0.065635
C116  C     C_R   0.519763 0.963771 0.797256 0.069736
C117  C     C_R   0.796582 0.027717 0.529826 0.065354
C118  C     C_R   0.482885 0.036555 0.797179 0.061550
C119  C     C_R   0.203475 0.972445 0.469605 0.066128
C120  C     C_R   0.524968 0.031819 0.203002 0.065669
C121  C     C_R   0.484839 0.037420 0.703964 0.056384
C122  C     C_R   0.470834 0.296688 0.028463 0.065645
C123  C     C_R   0.476656 0.966300 0.296494 0.064374
C124  C     C_R   0.511047 0.704260 0.960772 0.062273
C125  C     C_R   0.517695 0.962840 0.703979 0.063839
C126  C     C_R   0.491084 0.704137 0.039811 0.056577
C127  C     C_R   0.522892 0.033383 0.296236 0.063972
C128  C     C_R   0.529466 0.296718 0.971722 0.066105
C129  C     C_R   0.031784 0.296446 0.525499 0.064099
C130  C     C_R   0.296465 0.028705 0.528752 0.067155
C131  C     C_R   0.967709 0.703506 0.524991 0.057789
C132  C     C_R   0.703343 0.029734 0.527709 0.065293
C133  C     C_R   0.968479 0.296576 0.474270 0.064991
C134  C     C_R   0.703474 0.969331 0.473084 0.058053
C135  C     C_R   0.031718 0.703539 0.474431 0.064299
C136  C     C_R   0.296791 0.972099 0.470192 0.066174
C137  C     C_R   0.296692 0.472155 0.970311 0.065432
C138  C     C_R   0.968048 0.474655 0.703590 0.064020
C139  C     C_R   0.703394 0.470951 0.971447 0.066345
C140  C     C_R   0.032010 0.474751 0.296462 0.064947
C141  C     C_R   0.296543 0.527505 0.030057 0.065221
C142  C     C_R   0.967959 0.525216 0.296496 0.063924
C143  C     C_R   0.703237 0.529559 0.027989 0.065818
C144  C     C_R   0.031593 0.525632 0.703411 0.064949
C145  C     C_R   0.999897 0.499910 0.226575 -0.055558
C146  C     C_R   0.999255 0.773424 0.499145 -0.054260
C147  C     C_R   0.999779 0.500170 0.773407 -0.055541
C148  C     C_R   0.000188 0.226604 0.499851 -0.055432
C149  C     C_R   0.500288 0.774067 0.000128 -0.057896
C150  C     C_R   0.773235 0.500206 0.999793 -0.054876
C151  C     C_R   0.500032 0.226794 0.000003 -0.054738
C152  C     C_R   0.226715 0.499839 0.000177 -0.054668
C153  C     C_R   0.773303 0.998931 0.501021 -0.053514
C154  C     C_R   0.499942 0.999662 0.226461 -0.054719
C155  C     C_R   0.226708 0.000325 0.499324 -0.054860
C156  C     C_R   0.501266 0.000125 0.773855 -0.055337
C157  C     C_R   0.501181 0.000083 0.727316 -0.053258
C158  C     C_R   0.500104 0.273345 0.000055 -0.055365
C159  C     C_R   0.499828 0.999777 0.273010 -0.054083
C160  C     C_R   0.500852 0.727537 0.000252 -0.050571
C161  C     C_R   0.000151 0.273154 0.499873 -0.054369
C162  C     C_R   0.273262 0.000399 0.499395 -0.055406
C163  C     C_R   0.999490 0.726879 0.499437 -0.054751
C164  C     C_R   0.726763 0.999254 0.500686 -0.055055
C165  C     C_R   0.273261 0.499828 0.000187 -0.054648
C166  C     C_R   0.999805 0.500154 0.726857 -0.054394
C167  C     C_R   0.726687 0.500227 0.999754 -0.055083
C168  C     C_R   0.999957 0.499961 0.273124 -0.054294
C169  C     C_R   0.938336 0.553220 0.226492 0.186771
C170  C     C_R   0.936240 0.773567 0.550831 0.188808
C171  C     C_R   0.938766 0.446354 0.773691 0.186769
C172  C     C_R   0.939484 0.226643 0.445725 0.182865
C173  C     C_R   0.061393 0.446521 0.226451 0.183109
C174  C     C_R   0.060954 0.226371 0.553901 0.186907
C175  C     C_R   0.060737 0.554054 0.773320 0.182930
C176  C     C_R   0.061276 0.773560 0.446323 0.186475
C177  C     C_R   0.479379 0.774136 0.078864 0.182520
C178  C     C_R   0.773539 0.441305 0.943686 0.183550
C179  C     C_R   0.438876 0.226687 0.053815 0.182807
C180  C     C_R   0.226468 0.557948 0.057073 0.182997
C181  C     C_R   0.519056 0.774379 0.920883 0.183513
C182  C     C_R   0.226767 0.441698 0.943315 0.183184
C183  C     C_R   0.561213 0.226696 0.946230 0.183085
C184  C     C_R   0.773205 0.559287 0.055720 0.183595
C185  C     C_R   0.773616 0.939681 0.445263 0.188429
C186  C     C_R   0.451075 0.934598 0.226557 0.178755
C187  C     C_R   0.226205 0.056753 0.557870 0.183373
C188  C     C_R   0.538025 0.927447 0.774023 0.179650
C189  C     C_R   0.773254 0.057037 0.557923 0.182762
C190  C     C_R   0.465803 0.073474 0.773937 0.187634
C191  C     C_R   0.226878 0.944254 0.440396 0.183540
C192  C     C_R   0.549066 0.064538 0.226128 0.183296
C193  C     C_R   0.468164 0.074485 0.727208 0.179531
C194  C     C_R   0.440872 0.273421 0.055986 0.182975
C195  C     C_R   0.453054 0.933198 0.273338 0.184271
C196  C     C_R   0.520853 0.727600 0.921290 0.181377
C197  C     C_R   0.535472 0.926247 0.727273 0.181120
C198  C     C_R   0.481092 0.727336 0.079299 0.183608
C199  C     C_R   0.546736 0.066268 0.272859 0.182321
C200  C     C_R   0.559401 0.273454 0.944196 0.186415
C201  C     C_R   0.062761 0.273122 0.551766 0.183236
C202  C     C_R   0.273009 0.056413 0.558350 0.185428
C203  C     C_R   0.936112 0.726738 0.550621 0.178703
C204  C     C_R   0.726527 0.059143 0.555717 0.182786
C205  C     C_R   0.937573 0.273382 0.447931 0.182893
C206  C     C_R   0.726788 0.939561 0.445449 0.178966
C207  C     C_R   0.063098 0.726812 0.448538 0.183073
C208  C     C_R   0.273730 0.944701 0.440106 0.183314
C209  C     C_R   0.273508 0.443769 0.941270 0.183029
C210  C     C_R   0.936951 0.448509 0.726943 0.183342
C211  C     C_R   0.726703 0.441103 0.943885 0.183392
C212  C     C_R   0.063292 0.448776 0.273184 0.182853
C213  C     C_R   0.273208 0.555862 0.059128 0.183450
C214  C     C_R   0.936575 0.551085 0.273249 0.183338
C215  C     C_R   0.726373 0.559620 0.055337 0.183813
C216  C     C_R   0.062628 0.551845 0.726580 0.182704
Cu1   Cu    Cu3+1 0.955520 0.500000 0.500000 0.943862
Cu2   Cu    Cu3+1 0.044480 0.500000 0.500000 0.945697
Cu3   Cu    Cu3+1 0.500000 0.500000 0.044480 0.947550
Cu4   Cu    Cu3+1 0.500000 0.500000 0.955520 0.949356
Cu5   Cu    Cu3+1 0.500000 0.955520 0.500000 0.945899
Cu6   Cu    Cu3+1 0.500000 0.044480 0.500000 0.947880
Cu7   Cu    Cu3+1 0.455520 0.000000 0.000000 0.949526
Cu8   Cu    Cu3+1 0.544480 0.000000 0.000000 0.949736
Cu9   Cu    Cu3+1 0.000000 1.000000 0.544480 0.951637
Cu10  Cu    Cu3+1 0.000000 0.000000 0.455520 0.951319
Cu11  Cu    Cu3+1 0.000000 0.455520 0.000000 0.949300
Cu12  Cu    Cu3+1 0.000000 0.544480 0.000000 0.949655
H1    H     H_    0.052698 0.452999 0.137839 0.179105
H2    H     H_    0.052758 0.862177 0.452959 0.177200
H3    H     H_    0.052190 0.547430 0.861954 0.179443
H4    H     H_    0.052442 0.137746 0.547280 0.177851
H5    H     H_    0.946946 0.546693 0.137851 0.177226
H6    H     H_    0.948013 0.138015 0.452377 0.179838
H7    H     H_    0.947351 0.452909 0.862308 0.177543
H8    H     H_    0.947754 0.862069 0.547575 0.178798
H9    H     H_    0.519607 0.862919 0.932160 0.167565
H10   H     H_    0.861735 0.553709 0.045856 0.182784
H11   H     H_    0.553376 0.138142 0.953659 0.183186
H12   H     H_    0.138166 0.448975 0.951261 0.181714
H13   H     H_    0.479397 0.862823 0.067511 0.166431
H14   H     H_    0.137900 0.550839 0.048945 0.181675
H15   H     H_    0.446501 0.138124 0.046229 0.183355
H16   H     H_    0.861995 0.446467 0.954026 0.182812
H17   H     H_    0.861845 0.049021 0.550738 0.181355
H18   H     H_    0.543093 0.055509 0.137562 0.177391
H19   H     H_    0.138239 0.953785 0.446198 0.182394
H20   H     H_    0.469348 0.063119 0.862580 0.170594
H21   H     H_    0.862079 0.950926 0.449264 0.180944
H22   H     H_    0.532238 0.936708 0.862737 0.171725
H23   H     H_    0.137905 0.046181 0.552929 0.183092
H24   H     H_    0.457070 0.943639 0.137834 0.174144
H25   H     H_    0.529718 0.935413 0.638845 0.190779
H26   H     H_    0.551208 0.362091 0.951207 0.178736
H27   H     H_    0.540278 0.057814 0.361357 0.186053
H28   H     H_    0.482500 0.639116 0.068615 0.193111
H29   H     H_    0.473479 0.065278 0.638906 0.191021
H30   H     H_    0.517317 0.639346 0.931297 0.194610
H31   H     H_    0.459043 0.942209 0.361843 0.185293
H32   H     H_    0.449246 0.362022 0.049111 0.180287
H33   H     H_    0.945426 0.361909 0.455249 0.183966
H34   H     H_    0.362175 0.949198 0.451068 0.181471
H35   H     H_    0.055225 0.638276 0.455905 0.184381
H36   H     H_    0.638199 0.947621 0.452635 0.180756
H37   H     H_    0.054717 0.361678 0.544621 0.183905
H38   H     H_    0.637986 0.052105 0.547507 0.182927
H39   H     H_    0.944619 0.638202 0.544000 0.182711
H40   H     H_    0.361628 0.051166 0.548747 0.178456
H41   H     H_    0.361807 0.548004 0.051750 0.181671
H42   H     H_    0.054734 0.544560 0.638066 0.184059
H43   H     H_    0.637905 0.548912 0.050852 0.181335
H44   H     H_    0.944763 0.544086 0.361778 0.184231
H45   H     H_    0.362064 0.451748 0.948525 0.181952
H46   H     H_    0.055339 0.455997 0.361729 0.184266
H47   H     H_    0.638152 0.451491 0.948709 0.181223
H48   H     H_    0.945026 0.455616 0.638377 0.184033
O1    O     O_R   0.962420 0.435100 0.500010 -0.587125
O2    O     O_R   0.962420 0.499990 0.435100 -0.587169
O3    O     O_R   0.962420 0.564900 0.499990 -0.587585
O4    O     O_R   0.962420 0.500010 0.564900 -0.588052
O5    O     O_R   0.037580 0.564900 0.500010 -0.587136
O6    O     O_R   0.037580 0.500010 0.435100 -0.587183
O7    O     O_R   0.037580 0.435100 0.499990 -0.587027
O8    O     O_R   0.037580 0.499990 0.564900 -0.586952
O9    O     O_R   0.435100 0.499990 0.037580 -0.587595
O10   O     O_R   0.499990 0.564900 0.037580 -0.592880
O11   O     O_R   0.564900 0.500010 0.037580 -0.583298
O12   O     O_R   0.500010 0.435100 0.037580 -0.584235
O13   O     O_R   0.564900 0.499990 0.962420 -0.586525
O14   O     O_R   0.500010 0.564900 0.962420 -0.587668
O15   O     O_R   0.435100 0.500010 0.962420 -0.584204
O16   O     O_R   0.499990 0.435100 0.962420 -0.587440
O17   O     O_R   0.499990 0.962420 0.564900 -0.587578
O18   O     O_R   0.564900 0.962420 0.500010 -0.586363
O19   O     O_R   0.500010 0.962420 0.435100 -0.590298
O20   O     O_R   0.435100 0.962420 0.499990 -0.584612
O21   O     O_R   0.499990 0.037580 0.435100 -0.585827
O22   O     O_R   0.564900 0.037580 0.499990 -0.586050
O23   O     O_R   0.500010 0.037580 0.564900 -0.591192
O24   O     O_R   0.435100 0.037580 0.500010 -0.584732
O25   O     O_R   0.462420 0.935100 0.000010 -0.582547
O26   O     O_R   0.462420 0.999990 0.935100 -0.582797
O27   O     O_R   0.462420 0.064900 0.999990 -0.587103
O28   O     O_R   0.462420 0.000010 0.064900 -0.585498
O29   O     O_R   0.537580 0.064900 0.000010 -0.586950
O30   O     O_R   0.537580 0.000010 0.935100 -0.584529
O31   O     O_R   0.537580 0.935100 0.999990 -0.581879
O32   O     O_R   0.537580 0.999990 0.064900 -0.584518
O33   O     O_R   0.935100 0.999990 0.537580 -0.586840
O34   O     O_R   0.999990 0.064900 0.537580 -0.587102
O35   O     O_R   0.064900 0.000010 0.537580 -0.585173
O36   O     O_R   0.000010 0.935100 0.537580 -0.581648
O37   O     O_R   0.064900 0.999990 0.462420 -0.585465
O38   O     O_R   0.000010 0.064900 0.462420 -0.583472
O39   O     O_R   0.935100 0.000010 0.462420 -0.584386
O40   O     O_R   0.999990 0.935100 0.462420 -0.587892
O41   O     O_R   0.999990 0.462420 0.064900 -0.583738
O42   O     O_R   0.064900 0.462420 0.000010 -0.586565
O43   O     O_R   0.000010 0.462420 0.935100 -0.587133
O44   O     O_R   0.935100 0.462420 0.999990 -0.585464
O45   O     O_R   0.999990 0.537580 0.935100 -0.583747
O46   O     O_R   0.064900 0.537580 0.999990 -0.586346
O47   O     O_R   0.000010 0.537580 0.064900 -0.587031
O48   O     O_R   0.935100 0.537580 0.000010 -0.585441
N1    N     N_2   0.908092 0.580616 0.202583 -0.448679
H49   H     H_    0.876391 0.581723 0.215252 0.258267
C217  C     C_3   0.925217 0.623963 0.191243 -0.724596
H50   H     H_    0.931276 0.643662 0.221694 0.222824
H51   H     H_    0.900772 0.641793 0.170302 0.229349
H52   H     H_    0.956652 0.620982 0.172274 0.245190
N2    N     N_2   0.903421 0.797633 0.574995 -0.432522
H53   H     H_    0.894560 0.784557 0.605256 0.252098
C218  C     C_3   0.865783 0.811772 0.548869 -0.701317
H54   H     H_    0.846675 0.782672 0.537178 0.233731
H55   H     H_    0.876853 0.831368 0.519737 0.228310
H56   H     H_    0.843766 0.832966 0.569375 0.226554
N3    N     N_2   0.908814 0.418694 0.797692 -0.448922
H57   H     H_    0.877142 0.417301 0.785096 0.257984
C219  C     C_3   0.926395 0.375497 0.808975 -0.724680
H58   H     H_    0.932659 0.355851 0.778503 0.222916
H59   H     H_    0.902135 0.357463 0.829998 0.229457
H60   H     H_    0.957797 0.378746 0.827839 0.245155
N4    N     N_2   0.909840 0.202789 0.417768 -0.442043
H61   H     H_    0.878085 0.215259 0.416229 0.262067
C220  C     C_3   0.927822 0.191877 0.374656 -0.714921
H62   H     H_    0.934143 0.222512 0.355194 0.220901
H63   H     H_    0.903789 0.170977 0.356343 0.232197
H64   H     H_    0.959267 0.173017 0.378070 0.242647
N5    N     N_2   0.091445 0.418924 0.202519 -0.442074
H65   H     H_    0.123225 0.417787 0.214889 0.261946
C221  C     C_3   0.074110 0.375585 0.191681 -0.716265
H66   H     H_    0.068101 0.356058 0.222343 0.221151
H67   H     H_    0.098407 0.357565 0.170711 0.231637
H68   H     H_    0.042606 0.378597 0.172922 0.242651
N6    N     N_2   0.090810 0.202400 0.581648 -0.449011
H69   H     H_    0.122451 0.215077 0.583185 0.257666
C222  C     C_3   0.073060 0.191027 0.624766 -0.724266
H70   H     H_    0.066691 0.221462 0.644434 0.222817
H71   H     H_    0.097269 0.170014 0.642847 0.229885
H72   H     H_    0.041688 0.172120 0.621385 0.245089
N7    N     N_2   0.090523 0.581882 0.797151 -0.442150
H73   H     H_    0.122282 0.583292 0.784652 0.262191
C223  C     C_3   0.072754 0.625067 0.808092 -0.715141
H74   H     H_    0.066523 0.644565 0.777469 0.221237
H75   H     H_    0.096881 0.643272 0.828977 0.232075
H76   H     H_    0.041296 0.621779 0.826978 0.242503
N8    N     N_2   0.091645 0.797500 0.419051 -0.448474
H77   H     H_    0.123352 0.784863 0.418050 0.258377
C224  C     C_3   0.074705 0.808858 0.375653 -0.725112
H78   H     H_    0.068728 0.778413 0.355917 0.222864
H79   H     H_    0.099228 0.829824 0.357923 0.229443
H80   H     H_    0.043260 0.827809 0.378537 0.244943
N9    N     N_2   0.467530 0.798113 0.117867 -0.435370
H81   H     H_    0.440427 0.787140 0.135514 0.245809
C225  C     C_3   0.503612 0.815166 0.144418 -0.696662
H82   H     H_    0.505911 0.796332 0.175975 0.217029
H83   H     H_    0.497055 0.850479 0.152321 0.239858
H84   H     H_    0.535903 0.812954 0.126720 0.232607
N10   N     N_2   0.797575 0.411818 0.915576 -0.441760
H85   H     H_    0.783940 0.380726 0.912167 0.261134
C226  C     C_3   0.811385 0.430919 0.873756 -0.720221
H86   H     H_    0.782081 0.439909 0.853404 0.218712
H87   H     H_    0.831586 0.406387 0.855256 0.239063
H88   H     H_    0.831893 0.460952 0.879231 0.243769
N11   N     N_2   0.407437 0.202768 0.079869 -0.441753
H89   H     H_    0.401986 0.215159 0.111201 0.262147
C227  C     C_3   0.366868 0.191915 0.056819 -0.717898
H90   H     H_    0.348370 0.222574 0.048190 0.220713
H91   H     H_    0.345691 0.170969 0.078467 0.231930
H92   H     H_    0.374135 0.173126 0.026024 0.242108
N12   N     N_2   0.202477 0.587855 0.084759 -0.442196
H93   H     H_    0.214861 0.591525 0.116334 0.261688
C228  C     C_3   0.191523 0.629670 0.063907 -0.716815
H94   H     H_    0.222130 0.648652 0.056294 0.221143
H95   H     H_    0.170516 0.649572 0.086646 0.231372
H96   H     H_    0.172763 0.624156 0.032762 0.242776
N13   N     N_2   0.525674 0.798421 0.880644 -0.436944
H97   H     H_    0.549585 0.785758 0.859792 0.260171
C229  C     C_3   0.485055 0.809934 0.857878 -0.711042
H98   H     H_    0.467549 0.779535 0.846843 0.218505
H99   H     H_    0.492731 0.830494 0.828376 0.233183
H100  H     H_    0.462840 0.829349 0.879913 0.242260
N14   N     N_2   0.202924 0.411751 0.915673 -0.441846
H101  H     H_    0.215431 0.408009 0.884111 0.261862
C230  C     C_3   0.191946 0.369986 0.936605 -0.718263
H102  H     H_    0.222552 0.351008 0.944283 0.220686
H103  H     H_    0.171064 0.350044 0.913892 0.231487
H104  H     H_    0.173047 0.375577 0.967722 0.242596
N15   N     N_2   0.592578 0.202765 0.920126 -0.441786
H105  H     H_    0.598029 0.215285 0.888803 0.261686
C231  C     C_3   0.633131 0.191598 0.943135 -0.718776
H106  H     H_    0.651721 0.222116 0.951828 0.220011
H107  H     H_    0.654244 0.170679 0.921432 0.231526
H108  H     H_    0.625826 0.172666 0.973891 0.242930
N16   N     N_2   0.797075 0.588858 0.083752 -0.441842
H109  H     H_    0.783529 0.620058 0.086818 0.261313
C232  C     C_3   0.810380 0.569993 0.125809 -0.719534
H110  H     H_    0.780827 0.561379 0.146037 0.219071
H111  H     H_    0.830547 0.594508 0.144257 0.238646
H112  H     H_    0.830774 0.539765 0.120690 0.243763
N17   N     N_2   0.797752 0.908632 0.418955 -0.432825
H113  H     H_    0.784776 0.901934 0.388171 0.251810
C233  C     C_3   0.811785 0.869230 0.442492 -0.701204
H114  H     H_    0.782635 0.849414 0.452976 0.233728
H115  H     H_    0.831386 0.878209 0.472227 0.228495
H116  H     H_    0.832941 0.848642 0.420517 0.226229
N18   N     N_2   0.426175 0.902325 0.202715 -0.444907
H117  H     H_    0.427511 0.870623 0.215380 0.262756
C234  C     C_3   0.381683 0.916094 0.191303 -0.714346
H118  H     H_    0.361409 0.920658 0.221714 0.218420
H119  H     H_    0.365941 0.890336 0.170359 0.231515
H120  H     H_    0.382294 0.947654 0.172310 0.243187
N19   N     N_2   0.202040 0.085238 0.586907 -0.442321
H121  H     H_    0.215335 0.088934 0.618097 0.262244
C235  C     C_3   0.188550 0.126892 0.567269 -0.720073
H122  H     H_    0.218015 0.147051 0.558295 0.218953
H123  H     H_    0.168224 0.145704 0.591457 0.239345
H124  H     H_    0.168259 0.121151 0.537148 0.243892
N20   N     N_2   0.558052 0.891844 0.797930 -0.440492
H125  H     H_    0.552803 0.860762 0.784928 0.258574
C236  C     C_3   0.603888 0.899246 0.809768 -0.707938
H126  H     H_    0.624821 0.901114 0.779503 0.218941
H127  H     H_    0.615764 0.871410 0.830746 0.232037
H128  H     H_    0.607455 0.930463 0.828875 0.242136
N21   N     N_2   0.797100 0.085206 0.587372 -0.442030
H129  H     H_    0.784636 0.116839 0.590549 0.261971
C237  C     C_3   0.808024 0.065017 0.629500 -0.717355
H130  H     H_    0.777393 0.057692 0.648607 0.221145
H131  H     H_    0.828917 0.088074 0.649034 0.231691
H132  H     H_    0.826893 0.033796 0.624464 0.242397
N22   N     N_2   0.445816 0.109107 0.797800 -0.434197
H133  H     H_    0.451844 0.140393 0.785574 0.252643
C238  C     C_3   0.399774 0.102103 0.809349 -0.688964
H134  H     H_    0.379094 0.100374 0.779036 0.230823
H135  H     H_    0.387900 0.130008 0.830167 0.224146
H136  H     H_    0.395703 0.070898 0.828489 0.235369
N23   N     N_2   0.203082 0.916174 0.410815 -0.441620
H137  H     H_    0.216710 0.913120 0.379640 0.260889
C239  C     C_3   0.189785 0.874095 0.429676 -0.719768
H138  H     H_    0.219340 0.853910 0.438314 0.219031
H139  H     H_    0.169667 0.855613 0.405149 0.238370
H140  H     H_    0.169349 0.879181 0.459891 0.243802
N24   N     N_2   0.574561 0.096335 0.202082 -0.441701
H141  H     H_    0.573579 0.128119 0.214458 0.262188
C240  C     C_3   0.618950 0.081864 0.191024 -0.716688
H142  H     H_    0.638877 0.077131 0.221588 0.220977
H143  H     H_    0.635269 0.107291 0.169976 0.232035
H144  H     H_    0.618034 0.050237 0.172267 0.242290
N25   N     N_2   0.453511 0.112529 0.703254 -0.436445
H145  H     H_    0.464604 0.142919 0.714044 0.246630
C241  C     C_3   0.408130 0.111760 0.687883 -0.713176
H146  H     H_    0.387917 0.135868 0.706982 0.221859
H147  H     H_    0.393235 0.078227 0.691392 0.231332
H148  H     H_    0.407299 0.121328 0.652372 0.237893
N26   N     N_2   0.412015 0.297328 0.084850 -0.441983
H149  H     H_    0.380308 0.284934 0.087350 0.261972
C242  C     C_3   0.431169 0.308166 0.127404 -0.717429
H150  H     H_    0.438004 0.277501 0.146642 0.220878
H151  H     H_    0.407654 0.329107 0.146459 0.231464
H152  H     H_    0.462516 0.326955 0.123043 0.242605
N27   N     N_2   0.430474 0.899265 0.297379 -0.444923
H153  H     H_    0.400065 0.890327 0.284781 0.258297
C243  C     C_3   0.457817 0.861535 0.308833 -0.722541
H154  H     H_    0.468764 0.843891 0.278440 0.218971
H155  H     H_    0.438470 0.838257 0.329801 0.231206
H156  H     H_    0.487426 0.872244 0.327817 0.242803
N28   N     N_2   0.531403 0.703749 0.881872 -0.442250
H157  H     H_    0.517984 0.716467 0.853161 0.261118
C244  C     C_3   0.577785 0.692366 0.877399 -0.722196
H158  H     H_    0.598177 0.722808 0.873923 0.221293
H159  H     H_    0.582528 0.671529 0.847475 0.232344
H160  H     H_    0.589310 0.673268 0.906710 0.239812
N29   N     N_2   0.551932 0.888937 0.703367 -0.442390
H161  H     H_    0.580830 0.875418 0.715544 0.261033
C245  C     C_3   0.518742 0.855971 0.693017 -0.722361
H162  H     H_    0.505708 0.840620 0.723878 0.218428
H163  H     H_    0.533741 0.829669 0.672119 0.231642
H164  H     H_    0.490865 0.871134 0.674356 0.242640
N30   N     N_2   0.473732 0.703319 0.119428 -0.436559
H165  H     H_    0.449090 0.715398 0.139712 0.250517
C246  C     C_3   0.513688 0.691713 0.143244 -0.692408
H166  H     H_    0.530754 0.722019 0.155066 0.232201
H167  H     H_    0.536644 0.672624 0.121688 0.234625
H168  H     H_    0.505054 0.670808 0.172308 0.223179
N31   N     N_2   0.569225 0.100301 0.296646 -0.442594
H169  H     H_    0.599766 0.109066 0.284110 0.262076
C247  C     C_3   0.541888 0.138173 0.307596 -0.717287
H170  H     H_    0.531242 0.155644 0.276974 0.221074
H171  H     H_    0.561121 0.161539 0.328423 0.231340
H172  H     H_    0.512096 0.127660 0.326543 0.242587
N32   N     N_2   0.588548 0.297363 0.915600 -0.448406
H173  H     H_    0.620082 0.284519 0.913031 0.256836
C248  C     C_3   0.569665 0.308935 0.873074 -0.723660
H174  H     H_    0.562716 0.278584 0.853515 0.221820
H175  H     H_    0.593428 0.329917 0.854344 0.230874
H176  H     H_    0.538431 0.327946 0.877455 0.244379
N33   N     N_2   0.094865 0.296980 0.576860 -0.441991
H177  H     H_    0.101195 0.284456 0.607999 0.261830
C249  C     C_3   0.134759 0.308025 0.552575 -0.719790
H178  H     H_    0.153067 0.277450 0.543316 0.220420
H179  H     H_    0.156494 0.328896 0.573591 0.230975
H180  H     H_    0.126604 0.326965 0.522055 0.243007
N34   N     N_2   0.296620 0.084092 0.588389 -0.439889
H181  H     H_    0.283283 0.115236 0.592719 0.261619
C250  C     C_3   0.308116 0.062748 0.629776 -0.738202
H182  H     H_    0.277934 0.050609 0.647052 0.225571
H183  H     H_    0.324902 0.086939 0.651610 0.228681
H184  H     H_    0.330883 0.034436 0.623806 0.242257
N35   N     N_2   0.904343 0.702676 0.576112 -0.439523
H185  H     H_    0.899416 0.712458 0.608427 0.246654
C251  C     C_3   0.864902 0.688280 0.552984 -0.691820
H186  H     H_    0.835834 0.707788 0.564366 0.218908
H187  H     H_    0.858834 0.652803 0.560550 0.230699
H188  H     H_    0.868315 0.692051 0.516453 0.232737
N36   N     N_2   0.702552 0.089986 0.582371 -0.441763
H189  H     H_    0.714864 0.094606 0.613849 0.262000
C252  C     C_3   0.691796 0.131164 0.560186 -0.717643
H190  H     H_    0.722485 0.149802 0.552063 0.220607
H191  H     H_    0.670794 0.151839 0.582227 0.231529
H192  H     H_    0.673103 0.124737 0.529177 0.242557
N37   N     N_2   0.905448 0.297362 0.422837 -0.441975
H193  H     H_    0.899144 0.284971 0.391690 0.262207
C253  C     C_3   0.865524 0.308312 0.447110 -0.718500
H194  H     H_    0.847258 0.277698 0.456311 0.220967
H195  H     H_    0.843774 0.329298 0.426108 0.231389
H196  H     H_    0.873629 0.327097 0.477663 0.242355
N38   N     N_2   0.702806 0.909662 0.417898 -0.439547
H197  H     H_    0.712700 0.907003 0.385332 0.246269
C254  C     C_3   0.688307 0.868700 0.438344 -0.692160
H198  H     H_    0.707860 0.840486 0.425078 0.218697
H199  H     H_    0.652865 0.863183 0.430360 0.230520
H200  H     H_    0.691920 0.869558 0.475020 0.232976
N39   N     N_2   0.095728 0.702915 0.423998 -0.442034
H201  H     H_    0.102617 0.715396 0.392943 0.261771
C255  C     C_3   0.135190 0.691940 0.448915 -0.719672
H202  H     H_    0.153254 0.722541 0.458383 0.220510
H203  H     H_    0.157362 0.671031 0.428281 0.230797
H204  H     H_    0.126518 0.673068 0.479351 0.243020
N40   N     N_2   0.297896 0.917149 0.410175 -0.441237
H205  H     H_    0.284398 0.886297 0.404714 0.261271
C256  C     C_3   0.311804 0.938979 0.369726 -0.717832
H206  H     H_    0.282527 0.948508 0.349576 0.220200
H207  H     H_    0.332873 0.916102 0.350036 0.234500
H208  H     H_    0.331518 0.969100 0.377247 0.240879
N41   N     N_2   0.297500 0.416520 0.910964 -0.442103
H209  H     H_    0.285100 0.385000 0.906840 0.261719
C257  C     C_3   0.308485 0.437974 0.869452 -0.717849
H210  H     H_    0.277890 0.445866 0.850592 0.220786
H211  H     H_    0.329482 0.415526 0.849215 0.231202
H212  H     H_    0.327267 0.469034 0.875412 0.242899
N42   N     N_2   0.904717 0.423554 0.703116 -0.441764
H213  H     H_    0.898234 0.392441 0.715645 0.261884
C258  C     C_3   0.864939 0.448009 0.692118 -0.720836
H214  H     H_    0.846690 0.457339 0.722716 0.220436
H215  H     H_    0.843092 0.427090 0.671269 0.230967
H216  H     H_    0.873237 0.478499 0.673175 0.242608
N43   N     N_2   0.702828 0.411568 0.915821 -0.441627
H217  H     H_    0.716549 0.406645 0.884932 0.260969
C259  C     C_3   0.689081 0.370729 0.936945 -0.719218
H218  H     H_    0.718417 0.350773 0.946776 0.219055
H219  H     H_    0.668858 0.351131 0.913403 0.238654
H220  H     H_    0.668611 0.377663 0.966762 0.242793
N44   N     N_2   0.095798 0.424090 0.297075 -0.441951
H221  H     H_    0.102565 0.393018 0.284674 0.262188
C260  C     C_3   0.135358 0.448858 0.307899 -0.718751
H222  H     H_    0.153472 0.458277 0.277228 0.220861
H223  H     H_    0.157429 0.428132 0.328822 0.231382
H224  H     H_    0.126801 0.479312 0.326701 0.242394
N45   N     N_2   0.297050 0.583092 0.089449 -0.441797
H225  H     H_    0.284557 0.614596 0.093632 0.261715
C261  C     C_3   0.308013 0.561592 0.130917 -0.719491
H226  H     H_    0.277400 0.553658 0.149808 0.220729
H227  H     H_    0.328913 0.584031 0.151152 0.231213
H228  H     H_    0.326889 0.530554 0.124892 0.242616
N46   N     N_2   0.904091 0.575777 0.297184 -0.442107
H229  H     H_    0.897266 0.606818 0.284651 0.261698
C262  C     C_3   0.864581 0.550984 0.308352 -0.720304
H230  H     H_    0.846416 0.541478 0.277831 0.220592
H231  H     H_    0.842524 0.571727 0.329274 0.230607
H232  H     H_    0.873212 0.520580 0.327281 0.243070
N47   N     N_2   0.702299 0.589730 0.082750 -0.441689
H233  H     H_    0.715746 0.595192 0.113618 0.261511
C263  C     C_3   0.688799 0.630200 0.060743 -0.722210
H234  H     H_    0.718267 0.650074 0.051154 0.222489
H235  H     H_    0.667881 0.650153 0.083522 0.231103
H236  H     H_    0.669075 0.622708 0.030631 0.239020
N48   N     N_2   0.094869 0.576810 0.702575 -0.442114
H237  H     H_    0.101324 0.607931 0.714964 0.262321
C264  C     C_3   0.134675 0.552375 0.691590 -0.717916
H238  H     H_    0.152902 0.543097 0.722187 0.221018
H239  H     H_    0.156522 0.573291 0.670588 0.231495
H240  H     H_    0.126422 0.521857 0.672811 0.242344

loop_
_geom_bond_atom_site_label_1
_geom_bond_atom_site_label_2
_ccdc_geom_bond_type
C249  H180  S    
C257  H210  S    
C70   C140  A    
C222  H70   S    
C3    C91   S    
C231  H107  S    
N39   H201  S    
C245  H162  S    
N18   H117  S    
C227  H92   S    
C67   C143  A    
C188  N20   S    
N3    H57   S    
C202  N34   S    
C112  C184  A    
C136  C162  A    
N25   H145  S    
C26   H2    S    
C252  H192  S    
Cu3   O12   S    
Cu10  O39   S    
C143  C215  A    
C180  C213  A    
N14   C230  S    
C68   H44   S    
C69   C93   A    
N13   C229  S    
C192  N24   S    
C247  H171  S    
C71   C95   A    
C17   O33   A    
C240  H144  S    
C260  H222  S    
C19   O35   A    
C46   H22   S    
C54   C124  A    
C26   C104  A    
Cu6   O24   S    
Cu7   Cu8   S    
N30   C246  S    
C71   H47   S    
C47   C83   A    
C130  C202  A    
C224  H80   S    
C72   C94   A    
Cu4   O16   S    
N41   C257  S    
Cu5   O17   S    
C72   H48   S    
C69   C137  A    
C57   C133  A    
C170  N2    S    
C56   H32   S    
C135  C163  A    
C122  C194  A    
C27   C75   A    
C5    O15   A    
Cu9   O35   S    
C233  H116  S    
C155  C162  A    
C55   C123  A    
C24   O48   A    
N24   H141  S    
C151  C158  A    
C62   C132  A    
C64   C90   A    
N10   H85   S    
C35   H11   S    
C233  H115  S    
C36   C80   A    
N33   C249  S    
C184  C215  A    
N45   H225  S    
C258  H214  S    
C263  H234  S    
C174  C201  A    
Cu2   O5    S    
C48   H24   S    
C258  H216  S    
C189  N21   S    
C237  H131  S    
C1    O1    A    
C66   H42   S    
C263  H235  S    
C30   C76   A    
C56   C86   A    
N6    H69   S    
C25   H1    S    
C16   O28   A    
C221  H67   S    
C122  C158  A    
N28   C244  S    
C59   C91   A    
Cu8   O32   S    
C220  H64   S    
C139  C167  A    
C29   H5    S    
C40   H16   S    
C46   C84   A    
Cu1   O2    S    
C222  H72   S    
C181  N13   S    
N29   C245  S    
C117  C153  A    
C226  H86   S    
C4    O4    A    
C260  H224  S    
C173  C212  A    
C51   C87   A    
C227  H90   S    
C60   C134  A    
N26   H149  S    
C48   C114  A    
C32   H8    S    
C218  H56   S    
C229  H99   S    
C99   C147  A    
Cu3   O10   S    
C107  C179  A    
C97   C145  A    
C45   C81   A    
C105  C177  A    
C182  N14   S    
C225  H82   S    
N23   H137  S    
C20   O40   A    
C69   H45   S    
C228  H94   S    
C21   O41   A    
C139  C211  A    
C175  C216  A    
C23   O43   A    
Cu2   O7    S    
C254  H199  S    
C255  H202  S    
C230  H102  S    
C54   C88   A    
C123  C159  A    
C124  C160  A    
C2    C96   S    
Cu12  O47   S    
C32   C98   A    
C184  N16   S    
C8    C86   S    
C212  N44   S    
C179  N11   S    
N21   H129  S    
C34   H10   S    
C116  C156  A    
C185  N17   S    
C142  C168  A    
C8    O12   A    
C243  H156  S    
Cu5   O19   S    
C169  N1    S    
C257  H212  S    
C63   C91   A    
C53   C85   A    
C259  H219  S    
N47   H233  S    
C114  C154  A    
C6    O14   A    
N11   C227  S    
C145  C168  A    
Cu7   O28   S    
N2    C218  S    
N17   H113  S    
C106  C150  A    
Cu6   O23   S    
C100  C172  A    
C43   C83   A    
C101  C173  A    
N48   H237  S    
C176  N8    S    
C9    O17   A    
C264  H238  S    
C221  H68   S    
C103  C147  A    
C104  C176  A    
N41   H209  S    
C11   O19   A    
C239  H139  S    
C187  C202  A    
C101  C145  A    
N37   H193  S    
C17   O39   A    
C59   H35   S    
C172  C205  A    
C251  H187  S    
N43   C259  S    
C241  H147  S    
C32   C74   A    
Cu2   O8    S    
C229  H98   S    
C30   C100  A    
C187  N19   S    
C6    C88   S    
C238  H135  S    
C59   C135  A    
N1    C217  S    
C181  C196  A    
C45   H21   S    
Cu1   O4    S    
C15   C79   S    
N46   H229  S    
C11   C87   S    
C226  H88   S    
C174  N6    S    
N16   C232  S    
C68   C142  A    
C15   O27   A    
C28   H4    S    
C47   H23   S    
C61   C129  A    
C107  C151  A    
C130  C162  A    
C72   C138  A    
C206  N38   S    
C246  H166  S    
C67   C95   A    
C19   C83   S    
C111  C183  A    
C232  H111  S    
C11   O21   A    
C39   H15   S    
Cu12  O48   S    
C228  H96   S    
N31   C247  S    
C37   H13   S    
C18   O34   A    
C200  N32   S    
C104  C146  A    
C52   C88   A    
C230  H104  S    
C144  C216  A    
C52   C126  A    
C256  H207  S    
Cu1   Cu2   S    
C31   H7    S    
C138  C210  A    
C177  N9    S    
C248  H175  S    
C56   C122  A    
C211  N43   S    
C70   C96   A    
C37   C105  A    
Cu5   Cu6   S    
C172  N4    S    
C115  C187  A    
C243  H154  S    
C48   C82   A    
C44   C118  A    
C113  C185  A    
C124  C196  A    
C120  C154  A    
N27   H153  S    
C253  H196  S    
C129  C161  A    
C244  H159  S    
C143  C167  A    
C117  C189  A    
N6    C222  S    
Cu7   O26   S    
C201  N33   S    
C111  C151  A    
C31   C99   A    
N4    C220  S    
Cu6   O21   S    
C36   C110  A    
C223  H76   S    
C112  C150  A    
N5    C221  S    
N32   H173  S    
C264  H240  S    
C40   C106  A    
C225  H84   S    
C109  C181  A    
C249  H179  S    
C180  N12   S    
C42   H18   S    
Cu10  O40   S    
C197  N29   S    
C185  C206  A    
C199  N31   S    
N39   C255  S    
C64   C130  A    
C227  H91   S    
C127  C199  A    
C2    O2    A    
C261  H228  S    
N34   H181  S    
Cu2   O6    S    
Cu3   O11   S    
C183  C200  A    
N40   H205  S    
C210  N42   S    
C138  C166  A    
C259  H220  S    
C250  H183  S    
N15   H105  S    
C110  C152  A    
C173  N5    S    
C154  C159  A    
N13   H97   S    
C21   O47   A    
C23   O45   A    
C35   C79   A    
C240  H143  S    
C245  H164  S    
C5    O9    A    
N36   C252  S    
C55   C87   A    
C171  N3    S    
C255  H204  S    
C7    O11   A    
N22   H133  S    
C98   C170  A    
C236  H128  S    
C219  H60   S    
C222  H71   S    
C256  H206  S    
C250  H184  S    
N28   H157  S    
C204  N36   S    
C235  H123  S    
C106  C178  A    
C16   O32   A    
C205  N37   S    
C224  H79   S    
Cu4   O13   S    
C12   O20   A    
C70   H46   S    
C22   O42   A    
C260  H223  S    
C60   H36   S    
N38   H197  S    
C196  N28   S    
C14   C84   S    
C51   H27   S    
C262  H232  S    
C137  C165  A    
Cu9   O34   S    
C2    O6    A    
C47   C115  A    
N7    C223  S    
C57   H33   S    
C68   C96   A    
C57   C89   A    
C253  H194  S    
C218  H54   S    
C135  C207  A    
Cu9   Cu10  S    
N9    C225  S    
N33   H177  S    
C125  C157  A    
C234  H120  S    
C66   C144  A    
C34   C112  A    
N12   C228  S    
C258  H215  S    
C26   C74   A    
C190  C193  A    
C108  C152  A    
C22   O46   A    
N8    H77   S    
N19   C235  S    
C1    C89   S    
C223  H74   S    
C63   C131  A    
Cu8   O29   S    
C220  H63   S    
C131  C203  A    
C10   O18   A    
C67   H43   S    
C207  N39   S    
Cu1   O1    S    
C10   C92   S    
N42   H213  S    
Cu10  O38   S    
N29   H161  S    
C58   H34   S    
C231  H108  S    
Cu11  O43   S    
N23   C239  S    
C123  C195  A    
N34   C250  S    
C121  C193  A    
N3    C219  S    
C18   O38   A    
C218  H55   S    
N5    H65   S    
Cu3   O9    S    
C53   H29   S    
C225  H83   S    
C213  N45   S    
C237  H130  S    
C249  H178  S    
C214  N46   S    
C142  C214  A    
C65   C141  A    
C64   H40   S    
Cu3   Cu4   S    
N44   C260  S    
C171  C210  A    
C247  H172  S    
C191  N23   S    
C234  H118  S    
C37   C77   A    
C259  H218  S    
C144  C166  A    
C39   C79   A    
N15   C231  S    
C241  H146  S    
C132  C164  A    
C55   H31   S    
C242  H150  S    
C50   H26   S    
N18   C234  S    
C15   O29   A    
C31   C75   A    
C219  H58   S    
C209  N41   S    
C256  H208  S    
C41   C81   A    
C103  C175  A    
C186  N18   S    
C20   C74   S    
N8    C224  S    
C203  N35   S    
C58   C90   A    
C170  C203  A    
Cu4   O15   S    
C24   C78   S    
C243  H155  S    
Cu5   O18   S    
C257  H211  S    
C40   C78   A    
C252  H191  S    
C28   C76   A    
C7    C95   S    
C140  C212  A    
Cu9   O36   S    
C136  C208  A    
N11   H89   S    
N7    H73   S    
C12   C90   S    
Cu7   O27   S    
C242  H151  S    
C18   C76   S    
C41   H17   S    
C13   O31   A    
C215  N47   S    
C141  C165  A    
C23   C75   S    
C44   C84   A    
N45   C261  S    
C183  N15   S    
N48   C264  S    
C102  C174  A    
C126  C160  A    
C254  H200  S    
C49   C125  A    
C262  H231  S    
C114  C186  A    
C46   C116  A    
C51   C127  A    
N20   C236  S    
C52   H28   S    
C237  H132  S    
C217  H50   S    
N2    H53   S    
C53   C121  A    
N35   C251  S    
C263  H236  S    
C118  C190  A    
C25   C101  A    
C1    O7    A    
C188  C197  A    
C150  C167  A    
C7    O13   A    
C27   C103  A    
C134  C164  A    
C178  C211  A    
C17   C81   S    
Cu8   O31   S    
C38   C108  A    
N1    H49   S    
C9    O23   A    
C33   H9    S    
C44   H20   S    
C22   C80   S    
Cu11  O42   S    
C45   C113  A    
Cu1   O3    S    
C99   C171  A    
C110  C182  A    
N37   C253  S    
C189  C204  A    
C137  C209  A    
C231  H106  S    
C226  H87   S    
C175  N7    S    
C60   C92   A    
C62   H38   S    
N22   C238  S    
C179  C194  A    
C36   H12   S    
C229  H100  S    
N4    H61   S    
N32   C248  S    
C21   C73   S    
C238  H136  S    
N14   H101  S    
C42   C82   A    
N20   H125  S    
C42   C120  A    
Cu12  O46   S    
C128  C200  A    
C232  H110  S    
C216  N48   S    
C128  C158  A    
N12   H93   S    
N40   C256  S    
Cu12  O45   S    
C39   C107  A    
C169  C214  A    
C116  C188  A    
N31   H169  S    
C254  H198  S    
C38   C80   A    
C190  N22   S    
C148  C161  A    
C176  C207  A    
C156  C157  A    
C6    O10   A    
C119  C191  A    
C242  H152  S    
C43   H19   S    
C120  C192  A    
N10   C226  S    
C230  H103  S    
C29   C73   A    
C133  C205  A    
N30   H165  S    
C97   C169  A    
C108  C180  A    
C251  H186  S    
C248  H174  S    
C192  C199  A    
N21   C237  S    
C4    O8    A    
C3    O3    A    
Cu11  Cu12  S    
Cu5   O20   S    
C62   C92   A    
N36   H189  S    
C253  H195  S    
C193  N25   S    
C194  N26   S    
C131  C163  A    
C198  N30   S    
N47   C263  S    
C65   H41   S    
C244  H158  S    
C25   C73   A    
C66   C94   A    
C235  H124  S    
C9    C85   S    
Cu7   O25   S    
C125  C197  A    
N17   C233  S    
C121  C157  A    
Cu6   O22   S    
C13   O25   A    
C223  H75   S    
C14   O30   A    
C149  C160  A    
C61   C89   A    
C102  C148  A    
C234  H119  S    
C152  C165  A    
C38   H14   S    
C239  H140  S    
C13   C77   S    
N42   C258  S    
C247  H170  S    
C153  C164  A    
C49   C85   A    
C186  C195  A    
C251  H188  S    
C208  N40   S    
C14   O26   A    
C241  H148  S    
C141  C213  A    
C233  H114  S    
C261  H227  S    
C50   C86   A    
C71   C139  A    
C98   C146  A    
C58   C136  A    
C252  H190  S    
C182  C209  A    
C30   H6    S    
C235  H122  S    
C228  H95   S    
C236  H127  S    
C109  C149  A    
C262  H230  S    
C147  C166  A    
C10   O22   A    
C49   H25   S    
N16   H109  S    
C20   O36   A    
N35   H185  S    
C240  H142  S    
C245  H163  S    
C19   O37   A    
C118  C156  A    
C255  H203  S    
C134  C206  A    
C61   H37   S    
C132  C204  A    
C4    C94   S    
C27   H3    S    
C219  H59   S    
N43   H217  S    
C177  C198  A    
C246  H167  S    
N38   C254  S    
Cu11  O41   S    
C246  H168  S    
C33   C109  A    
C140  C168  A    
C127  C159  A    
C232  H112  S    
C35   C111  A    
C224  H78   S    
C8    O16   A    
C16   C82   S    
Cu4   O14   S    
C119  C155  A    
N46   C262  S    
C113  C153  A    
C133  C161  A    
C115  C155  A    
C217  H52   S    
C5    C93   S    
Cu9   O33   S    
Cu10  O37   S    
C105  C149  A    
C146  C163  A    
N26   C242  S    
C29   C97   A    
C248  H176  S    
C41   C117  A    
N25   C241  S    
C264  H239  S    
C129  C201  A    
N44   H221  S    
C24   O44   A    
N9    H81   S    
C34   C78   A    
C221  H66   S    
C126  C198  A    
C236  H126  S    
Cu11  O44   S    
C217  H51   S    
C100  C148  A    
C54   H30   S    
C65   C93   A    
N27   C243  S    
C239  H138  S    
C191  C208  A    
C238  H134  S    
C244  H160  S    
C195  N27   S    
C261  H226  S    
C28   C102  A    
C3    O5    A    
C50   C128  A    
C12   O24   A    
N19   H121  S    
C43   C119  A    
N24   C240  S    
Cu8   O30   S    
C220  H62   S    
C250  H182  S    
C63   H39   S    
C33   C77   A    
C178  N10   S    
