data_mof_unit_53303.cif
_audit_creation_date              2012-12-10T16:32:37-0500
_audit_creation_method            fapswitch 2.2
_symmetry_space_group_name_H-M    P1
_symmetry_Int_Tables_number       1
_space_group_crystal_system       triclinic
_cell_length_a                    16.870503
_cell_length_b                    16.849736
_cell_length_c                    16.909131
_cell_angle_alpha                 64.335929
_cell_angle_beta                  65.792335
_cell_angle_gamma                 65.452309
_cell_volume                      3782.47442366

loop_
_atom_site_label
_atom_site_type_symbol
_atom_type_description
_atom_site_fract_x
_atom_site_fract_y
_atom_site_fract_z
_atom_type_partial_charge
C1    C     C_R   0.585696 0.049225 0.586293 0.162024
C2    C     C_R   0.404494 0.980934 0.404566 0.152431
C3    C     C_R   0.038502 0.599213 0.583924 0.142109
C4    C     C_R   0.965261 0.416036 0.399657 0.139170
C5    C     C_R   0.591082 0.591665 0.032351 0.130977
C6    C     C_R   0.410651 0.410670 0.961930 0.129002
C7    C     C_R   0.970108 0.178758 0.432675 0.907429
C8    C     C_R   0.046488 0.821838 0.558595 0.880401
C9    C     C_R   0.178788 0.436362 0.965006 0.907854
C10   C     C_R   0.821392 0.563471 0.034968 0.883660
C11   C     C_R   0.435560 0.966483 0.179012 0.912839
C12   C     C_R   0.566565 0.027362 0.822529 0.908665
C13   C     C_R   0.562811 0.820713 0.037590 0.893960
C14   C     C_R   0.437012 0.179477 0.962721 0.897616
C15   C     C_R   0.029607 0.567699 0.821336 0.898056
C16   C     C_R   0.954906 0.440812 0.178241 0.907781
C17   C     C_R   0.822958 0.025839 0.566655 0.906713
C18   C     C_R   0.178741 0.965353 0.436609 0.867683
C19   C     C_R   0.535728 0.035989 0.540069 0.060894
C20   C     C_R   0.449578 0.001030 0.450565 0.056556
C21   C     C_R   0.019677 0.553115 0.535721 0.069669
C22   C     C_R   0.984511 0.463877 0.445910 0.071363
C23   C     C_R   0.544679 0.545904 0.013814 -0.006388
C24   C     C_R   0.456901 0.456668 0.980420 -0.005191
C25   C     C_R   0.520797 0.098926 0.455717 0.018356
C26   C     C_R   0.464730 0.938237 0.534886 0.020147
C27   C     C_R   0.017639 0.460210 0.576844 0.023758
C28   C     C_R   0.000238 0.551585 0.399592 0.026557
C29   C     C_R   0.530006 0.576517 0.927337 0.011217
C30   C     C_R   0.471400 0.426235 0.066953 0.010139
C31   C     C_R   0.477234 0.081705 0.411063 0.019329
C32   C     C_R   0.507795 0.955536 0.579470 0.027591
C33   C     C_R   0.485969 0.532109 0.911113 0.100106
C34   C     C_R   0.515481 0.470571 0.083160 0.100202
C35   C     C_R   0.986993 0.422164 0.538481 0.022608
C36   C     C_R   0.003608 0.600141 0.448351 0.024272
C37   C     C_R   0.546949 0.050377 0.676493 -0.232566
C38   C     C_R   0.446010 0.974629 0.316457 -0.232688
C39   C     C_R   0.072739 0.675817 0.536933 -0.198847
C40   C     C_R   0.985137 0.319641 0.428770 -0.213037
C41   C     C_R   0.680791 0.550506 0.035547 -0.223536
C42   C     C_R   0.320526 0.451290 0.959745 -0.230799
C43   C     C_R   0.316993 0.972088 0.447301 -0.205379
C44   C     C_R   0.677301 0.045929 0.546992 -0.224618
C45   C     C_R   0.452768 0.322032 0.955657 -0.237017
C46   C     C_R   0.548885 0.679829 0.039591 -0.250319
C47   C     C_R   0.931817 0.463310 0.322384 -0.220415
C48   C     C_R   0.017266 0.570899 0.679935 -0.232515
C49   C     C_R   0.603863 0.027624 0.730138 -0.074992
C50   C     C_R   0.403557 0.950653 0.276428 -0.083857
C51   C     C_R   0.078793 0.721739 0.585970 -0.150433
C52   C     C_R   0.952933 0.277081 0.396736 -0.132556
C53   C     C_R   0.724129 0.594418 0.053734 -0.116243
C54   C     C_R   0.276774 0.406598 0.943050 -0.085054
C55   C     C_R   0.276134 0.948215 0.405811 -0.119751
C56   C     C_R   0.730702 0.024580 0.603810 -0.119872
C57   C     C_R   0.407038 0.278714 0.939893 -0.122386
C58   C     C_R   0.594308 0.722510 0.056630 -0.111965
C59   C     C_R   0.924213 0.413904 0.277662 -0.098249
C60   C     C_R   0.047419 0.603989 0.723366 -0.094060
C61   C     C_R   0.696606 0.993852 0.697320 0.103432
C62   C     C_R   0.326568 0.920892 0.328551 0.107064
C63   C     C_R   0.089205 0.674206 0.672455 0.118514
C64   C     C_R   0.910646 0.328586 0.327063 0.107555
C65   C     C_R   0.675671 0.673480 0.078750 0.096902
C66   C     C_R   0.326624 0.328644 0.915562 0.108891
H1    H     H_    0.474212 0.062437 0.706111 0.158354
H2    H     H_    0.510202 0.990267 0.278791 0.170141
H3    H     H_    0.088998 0.705355 0.463706 0.172601
H4    H     H_    0.026119 0.276766 0.475594 0.174890
H5    H     H_    0.717309 0.486120 0.020619 0.164492
H6    H     H_    0.283842 0.515400 0.975193 0.164652
H7    H     H_    0.279879 0.987506 0.511032 0.164414
H8    H     H_    0.707625 0.054383 0.474673 0.166159
H9    H     H_    0.519157 0.285688 0.967252 0.159993
H10   H     H_    0.482213 0.716033 0.028659 0.162962
H11   H     H_    0.916777 0.536775 0.291840 0.175038
H12   H     H_    0.976729 0.523823 0.721835 0.175187
O1    O     O_R   0.982940 0.138950 0.510160 -0.619462
O2    O     O_R   0.017060 0.861050 0.489840 -0.616413
O3    O     O_R   0.138950 0.510160 0.982940 -0.631603
O4    O     O_R   0.861050 0.489840 0.017060 -0.642138
O5    O     O_R   0.510160 0.982940 0.138950 -0.641546
O6    O     O_R   0.489840 0.017060 0.861050 -0.640811
O7    O     O_R   0.489840 0.861050 0.017060 -0.638882
O8    O     O_R   0.510160 0.138950 0.982940 -0.627496
O9    O     O_R   0.017060 0.489840 0.861050 -0.631924
O10   O     O_R   0.982940 0.510160 0.138950 -0.625863
O11   O     O_R   0.861050 0.017060 0.489840 -0.631156
O12   O     O_R   0.138950 0.982940 0.510160 -0.639458
O13   O     O_R   0.867700 0.025880 0.612340 -0.631764
O14   O     O_R   0.132300 0.974120 0.387660 -0.636866
O15   O     O_R   0.025880 0.612340 0.867700 -0.629108
O16   O     O_R   0.974120 0.387660 0.132300 -0.619051
O17   O     O_R   0.612340 0.867700 0.025880 -0.612564
O18   O     O_R   0.387660 0.132300 0.974120 -0.632993
O19   O     O_R   0.387660 0.974120 0.132300 -0.621761
O20   O     O_R   0.612340 0.025880 0.867700 -0.630831
O21   O     O_R   0.132300 0.387660 0.974120 -0.618799
O22   O     O_R   0.867700 0.612340 0.025880 -0.622600
O23   O     O_R   0.974120 0.132300 0.387660 -0.634659
O24   O     O_R   0.025880 0.867700 0.612340 -0.640778
Zn1   Zn    Zn3+2 0.004880 0.004880 0.583590 0.918501
Zn2   Zn    Zn3+2 0.995120 0.995120 0.416410 0.925587
Zn3   Zn    Zn3+2 0.004880 0.583590 0.004880 0.915766
Zn4   Zn    Zn3+2 0.995120 0.416410 0.995120 0.928380
Zn5   Zn    Zn3+2 0.583590 0.004880 0.004880 0.911773
Zn6   Zn    Zn3+2 0.416410 0.995120 0.995120 0.919486
N1    N     N_3   0.526423 0.889982 0.663732 -0.453317
H13   H     H_    0.465260 0.880861 0.712458 0.179684
H14   H     H_    0.568064 0.827171 0.652879 0.191061
N2    N     N_3   0.459173 0.146504 0.326473 -0.465141
H15   H     H_    0.418138 0.209680 0.336754 0.195552
H16   H     H_    0.520651 0.154979 0.278036 0.180659
N3    N     N_3   0.986252 0.698081 0.409945 -0.470025
H17   H     H_    0.034642 0.713942 0.347020 0.169683
H18   H     H_    0.921936 0.726913 0.399240 0.189815
N4    N     N_3   0.955022 0.342923 0.595598 -0.468118
H19   H     H_    0.007375 0.288702 0.620441 0.173746
H20   H     H_    0.901261 0.359089 0.650983 0.189021
N5    N     N_3   0.530138 0.439784 0.170898 -0.450325
H21   H     H_    0.467140 0.444130 0.220313 0.197627
H22   H     H_    0.568799 0.370704 0.184732 0.186119
N6    N     N_3   0.471170 0.562955 0.823444 -0.449015
H23   H     H_    0.432333 0.631973 0.809785 0.187046
H24   H     H_    0.534112 0.558817 0.773943 0.199684
N7    N     N_3   0.438149 0.855472 0.573568 -0.462046
H25   H     H_    0.495623 0.798799 0.580270 0.187096
H26   H     H_    0.392401 0.853417 0.638324 0.175832
N8    N     N_3   0.549214 0.180551 0.416611 -0.469188
H27   H     H_    0.595183 0.181437 0.352143 0.175953
H28   H     H_    0.492512 0.237953 0.408860 0.187428
N9    N     N_3   0.439884 0.351773 0.140212 -0.484145
H29   H     H_    0.473550 0.292017 0.121466 0.191940
H30   H     H_    0.370316 0.367137 0.150620 0.199840
N10   N     N_3   0.561243 0.651249 0.854215 -0.482888
H31   H     H_    0.630818 0.636043 0.843675 0.195991
H32   H     H_    0.527546 0.710844 0.873256 0.191404
N11   N     N_3   0.017210 0.590559 0.302240 -0.472684
H33   H     H_    0.968554 0.654067 0.286430 0.169229
H34   H     H_    0.081397 0.600993 0.274044 0.188639
N12   N     N_3   0.049759 0.402565 0.656032 -0.469678
H35   H     H_    0.997554 0.377889 0.709575 0.174328
H36   H     H_    0.103675 0.346633 0.640282 0.186493
C67   C     C_3   0.755581 0.915571 0.758272 -0.366581
C68   C     C_3   0.721256 0.830505 0.807015 -0.850626
H37   H     H_    0.650906 0.846069 0.851604 0.263070
H38   H     H_    0.722939 0.804502 0.755966 0.257283
H39   H     H_    0.765526 0.775395 0.850101 0.244537
H40   H     H_    0.826304 0.890872 0.717887 0.221711
H41   H     H_    0.760498 0.938094 0.808263 0.225398
C69   C     C_3   0.299735 0.859539 0.304614 -0.371044
C70   C     C_3   0.377718 0.773172 0.291909 -0.881921
H42   H     H_    0.353359 0.727648 0.281199 0.248662
H43   H     H_    0.402426 0.734886 0.353789 0.260240
H44   H     H_    0.435057 0.790506 0.231607 0.246674
H45   H     H_    0.243628 0.834021 0.360967 0.202225
H46   H     H_    0.274885 0.898091 0.242998 0.230907
C71   C     C_3   0.141241 0.702582 0.706628 -0.366913
C72   C     C_3   0.223971 0.624657 0.731519 -0.863637
H47   H     H_    0.203063 0.568878 0.793032 0.259823
H48   H     H_    0.267133 0.596702 0.673831 0.258801
H49   H     H_    0.264880 0.650954 0.746584 0.248079
H50   H     H_    0.168437 0.759502 0.651844 0.202552
H51   H     H_    0.096500 0.729491 0.764547 0.228588
C73   C     C_3   0.854917 0.294035 0.303762 -0.370046
C74   C     C_3   0.767977 0.368054 0.283585 -0.882876
H52   H     H_    0.727016 0.396020 0.341547 0.262017
H53   H     H_    0.783753 0.425086 0.220216 0.247197
H54   H     H_    0.726796 0.337580 0.273987 0.251735
H55   H     H_    0.896394 0.267749 0.244840 0.228833
H56   H     H_    0.831918 0.236927 0.362675 0.215690
C75   C     C_3   0.701395 0.695444 0.142352 -0.365027
C76   C     C_3   0.762328 0.759670 0.093959 -0.724189
H57   H     H_    0.779824 0.779965 0.018337 0.266496
H58   H     H_    0.727683 0.822987 0.114363 0.227040
H59   H     H_    0.826293 0.725287 0.114503 0.224710
H60   H     H_    0.638376 0.726311 0.189348 0.181365
H61   H     H_    0.735626 0.630037 0.187691 0.178733
C77   C     C_3   0.296337 0.298365 0.861875 -0.370456
C78   C     C_3   0.272921 0.375822 0.776870 -0.871610
H62   H     H_    0.207726 0.427266 0.795735 0.264529
H63   H     H_    0.327667 0.409967 0.736590 0.260966
H64   H     H_    0.265490 0.347079 0.733142 0.250284
H65   H     H_    0.352358 0.243420 0.835598 0.207299
H66   H     H_    0.238530 0.269366 0.906005 0.231574

loop_
_geom_bond_atom_site_label_1
_geom_bond_atom_site_label_2
_ccdc_geom_bond_type
C25   C31   A    
C39   C51   A    
C73   H56   S    
C6    C45   A    
C15   C60   S    
O8    Zn5   S    
C17   O13   A    
C71   H50   S    
C63   C71   S    
C57   C66   A    
N4    H20   S    
C46   H10   S    
C12   C49   S    
C74   H53   S    
C21   C36   A    
C78   H62   S    
C26   C32   A    
C22   C35   A    
C45   C57   A    
C59   C64   A    
C62   C69   S    
C13   O17   A    
C60   C63   A    
C23   C29   A    
C7    O1    A    
C7    C52   S    
C17   C56   S    
N1    H14   S    
C67   C68   S    
C25   N8    S    
C48   H12   S    
N3    H17   S    
C55   C62   A    
C29   C33   A    
C3    C48   A    
C27   N12   S    
C4    C22   S    
C12   O6    A    
C14   O18   A    
O21   Zn4   S    
C10   C53   S    
C2    C38   A    
C76   H57   S    
C64   C73   S    
C1    C44   A    
O15   Zn3   S    
N4    H19   S    
O19   Zn6   S    
C43   H7    S    
C4    C40   A    
N3    H18   S    
C33   N6    S    
C31   N2    S    
C8    O2    A    
C45   H9    S    
C70   H43   S    
O7    Zn6   S    
C53   C65   A    
C12   O20   A    
C67   H40   S    
C1    C37   A    
C41   H5    S    
C30   N9    S    
O18   Zn6   S    
C3    C39   A    
C73   H55   S    
C9    O21   A    
C22   C28   A    
C46   C58   A    
O1    Zn1   S    
C28   N11   S    
C19   C32   A    
N2    H16   S    
N2    H15   S    
C48   C60   A    
C74   H54   S    
C68   H38   S    
C78   H63   S    
C39   H3    S    
C69   H46   S    
C1    C19   S    
C49   C61   A    
C32   N1    S    
C30   C34   A    
C14   C57   S    
C2    C20   S    
C18   O12   A    
C72   H49   S    
C44   H8    S    
C51   C63   A    
C14   O8    A    
N10   H32   S    
C52   C64   A    
C74   H52   S    
C13   C58   S    
C27   C35   A    
C75   C76   S    
C66   C77   S    
C10   O4    A    
O20   Zn5   S    
C71   H51   S    
C16   C59   S    
C72   H48   S    
N8    H28   S    
N7    H26   S    
C68   H39   S    
C37   C49   A    
C44   C56   A    
C58   C65   A    
C71   C72   S    
C5    C23   S    
C2    C43   A    
C23   C34   A    
C6    C24   S    
C42   H6    S    
O22   Zn3   S    
C17   O11   A    
C70   H44   S    
C10   O22   A    
C76   H59   S    
C41   C53   A    
N5    H21   S    
C67   H41   S    
O17   Zn5   S    
C18   C55   S    
C38   C50   A    
C43   C55   A    
C38   H2    S    
C34   N5    S    
O11   Zn2   S    
C7    O23   A    
N9    H29   S    
C50   C62   A    
N12   H36   S    
C3    C21   S    
C24   C30   A    
C47   H11   S    
N7    H25   S    
C77   C78   S    
N6    H24   S    
C68   H37   S    
C78   H64   S    
C8    C51   S    
O3    Zn3   S    
C5    C41   A    
C69   H45   S    
O16   Zn4   S    
C65   C75   S    
N12   H35   S    
O13   Zn1   S    
N10   H31   S    
C35   N4    S    
C15   O15   A    
N11   H33   S    
C54   C66   A    
O23   Zn2   S    
C5    C46   A    
C40   H4    S    
C16   O16   A    
C24   C33   A    
C11   O19   A    
C77   H66   S    
C18   O14   A    
C72   H47   S    
N8    H27   S    
C11   C50   S    
C40   C52   A    
N1    H13   S    
C42   C54   A    
O10   Zn3   S    
N11   H34   S    
C11   O5    A    
C73   C74   S    
O9    Zn4   S    
C20   C26   A    
C75   H60   S    
C16   O10   A    
C37   H1    S    
C61   C67   S    
O6    Zn6   S    
O5    Zn5   S    
C26   N7    S    
O4    Zn4   S    
C21   C27   A    
O24   Zn1   S    
C19   C25   A    
C76   H58   S    
O12   Zn1   S    
N5    H22   S    
C77   H65   S    
O14   Zn2   S    
C47   C59   A    
C29   N10   S    
C69   C70   S    
C28   C36   A    
C6    C42   A    
C15   O9    A    
C13   O7    A    
N9    H30   S    
C75   H61   S    
C56   C61   A    
O2    Zn2   S    
C9    C54   S    
C70   H42   S    
C36   N3    S    
C8    O24   A    
C20   C31   A    
C9    O3    A    
N6    H23   S    
C4    C47   A    
