data_mof_unit_46382.cif
_audit_creation_date              2012-12-10T18:23:07-0500
_audit_creation_method            fapswitch 2.2
_symmetry_space_group_name_H-M    P1
_symmetry_Int_Tables_number       1
_space_group_crystal_system       triclinic
_cell_length_a                    14.916464
_cell_length_b                    14.171224
_cell_length_c                    10.465633
_cell_angle_alpha                 89.356577
_cell_angle_beta                  88.712891
_cell_angle_gamma                 89.484566
_cell_volume                      2211.49091585

loop_
_atom_site_label
_atom_site_type_symbol
_atom_type_description
_atom_site_fract_x
_atom_site_fract_y
_atom_site_fract_z
_atom_type_partial_charge
C1    C     C_R   0.327493 0.500576 0.495206 0.918293
C2    C     C_R   0.949875 0.570106 0.289145 -0.169777
C3    C     C_R   0.563459 0.798551 0.428489 0.080019
C4    C     C_R   0.436540 0.201448 0.571512 0.079999
C5    C     C_R   0.436525 0.798508 0.571316 0.048475
C6    C     C_R   0.563477 0.201492 0.428688 0.048475
C7    C     C_R   0.436870 0.899023 0.575278 -0.002676
C8    C     C_R   0.563136 0.100976 0.424731 -0.002706
C9    C     C_R   0.563101 0.899172 0.424536 0.000377
C10   C     C_R   0.436906 0.100826 0.575473 0.000453
C11   C     C_R   0.500002 0.949468 0.499967 0.060411
C12   C     C_R   0.672507 0.499424 0.504795 0.918330
C13   C     C_R   0.500004 0.050531 0.500039 0.060394
C14   C     C_R   0.376955 0.950502 0.654477 -0.173814
C15   C     C_R   0.623060 0.049496 0.345544 -0.173800
C16   C     C_R   0.622952 0.950989 0.345296 -0.161914
C17   C     C_R   0.377065 0.049009 0.654727 -0.161880
C18   C     C_R   0.500106 0.500585 0.257793 0.968368
C19   C     C_R   0.499893 0.499415 0.742206 0.968377
C20   C     C_3   0.498073 0.589707 0.036645 0.463122
C21   C     C_3   0.501926 0.410293 0.963352 0.463113
C22   C     C_3   0.572499 0.544308 0.955009 0.428297
C23   C     C_R   0.953083 0.499718 0.502884 0.070478
C24   C     C_3   0.427499 0.455692 0.044989 0.428238
C25   C     C_3   0.423588 0.544531 0.958574 -0.521839
C26   C     C_3   0.576411 0.455469 0.041424 -0.521778
C27   C     C_3   0.499404 0.498374 0.876834 -0.208994
C28   C     C_3   0.500595 0.501625 0.123165 -0.209012
C29   C     C_R   0.812860 0.533158 0.401523 -0.240014
C30   C     C_R   0.187140 0.466836 0.598476 -0.240061
C31   C     C_R   0.767770 0.497782 0.508854 -0.042482
C32   C     C_R   0.232230 0.502217 0.491148 -0.042492
C33   C     C_R   0.813017 0.463721 0.617199 -0.070512
C34   C     C_R   0.046917 0.500274 0.497114 0.070478
C35   C     C_R   0.186983 0.536277 0.382803 -0.070492
C36   C     C_R   0.907316 0.464363 0.613700 0.031071
C37   C     C_R   0.092685 0.535629 0.386298 0.031072
C38   C     C_3   0.483392 0.748099 0.988060 0.123794
C39   C     C_3   0.500673 0.846624 0.037668 -0.837496
C40   C     C_3   0.516557 0.251897 0.011946 0.123728
C41   C     C_3   0.499424 0.153365 0.962253 -0.837374
C42   C     C_3   0.707310 0.616915 0.988024 0.072992
C43   C     C_3   0.781548 0.674722 0.924425 -0.789409
C44   C     C_3   0.292691 0.383083 0.011965 0.072922
C45   C     C_R   0.905176 0.534466 0.397519 0.134910
C46   C     C_3   0.218447 0.325283 0.075560 -0.789411
C47   C     C_2   0.762945 0.432683 0.735151 0.433133
C48   C     C_2   0.237056 0.567321 0.264855 0.433117
C49   C     C_2   0.633501 0.745376 0.357172 0.428912
C50   C     C_2   0.366487 0.254621 0.642815 0.428887
C51   C     C_2   0.366488 0.745442 0.642431 0.445495
C52   C     C_2   0.633510 0.254560 0.357568 0.445529
C53   C     C_R   0.094825 0.465525 0.602479 0.134922
C54   C     C_R   0.957323 0.428750 0.716409 -0.215228
C55   C     C_R   0.042677 0.571239 0.283587 -0.215226
C56   C     C_R   0.050126 0.429883 0.710852 -0.169771
H1    H     H_    0.363031 0.579539 0.919621 0.162659
H2    H     H_    0.670180 0.084651 0.281464 0.174670
H3    H     H_    0.669871 0.916234 0.280739 0.178352
H4    H     H_    0.330156 0.083760 0.719303 0.178376
H5    H     H_    0.412453 0.744820 0.957936 0.148418
H6    H     H_    0.528758 0.736206 0.903648 0.167313
H7    H     H_    0.571507 0.852243 0.067076 0.244768
H8    H     H_    0.487710 0.899829 0.961394 0.212600
H9    H     H_    0.455790 0.861486 0.121308 0.273687
H10   H     H_    0.471070 0.263737 0.096243 0.167389
H11   H     H_    0.587453 0.255233 0.042257 0.148321
H12   H     H_    0.636970 0.420464 0.080377 0.162669
H13   H     H_    0.544449 0.138550 0.878748 0.273722
H14   H     H_    0.512310 0.100160 0.038560 0.212567
H15   H     H_    0.428642 0.147694 0.932622 0.244747
H16   H     H_    0.738241 0.553008 0.032079 0.131818
H17   H     H_    0.675014 0.660664 0.064067 0.165791
H18   H     H_    0.752891 0.739917 0.881131 0.267432
H19   H     H_    0.831221 0.694677 0.996607 0.209432
H20   H     H_    0.816101 0.632907 0.848563 0.249141
H21   H     H_    0.324992 0.339328 0.935933 0.165790
H22   H     H_    0.261764 0.446987 0.967894 0.131845
H23   H     H_    0.775389 0.559278 0.320362 0.130949
H24   H     H_    0.183885 0.367108 0.151404 0.249132
H25   H     H_    0.168783 0.305318 0.003370 0.209450
H26   H     H_    0.247099 0.260094 0.118876 0.267426
H27   H     H_    0.785637 0.453478 0.828306 0.056909
H28   H     H_    0.214375 0.546516 0.171699 0.056932
H29   H     H_    0.615852 0.692368 0.289310 0.106420
H30   H     H_    0.384124 0.307688 0.710597 0.106444
H31   H     H_    0.384075 0.693966 0.714591 0.051439
H32   H     H_    0.615918 0.306020 0.285390 0.051418
H33   H     H_    0.224612 0.440717 0.679637 0.130933
H34   H     H_    0.925882 0.398672 0.801334 0.140124
H35   H     H_    0.074119 0.601316 0.198662 0.140122
H36   H     H_    0.087084 0.402435 0.791443 0.143640
H37   H     H_    0.912917 0.597553 0.208553 0.143634
H38   H     H_    0.329842 0.915347 0.718568 0.174666
N1    N     N_R   0.500000 0.750030 0.500000 -0.169753
N2    N     N_R   0.500000 0.249970 0.500000 -0.169766
O1    O     O_R   0.367850 0.580280 0.500030 -0.576939
O2    O     O_3   0.501085 0.318262 0.913355 -0.596397
O3    O     O_3   0.645246 0.591433 0.895073 -0.604933
O4    O     O_3   0.354748 0.408571 0.104922 -0.604976
O5    O     O_2   0.697707 0.381695 0.730081 -0.509090
O6    O     O_2   0.302279 0.618329 0.269931 -0.509103
O7    O     O_2   0.712733 0.760013 0.375269 -0.589021
O8    O     O_2   0.287257 0.239923 0.624788 -0.589055
O9    O     O_2   0.287398 0.759251 0.620307 -0.556380
O10   O     O_2   0.712601 0.240768 0.379708 -0.556382
O11   O     O_R   0.632150 0.419720 0.499970 -0.576933
O12   O     O_R   0.632150 0.580280 0.499970 -0.632216
O13   O     O_R   0.367850 0.419720 0.500030 -0.632296
O14   O     O_R   0.499970 0.580260 0.313950 -0.590778
O15   O     O_R   0.500030 0.419740 0.686050 -0.590770
O16   O     O_R   0.500030 0.580260 0.686050 -0.658318
O17   O     O_R   0.499970 0.419740 0.313950 -0.658309
O18   O     O_3   0.498927 0.681739 0.086634 -0.596443
Zn1   Zn    Zn3+2 0.500000 0.607200 0.500000 0.994357
Zn2   Zn    Zn3+2 0.500000 0.392800 0.500000 0.994333

loop_
_geom_bond_atom_site_label_1
_geom_bond_atom_site_label_2
_ccdc_geom_bond_type
C20   O18   S    
C21   C26   S    
C50   O8    D    
C8    C13   A    
C23   C45   A    
C34   C37   A    
C11   C13   A    
C3    C49   S    
C19   O16   A    
C7    C11   A    
C39   H8    S    
C47   O5    D    
O12   Zn1   S    
C41   H13   S    
C44   H21   S    
C35   C37   A    
C9    C16   A    
C54   H34   S    
C2    C55   A    
C40   O2    S    
C38   C39   S    
C38   O18   S    
C20   C25   S    
C10   C17   A    
C15   C16   A    
C33   C36   A    
C55   H35   S    
O13   Zn2   S    
C1    O13   A    
C4    N2    A    
C7    C14   A    
N1    Zn1   S    
C40   H11   S    
C31   C33   A    
O15   Zn2   S    
C47   H27   S    
O1    Zn1   S    
C19   C27   S    
C41   H15   S    
C38   H5    S    
C43   H18   S    
C21   C27   S    
C52   O10   D    
C40   H10   S    
C39   H9    S    
C14   C17   A    
C25   H1    S    
C30   H33   S    
C35   C48   S    
C18   O17   A    
C5    N1    A    
C44   C46   S    
C2    C45   A    
C43   H19   S    
C30   C53   A    
C54   C56   A    
C30   C32   A    
C32   C35   A    
C49   H29   S    
C52   H32   S    
C18   C28   S    
C24   C25   S    
C1    O1    A    
C5    C7    A    
C6    C8    A    
C20   C28   S    
C1    C32   S    
C48   H28   S    
C4    C50   S    
C16   H3    S    
C3    C9    A    
C46   H25   S    
C29   H23   S    
C51   O9    D    
C23   C34   A    
C48   O6    D    
C42   H16   S    
C9    C11   A    
C40   C41   S    
C20   C22   S    
C8    C15   A    
C6    N2    A    
C22   C27   S    
C12   C31   S    
C33   C47   S    
C15   H2    S    
C42   C43   S    
C51   H31   S    
C12   O12   A    
C53   C56   A    
C43   H20   S    
C42   H17   S    
C22   O3    S    
C24   O4    S    
C2    H37   S    
N2    Zn2   S    
C24   C28   S    
C10   C13   A    
C46   H26   S    
C49   O7    D    
C12   O11   A    
C19   O15   A    
C25   C27   S    
C39   H7    S    
C26   C28   S    
C26   H12   S    
O17   Zn2   S    
C44   H22   S    
C29   C31   A    
C42   O3    S    
C46   H24   S    
C21   O2    S    
C44   O4    S    
O11   Zn2   S    
C36   C54   A    
C50   H30   S    
C17   H4    S    
C37   C55   A    
C56   H36   S    
C34   C53   A    
C18   O14   A    
C23   C36   A    
C22   C26   S    
C21   C24   S    
C29   C45   A    
C5    C51   S    
C3    N1    A    
C6    C52   S    
C4    C10   A    
O14   Zn1   S    
C14   H38   S    
O16   Zn1   S    
C41   H14   S    
C38   H6    S    
