data_mof_unit_51060.cif
_audit_creation_date              2013-03-05T16:34:52-0500
_audit_creation_method            fapswitch 2.2
_symmetry_space_group_name_H-M    P1
_symmetry_Int_Tables_number       1
_space_group_crystal_system       triclinic
_cell_length_a                    15.102516
_cell_length_b                    9.098251
_cell_length_c                    7.794822
_cell_angle_alpha                 90.049055
_cell_angle_beta                  90.272759
_cell_angle_gamma                 90.314757
_cell_volume                      1071.03034835

loop_
_atom_site_label
_atom_site_type_symbol
_atom_site_description
_atom_site_fract_x
_atom_site_fract_y
_atom_site_fract_z
_atom_type_partial_charge
O1    O     O_R   0.500000 0.288390 0.642760 -0.583319
O2    O     O_R   0.500000 0.711610 0.357240 -0.583274
O3    O     O_R   0.500000 0.711610 0.642760 -0.566296
O4    O     O_R   0.500000 0.288390 0.357240 -0.566257
C1    C     C_R   0.500512 0.220055 0.499983 0.872947
C2    C     C_R   0.499490 0.779944 0.500017 0.872939
O5    O     O_R   0.370260 0.500000 0.642800 -0.601640
O6    O     O_R   0.629740 0.500000 0.357200 -0.601627
O7    O     O_R   0.629740 0.500000 0.642800 -0.548581
O8    O     O_R   0.370260 0.500000 0.357200 -0.548495
C3    C     C_R   0.328846 0.498280 0.499525 0.841031
C4    C     C_R   0.671154 0.501715 0.500473 0.840720
Cu1   Cu    Cu3+1 0.500000 0.500000 0.669080 1.054709
Cu2   Cu    Cu3+1 0.500000 0.500000 0.330920 1.054765
N1    N     N_1   0.500000 0.500000 0.076820 -0.036713
N2    N     N_1   0.500000 0.500000 0.923180 -0.036716
C5    C     C_R   0.813940 0.636690 0.503019 -0.064570
C6    C     C_R   0.186059 0.363279 0.496835 -0.064629
C7    C     C_R   0.812134 0.366369 0.504478 -0.086536
C8    C     C_R   0.187864 0.633598 0.495489 -0.086337
C9    C     C_R   0.767439 0.501789 0.502165 -0.146241
C10   C     C_R   0.232560 0.498183 0.497810 -0.146193
C11   C     C_R   0.905433 0.365678 0.496547 0.099426
C12   C     C_R   0.094565 0.634297 0.503254 0.099329
C13   C     C_R   0.907240 0.635630 0.506992 0.040742
C14   C     C_R   0.092758 0.364347 0.492770 0.040723
C15   C     C_R   0.953045 0.500313 0.500815 0.048662
C16   C     C_R   0.046953 0.499664 0.498961 0.048720
C17   C     C_R   0.952334 0.233776 0.478926 -0.139517
C18   C     C_R   0.047665 0.766212 0.520716 -0.139727
C19   C     C_R   0.956033 0.766972 0.521731 -0.217659
C20   C     C_R   0.043965 0.233016 0.477901 -0.217803
C21   C     C_1   0.500206 0.065365 0.499967 -0.107301
C22   C     C_1   0.499797 0.934635 0.500033 -0.107297
H1    H     H_    0.918992 0.129480 0.461935 0.168400
H2    H     H_    0.081012 0.870521 0.537569 0.168283
H3    H     H_    0.924176 0.872087 0.537512 0.152433
H4    H     H_    0.075818 0.127909 0.462011 0.152334
C23   C     C_2   0.765284 0.778664 0.496638 0.385372
H5    H     H_    0.787790 0.866154 0.412673 0.080641
O9    O     O_2   0.701391 0.800449 0.588273 -0.521005
C24   C     C_2   0.234708 0.221293 0.503241 0.385318
H6    H     H_    0.212114 0.133732 0.587030 0.080616
O10   O     O_2   0.298707 0.199579 0.411837 -0.521072
C25   C     C_2   0.759659 0.227610 0.518335 0.345872
H7    H     H_    0.699183 0.213605 0.444247 0.057628
O11   O     O_2   0.781023 0.131567 0.619488 -0.528099
C26   C     C_2   0.240337 0.772363 0.481873 0.345357
H8    H     H_    0.300594 0.786525 0.556550 0.057856
O12   O     O_2   0.219222 0.868220 0.380307 -0.527919

loop_
_geom_bond_atom_site_label_1
_geom_bond_atom_site_label_2
_geom_bond_distance
_ccdc_geom_bond_type
C13   C19   1.404807 A    
C7    C11   1.410750 A    
C7    C25   1.491174 S    
C14   C20   1.404809 A    
C20   H4    1.080123 S    
C13   C15   1.416386 A    
C17   H1    1.079551 S    
C3    C10   1.454154 S    
C14   C16   1.416396 A    
O3    Cu1   1.936356 S    
C18   H2    1.079560 S    
O6    C4    1.277443 A    
O3    C2    1.275050 A    
C5    C13   1.409336 A    
C26   O12   1.221026 D    
C21   C22   1.189392 T    
C23   O9    1.220255 D    
C8    C26   1.491065 S    
C25   H7    1.085121 S    
O5    C3    1.277456 A    
O2    C2    1.274421 A    
C24   O10   1.220357 D    
O1    C1    1.274419 A    
C11   C17   1.403835 A    
C26   H8    1.084952 S    
C7    C9    1.408202 A    
C8    C10   1.408170 A    
C17   C20   1.383978 A    
C11   C15   1.417273 A    
C1    C21   1.407400 S    
C25   O11   1.221160 D    
O4    Cu2   1.936357 S    
C18   C19   1.383992 A    
O2    Cu2   1.936006 S    
O7    C4    1.276227 A    
C12   C18   1.403812 A    
O1    Cu1   1.936007 S    
O8    C3    1.276217 A    
N1    N2    1.197597 T    
C12   C16   1.417262 A    
O5    Cu1   1.969111 S    
C24   H6    1.085213 S    
Cu1   N2    1.980663 S    
C23   H5    1.085145 S    
C5    C23   1.490368 S    
Cu2   N1    1.980663 S    
O4    C1    1.275052 A    
O7    Cu1   1.971049 S    
O6    Cu2   1.969109 S    
C6    C24   1.490414 S    
C6    C10   1.410750 A    
C4    C9    1.454151 S    
C8    C12   1.410693 A    
C5    C9    1.410719 A    
C2    C22   1.407397 S    
C19   H3    1.080112 S    
Cu1   Cu2   2.635898 S    
C15   C16   1.418436 A    
O8    Cu2   1.971051 S    
C6    C14   1.409363 A    
