data_mof_unit_15209.cif
_audit_creation_date              2012-12-10T17:24:16-0500
_audit_creation_method            fapswitch 2.2
_symmetry_space_group_name_H-M    P1
_symmetry_Int_Tables_number       1
_space_group_crystal_system       triclinic
_cell_length_a                    19.425426
_cell_length_b                    10.888689
_cell_length_c                    9.598581
_cell_angle_alpha                 91.607131
_cell_angle_beta                  91.039213
_cell_angle_gamma                 95.466967
_cell_volume                      2019.79522413

loop_
_atom_site_label
_atom_site_type_symbol
_atom_type_description
_atom_site_fract_x
_atom_site_fract_y
_atom_site_fract_z
_atom_type_partial_charge
C1    C     C_R   0.505675 0.263607 0.498334 0.826697
C2    C     C_R   0.855547 0.491844 0.514386 -0.063019
C3    C     C_R   0.567254 0.140258 0.734719 -0.120663
C4    C     C_R   0.367980 0.499777 0.498835 0.801249
C5    C     C_R   0.572380 0.087679 0.864454 -0.064584
C6    C     C_R   0.541938 0.969096 0.883848 -0.103136
C7    C     C_R   0.512311 0.898971 0.770609 -0.167053
C8    C     C_R   0.513662 0.946035 0.634091 0.098594
C9    C     C_R   0.532065 0.073758 0.621422 0.048882
C10   C     C_R   0.515007 0.131025 0.496020 -0.197271
C11   C     C_R   0.499361 0.057168 0.374284 0.384062
C12   C     C_R   0.292523 0.502227 0.496104 -0.162157
C13   C     C_R   0.492765 0.930412 0.382233 -0.170360
C14   C     C_R   0.498302 0.872767 0.509703 -0.163798
C15   C     C_R   0.605640 0.668700 0.141242 0.421777
C16   C     C_R   0.497517 0.737663 0.503026 0.873571
C17   C     C_R   0.655169 0.732851 0.059139 -0.165553
C18   C     C_R   0.649655 0.729088 0.917534 -0.128300
C19   C     C_R   0.595511 0.657951 0.854078 -0.198647
C20   C     C_R   0.548048 0.579054 0.927105 0.148025
C21   C     C_R   0.550052 0.581086 0.077934 0.129740
C22   C     C_R   0.453176 0.426582 0.069011 0.049003
C23   C     C_R   0.932026 0.498209 0.511095 0.424948
C24   C     C_R   0.453903 0.425981 0.921525 -0.049666
C25   C     C_R   0.632382 0.492511 0.501227 0.860498
C26   C     C_R   0.250763 0.413232 0.567947 -0.027481
C27   C     C_R   0.179341 0.416874 0.567241 -0.214029
C28   C     C_R   0.147951 0.508555 0.496502 -0.051523
C29   C     C_R   0.189556 0.599006 0.424934 0.369098
C30   C     C_R   0.261739 0.594840 0.423702 -0.125437
C31   C     C_1   0.279843 0.314455 0.639542 0.285448
C32   C     C_1   0.400170 0.348623 0.134827 0.384167
C33   C     C_1   0.698816 0.802673 0.835930 0.294871
C34   C     C_R   0.071964 0.506879 0.501348 0.466742
C35   C     C_1   0.304237 0.688775 0.352023 0.352980
C36   C     C_1   0.854498 0.497711 0.774157 0.326029
C37   C     C_1   0.709907 0.450684 0.764182 0.296689
C38   C     C_R   0.818516 0.487833 0.639734 -0.055514
C39   C     C_R   0.745546 0.477342 0.635304 -0.132330
C40   C     C_R   0.708822 0.482479 0.505751 -0.170923
C41   C     C_R   0.747047 0.478507 0.381402 0.409012
C42   C     C_R   0.818893 0.484611 0.387277 -0.170257
Cl1   Cl    Cl    0.627125 0.729308 0.310735 -0.620557
Cl2   Cl    Cl    0.153232 0.722855 0.343884 -0.527271
Cl3   Cl    Cl    0.709221 0.454751 0.213308 -0.572921
Cl4   Cl    Cl    0.490397 0.114710 0.205723 -0.626737
Cu1   Cu    Cu3+1 0.500000 0.499990 0.640660 0.955714
Cu2   Cu    Cu3+1 0.500000 0.500010 0.359340 1.048809
H1    H     H_    0.592197 0.232397 0.723447 0.161950
H2    H     H_    0.846430 0.481364 0.290232 0.200719
H3    H     H_    0.598133 0.140412 0.950904 0.192174
H4    H     H_    0.542187 0.930314 0.986493 0.173891
H5    H     H_    0.486380 0.810877 0.795259 0.175897
H6    H     H_    0.482500 0.876450 0.286216 0.203072
H7    H     H_    0.697998 0.792972 0.105384 0.207204
H8    H     H_    0.593344 0.667742 0.745438 0.228072
H9    H     H_    0.147849 0.346458 0.621384 0.184497
H10   H     H_    0.416169 0.365438 0.861824 0.158449
N1    N     N_R   0.034856 0.547495 0.393845 -0.136859
N2    N     N_1   0.338103 0.763772 0.294619 -0.248125
N3    N     N_1   0.882869 0.505713 0.881596 -0.200612
N4    N     N_1   0.682143 0.427817 0.867238 -0.208232
N5    N     N_R   0.966299 0.543600 0.398758 -0.197201
N6    N     N_R   0.969119 0.455184 0.617138 -0.208639
N7    N     N_R   0.037643 0.459661 0.612583 -0.219118
N8    N     N_R   0.500660 0.501210 0.147910 -0.205835
N9    N     N_R   0.500680 0.501290 0.852040 -0.198685
N10   N     N_1   0.303117 0.235309 0.696663 -0.255608
N11   N     N_1   0.357183 0.285891 0.186976 -0.223579
N12   N     N_1   0.738145 0.861598 0.770290 -0.229323
O1    O     O_R   0.499990 0.319640 0.618810 -0.592195
O2    O     O_R   0.500000 0.319660 0.381240 -0.520597
O3    O     O_R   0.400140 0.499970 0.618820 -0.577619
O4    O     O_R   0.400150 0.500000 0.381250 -0.589805
O5    O     O_R   0.500000 0.680340 0.618760 -0.632929
O6    O     O_R   0.500010 0.680360 0.381190 -0.545089
O7    O     O_R   0.599850 0.500000 0.618750 -0.622807
O8    O     O_R   0.599860 0.500030 0.381180 -0.480488

loop_
_geom_bond_atom_site_label_1
_geom_bond_atom_site_label_2
_ccdc_geom_bond_type
C19   H8    S    
C21   N8    A    
C16   O5    A    
C41   C42   A    
Cu2   O6    S    
C20   N9    A    
C19   C20   A    
C37   N4    T    
C3    H1    S    
C7    C8    A    
C26   C27   A    
C1    O1    A    
C22   C32   S    
C30   C35   S    
C25   O7    A    
C28   C29   A    
C25   C40   S    
C5    C6    A    
C18   C19   A    
Cu2   O8    S    
C22   N8    A    
C24   N9    A    
C8    C9    A    
C4    C12   S    
C9    C10   A    
C17   H7    S    
C4    O4    A    
C23   N5    A    
C28   C34   S    
C26   C31   S    
C13   C14   A    
Cu2   O2    S    
C34   N7    A    
Cu1   N9    S    
C31   N10   T    
C1    O2    A    
C25   O8    A    
Cu2   O4    S    
Cu1   O3    S    
C27   H9    S    
C39   C40   A    
C12   C26   A    
C35   N2    T    
C29   C30   A    
C3    C9    A    
C2    C38   A    
Cu1   Cu2   S    
C17   C18   A    
Cu1   O1    S    
C4    O3    A    
C32   N11   T    
C33   N12   T    
C42   H2    S    
C40   C41   A    
C29   Cl2   S    
C34   N1    A    
C14   C16   S    
Cu1   O7    S    
C36   N3    T    
C2    C23   S    
C13   H6    S    
C15   C17   A    
C23   N6    A    
C8    C14   A    
C12   C30   A    
C16   O6    A    
C1    C10   S    
C3    C5    A    
C6    C7    A    
N1    N5    A    
C6    H4    S    
N6    N7    A    
C36   C38   S    
Cu1   O5    S    
C37   C39   S    
C41   Cl3   S    
C11   C13   A    
C38   C39   A    
C2    C42   A    
C22   C24   A    
C18   C33   S    
C10   C11   A    
C15   Cl1   S    
C15   C21   A    
C20   C21   A    
C24   H10   S    
C27   C28   A    
C7    H5    S    
C5    H3    S    
C11   Cl4   S    
Cu2   N8    S    
