data_mof_unit_19811.cif
_audit_creation_date              2012-12-10T16:50:02-0500
_audit_creation_method            fapswitch 2.2
_symmetry_space_group_name_H-M    P1
_symmetry_Int_Tables_number       1
_space_group_crystal_system       triclinic
_cell_length_a                    7.80232
_cell_length_b                    8.586735
_cell_length_c                    10.627898
_cell_angle_alpha                 91.79358
_cell_angle_beta                  85.357699
_cell_angle_gamma                 93.474174
_cell_volume                      708.141982197

loop_
_atom_site_label
_atom_site_type_symbol
_atom_type_description
_atom_site_fract_x
_atom_site_fract_y
_atom_site_fract_z
_atom_type_partial_charge
C1    C     C_R   0.545612 0.794029 0.494352 0.853011
C2    C     C_R   0.454981 0.205413 0.501921 0.985540
C3    C     C_R   0.499053 0.501450 0.260733 0.906793
C4    C     C_R   0.408912 0.791759 0.886747 0.470284
C5    C     C_R   0.355671 0.918810 0.961984 0.501695
C6    C     C_R   0.348697 0.911874 0.092691 0.558759
C7    C     C_R   0.396320 0.778437 0.148723 -0.353304
C8    C     C_R   0.447864 0.646904 0.074401 -0.141639
C9    C     C_R   0.453284 0.652660 0.942353 -0.120055
C10   C     C_R   0.507552 0.519709 0.871516 -0.058065
C11   C     C_R   0.562570 0.389115 0.926998 -0.253716
C12   C     C_R   0.559076 0.383300 0.056410 0.507991
C13   C     C_R   0.498993 0.510615 0.128473 -0.027754
C14   C     C_2   0.571513 0.956248 0.488647 0.492451
C15   C     C_2   0.432938 0.041960 0.502071 -0.384717
C16   C     C_R   0.502667 0.508345 0.739209 0.969672
F1    F     F_    0.970260 0.643024 0.613190 -0.524328
F2    F     F_    0.421874 0.809432 0.760368 -0.642774
F3    F     F_    0.313143 0.050413 0.907421 -0.601276
F4    F     F_    0.298069 0.035749 0.165775 -0.574715
F5    F     F_    0.737482 0.016011 0.470078 -0.571932
F6    F     F_    0.029767 0.357041 0.386764 -0.491330
H1    H     H_    0.604216 0.289903 0.869060 0.172365
H2    H     H_    0.393707 0.780724 0.250435 0.187981
H3    H     H_    0.301574 0.991735 0.515372 0.207567
H4    H     H_    0.649216 0.175750 0.050061 0.350573
N1    N     N_2   0.950330 0.457950 0.466250 0.269520
N2    N     N_2   0.049670 0.542050 0.533750 0.258364
O1    O     O_R   0.389250 0.738570 0.508280 -0.625974
O2    O     O_R   0.678390 0.711630 0.486650 -0.552504
O3    O     O_R   0.355400 0.513470 0.694050 -0.567720
O4    O     O_R   0.644540 0.486530 0.672420 -0.604978
O5    O     O_R   0.321610 0.288370 0.513350 -0.575246
O6    O     O_R   0.610750 0.261430 0.491720 -0.537571
O7    O     O_R   0.355460 0.513470 0.327580 -0.597205
O8    O     O_R   0.644600 0.486530 0.305950 -0.589735
O9    O     O_3   0.610311 0.254104 0.115081 -0.691442
Zn1   Zn    Zn3+2 0.306930 0.517990 0.514440 1.185952
Zn2   Zn    Zn3+2 0.693070 0.482010 0.485560 1.209465

loop_
_geom_bond_atom_site_label_1
_geom_bond_atom_site_label_2
_ccdc_geom_bond_type
O1    Zn1   S    
C11   C12   A    
H4    O9    S    
C6    C7    A    
C5    F3    S    
C3    O7    A    
C16   O4    A    
C6    F4    S    
C9    C10   A    
O5    Zn1   S    
C3    C13   S    
O3    Zn1   S    
N2    Zn1   S    
C4    F2    S    
C2    O6    A    
C1    O1    A    
C7    C8    A    
C10   C16   S    
C16   O3    A    
C2    C15   S    
C8    C13   A    
C3    O8    A    
C2    O5    A    
C11   H1    S    
C1    O2    A    
O2    Zn2   S    
F6    N1    S    
C5    C6    A    
C15   H3    S    
C10   C11   A    
O6    Zn2   S    
C12   O9    S    
O7    Zn1   S    
C12   C13   A    
C14   F5    S    
O4    Zn2   S    
N1    N2    D    
C14   C15   D    
C8    C9    A    
C1    C14   S    
C4    C9    A    
F1    N2    S    
O8    Zn2   S    
C7    H2    S    
N1    Zn2   S    
C4    C5    A    
