data_mof_unit_65633.cif
_audit_creation_date              2012-12-11T16:03:54-0500
_audit_creation_method            fapswitch 2.2
_symmetry_space_group_name_H-M    P1
_symmetry_Int_Tables_number       1
_space_group_crystal_system       triclinic
_cell_length_a                    8.305627
_cell_length_b                    16.340734
_cell_length_c                    17.440861
_cell_angle_alpha                 95.085401
_cell_angle_beta                  96.638201
_cell_angle_gamma                 93.10281
_cell_volume                      2336.98766167

loop_
_atom_site_label
_atom_site_type_symbol
_atom_type_description
_atom_site_fract_x
_atom_site_fract_y
_atom_site_fract_z
_atom_type_partial_charge
Ba1   Ba    Ba6+2 0.150890 0.539190 0.463180 1.703492
Ba2   Ba    Ba6+2 0.659280 0.460800 0.536750 1.731116
C1    C     C_3   0.409674 0.762433 0.181277 0.009257
C2    C     C_R   0.836121 0.760574 0.509484 0.018434
C3    C     C_R   0.890514 0.844707 0.515778 -0.158194
C4    C     C_3   0.889838 0.767230 0.300969 0.336232
C5    C     C_R   0.788357 0.904553 0.485622 0.186775
C6    C     C_R   0.628676 0.877531 0.450080 0.294099
C7    C     C_R   0.577548 0.793408 0.444491 0.009265
C8    C     C_R   0.925319 0.156529 0.489923 -0.140550
C9    C     C_R   0.976411 0.240968 0.495313 -0.000009
C10   C     C_R   0.022541 0.099222 0.528065 0.254780
C11   C     C_R   0.123812 0.267910 0.540918 -0.200480
C12   C     C_3   0.382823 0.723649 0.255446 0.380789
C13   C     C_R   0.227287 0.211709 0.575056 0.027227
C14   C     C_R   0.174463 0.128042 0.569150 -0.130180
C15   C     C_R   0.589345 0.540824 0.280992 -0.324781
C16   C     C_3   0.908141 0.855047 0.279303 -0.287159
C17   C     C_R   0.438933 0.498402 0.256304 0.061417
C18   C     C_R   0.381069 0.490071 0.175554 0.128915
C19   C     C_R   0.475556 0.523481 0.121961 -0.030136
C20   C     C_R   0.628638 0.562776 0.148348 -0.163001
C21   C     C_R   0.686375 0.570108 0.227369 0.000786
C22   C     C_R   0.411147 0.520711 0.835213 -0.099286
C23   C     C_3   0.543883 0.709549 0.644117 0.262491
C24   C     C_R   0.355773 0.512811 0.755846 0.020229
C25   C     C_R   0.107630 0.438350 0.780370 0.044432
C26   C     C_R   0.162776 0.446730 0.860376 -0.119781
C27   C     C_R   0.315492 0.487917 0.887958 0.009064
C28   C     C_3   0.759779 0.365302 0.306965 0.416997
C29   C     C_1   0.372406 0.500719 0.970327 0.060783
C30   C     C_1   0.421073 0.512014 0.039048 0.080159
C31   C     C_R   0.206207 0.470637 0.728894 -0.219684
C32   C     C_3   0.711653 0.345004 0.220074 0.271565
C33   C     C_3   0.118135 0.710203 0.700205 0.459027
C34   C     C_3   0.616678 0.796271 0.670824 -0.310627
C35   C     C_3   0.191072 0.798723 0.701577 -0.012339
C36   C     C_3   0.230190 0.276636 0.312048 0.366192
C37   C     C_3   0.190674 0.202802 0.249550 0.025523
C38   C     C_3   0.921763 0.234849 0.713359 0.618216
C39   C     C_3   0.885625 0.146178 0.732800 0.267488
C40   C     C_3   0.429100 0.258516 0.759093 0.315020
C41   C     C_3   0.518263 0.279595 0.840519 0.026028
C42   C     C_R   0.682290 0.735940 0.472030 -0.377545
H1    H     H_    0.295897 0.668854 0.241351 0.076160
H2    H     H_    0.501856 0.703090 0.279398 -0.141280
H3    H     H_    0.476017 0.720411 0.144452 0.039442
H4    H     H_    0.639164 0.674217 0.619421 0.061605
H5    H     H_    0.440229 0.712487 0.598346 0.017146
H6    H     H_    0.712405 0.793971 0.720323 0.199065
H7    H     H_    0.669940 0.823905 0.623184 0.062471
H8    H     H_    0.523551 0.836965 0.689378 0.117746
H9    H     H_    0.483948 0.821574 0.195575 0.099957
H10   H     H_    0.867795 0.898177 0.324990 0.075583
H11   H     H_    0.877020 0.238843 0.651354 0.054999
H12   H     H_    0.638201 0.393271 0.196411 -0.056112
H13   H     H_    0.977292 0.105537 0.710900 0.041200
H14   H     H_    0.897097 0.144425 0.796639 0.133335
H15   H     H_    0.346973 0.203102 0.760551 0.078041
H16   H     H_    0.363980 0.313883 0.744418 -0.025216
H17   H     H_    0.432004 0.305691 0.878800 0.015397
H18   H     H_    0.619113 0.326744 0.840440 0.127760
H19   H     H_    0.967469 0.763093 0.356544 0.078609
H20   H     H_    0.811249 0.135908 0.455400 0.124990
H21   H     H_    0.010463 0.863177 0.545232 0.141140
H22   H     H_    0.253810 0.084685 0.594652 0.103271
H23   H     H_    0.822403 0.344550 0.190476 0.087850
H24   H     H_    0.640534 0.671652 0.467871 0.088780
H25   H     H_    0.164433 0.332255 0.544270 0.078008
H26   H     H_    0.525802 0.554712 0.856020 0.099480
H27   H     H_    0.704673 0.585597 0.107394 0.113528
H28   H     H_    0.086424 0.422941 0.900710 0.102777
H29   H     H_    0.760841 0.753602 0.308714 -0.076882
H30   H     H_    0.636715 0.545471 0.341769 0.069443
H31   H     H_    0.163006 0.466376 0.667634 0.061165
H32   H     H_    0.037263 0.871843 0.273616 0.178561
H33   H     H_    0.832674 0.860970 0.223442 0.137651
H34   H     H_    0.195952 0.665137 0.674823 -0.016618
H35   H     H_    0.650960 0.381673 0.334116 0.001124
H36   H     H_    0.850360 0.418921 0.316082 -0.049696
H37   H     H_    0.593913 0.259933 0.148201 0.336141
H38   H     H_    0.118668 0.258221 0.781956 0.263508
H39   H     H_    0.735640 0.099220 0.644741 0.308894
H40   H     H_    0.568283 0.988101 0.428223 0.331919
H41   H     H_    0.226350 0.810228 0.643914 0.043112
H42   H     H_    0.301245 0.807064 0.744508 0.104974
H43   H     H_    0.119985 0.305425 0.328154 0.023174
H44   H     H_    0.137333 0.149479 0.275594 0.073570
H45   H     H_    0.304022 0.183793 0.226797 0.160742
I1    I     I_    0.103799 0.681576 0.816801 -0.365924
I2    I     I_    0.034606 0.892356 0.734634 -0.380656
I3    I     I_    0.353192 0.218154 0.401458 -0.421530
I4    I     I_    0.185021 0.783562 0.115383 -0.282869
I5    I     I_    0.016111 0.212505 0.152324 -0.304248
I6    I     I_    0.605756 0.172896 0.889892 -0.274567
I7    I     I_    0.161541 0.421079 0.128944 -0.380954
N1    N     N_2   0.838102 0.990973 0.490299 -0.239165
N2    N     N_2   0.976928 0.012457 0.524377 -0.204519
O1    O     O_2   0.124170 0.696240 0.537320 -0.495161
O2    O     O_2   0.770963 0.444616 0.771602 -0.475380
O3    O     O_3   0.848270 0.292175 0.761298 -0.585899
O4    O     O_3   0.874280 0.596090 0.538840 -0.462411
O5    O     O_3   0.430090 0.459160 0.409230 -0.481844
O6    O     O_2   0.641040 0.538740 0.685130 -0.420022
O7    O     O_3   0.490543 0.674267 0.708018 -0.634010
O8    O     O_2   0.562174 0.210272 0.558776 -0.454473
O9    O     O_3   0.536451 0.238692 0.705428 -0.525843
O10   O     O_3   0.350640 0.647210 0.399890 -0.499308
O11   O     O_2   0.241076 0.791306 0.448860 -0.465529
O12   O     O_3   0.346324 0.332305 0.289499 -0.589551
O13   O     O_3   0.960335 0.699989 0.661553 -0.620097
O14   O     O_3   0.320885 0.781208 0.307523 -0.561320
O15   O     O_2   0.169260 0.461210 0.314850 -0.460096
O16   O     O_3   0.932460 0.606800 0.361650 -0.495130
O17   O     O_2   0.021665 0.561322 0.225752 -0.445551
O18   O     O_3   0.622777 0.268765 0.205284 -0.647315
O19   O     O_3   0.088955 0.251102 0.724731 -0.865383
O20   O     O_3   0.729689 0.115174 0.700572 -0.658878
O21   O     O_3   0.519277 0.931021 0.420509 -0.698191
O22   O     O_3   0.938496 0.713130 0.242061 -0.561807
O23   O     O_2   0.686120 0.303710 0.462660 -0.419542
O24   O     O_3   0.936010 0.403900 0.461090 -0.503196
O25   O     O_3   0.459650 0.352790 0.600040 -0.458543
O26   O     O_3   0.825476 0.296796 0.338744 -0.602488
O27   O     O_3   0.380200 0.540830 0.590710 -0.486210
O28   O     O_3   0.877840 0.393190 0.638290 -0.475036
P1    P     P_3+3 0.954010 0.683680 0.560080 0.997198
P2    P     P_3+3 0.343360 0.437010 0.326580 1.043549
P3    P     P_3+3 0.894071 0.612016 0.262420 0.992517
P4    P     P_3+3 0.856290 0.316310 0.439860 1.021238
P5    P     P_3+3 0.902408 0.392565 0.739576 1.025358
P6    P     P_3+3 0.371458 0.754467 0.401990 1.042375
P7    P     P_3+3 0.464072 0.567306 0.687080 0.981466
P8    P     P_3+3 0.442703 0.248407 0.611498 1.040391

loop_
_geom_bond_atom_site_label_1
_geom_bond_atom_site_label_2
_ccdc_geom_bond_type
C32   H12   S    
C25   P5    S    
C17   C18   A    
Ba1   P2    S    
O23   P4    D    
Ba1   O1    S    
Ba1   O10   S    
N1    N2    D    
O2    P5    D    
C22   H26   S    
C5    C6    A    
C12   H2    S    
C13   P8    S    
Ba2   O25   S    
C25   C31   A    
C12   O14   S    
C15   C21   A    
O28   P5    S    
H39   O20   S    
C35   H41   S    
C26   C27   A    
C33   C35   S    
C22   C24   A    
C39   H14   S    
O9    P8    S    
H40   O21   S    
C36   C37   S    
C7    P6    S    
Ba2   O4    S    
C32   O18   S    
C13   C14   A    
C36   I3    S    
C17   P2    S    
C9    C11   A    
C21   P3    S    
Ba1   Ba2   S    
C22   C27   A    
Ba2   P4    S    
C38   O3    S    
Ba1   O24   S    
C31   H31   S    
C10   C14   A    
C34   H6    S    
C6    C7    A    
C41   I6    S    
C39   O20   S    
C36   O12   S    
C40   O9    S    
Ba1   O5    S    
C10   N2    S    
C34   H8    S    
C28   H36   S    
C38   O19   S    
C18   I7    S    
C19   C20   A    
C26   H28   S    
Ba1   O15   S    
C37   H44   S    
C4    O22   S    
C12   H1    S    
Ba2   O24   S    
C4    C16   S    
C19   C30   S    
O6    P7    D    
C28   C32   S    
O25   P8    S    
C23   O7    S    
O22   P3    S    
C35   H42   S    
C3    H21   S    
O4    P1    S    
C40   H16   S    
C3    C5    A    
C35   I2    S    
O1    P1    D    
C2    C42   A    
C4    H19   S    
C32   H23   S    
C33   I1    S    
C37   I5    S    
C24   C31   A    
C29   C30   T    
Ba2   O6    S    
C38   H11   S    
O11   P6    D    
O26   P4    S    
C1    I4    S    
O14   P6    S    
O5    P2    S    
C34   H7    S    
C23   H4    S    
O15   P2    D    
C1    C12   S    
C8    C10   A    
C28   H35   S    
O3    P5    S    
C38   C39   S    
C28   O26   S    
C11   C13   A    
O13   P1    S    
C15   H30   S    
O16   P3    S    
C42   H24   S    
C14   H22   S    
Ba1   O16   S    
C9    P4    S    
Ba2   O28   S    
C20   H27   S    
C33   O13   S    
C41   H17   S    
C4    H29   S    
O7    P7    S    
O17   P3    D    
Ba2   O23   S    
O27   P7    S    
C7    C42   A    
C16   H32   S    
C5    N1    S    
C2    P1    S    
C8    H20   S    
Ba1   P1    S    
Ba1   O27   S    
C2    C3    A    
C40   H15   S    
C33   H34   S    
C36   H43   S    
C39   H13   S    
C27   C29   S    
C24   P7    S    
C1    H9    S    
C11   H25   S    
Ba2   O5    S    
C16   H33   S    
H37   O18   S    
C1    H3    S    
C15   C17   A    
O24   P4    S    
C23   H5    S    
O10   P6    S    
C8    C9    A    
C16   H10   S    
C23   C34   S    
Ba2   O27   S    
O8    P8    D    
C18   C19   A    
C6    O21   S    
C40   C41   S    
C25   C26   A    
C20   C21   A    
H38   O19   S    
Ba1   O4    S    
C37   H45   S    
C41   H18   S    
O12   P2    S    
