data_mof_unit_54190.cif
_audit_creation_date              2013-03-05T15:44:58-0500
_audit_creation_method            fapswitch 2.2
_symmetry_space_group_name_H-M    P1
_symmetry_Int_Tables_number       1
_space_group_crystal_system       triclinic
_cell_length_a                    10.949428
_cell_length_b                    11.046786
_cell_length_c                    18.767804
_cell_angle_alpha                 90.078868
_cell_angle_beta                  89.612099
_cell_angle_gamma                 120.267294
_cell_volume                      1960.57856106

loop_
_atom_site_label
_atom_site_type_symbol
_atom_site_description
_atom_site_fract_x
_atom_site_fract_y
_atom_site_fract_z
_atom_type_partial_charge
O1    O     O_R   0.766500 0.250040 0.579790 -0.540717
O2    O     O_R   0.798570 0.516780 0.574780 -0.522585
C1    C     C_R   0.866283 0.637586 0.605250 0.548482
O3    O     O_R   0.984000 0.732950 0.581090 -0.387056
O4    O     O_R   0.218600 0.700890 0.574760 -0.459510
C2    C     C_R   0.274720 0.633206 0.602320 0.524857
O5    O     O_R   0.249390 0.515350 0.579940 -0.521224
O6    O     O_R   0.982790 0.280900 0.573700 -0.425726
C3    C     C_R   0.860801 0.224916 0.603153 0.581020
O7    O     O_R   0.766600 0.251130 0.419260 -0.527239
O8    O     O_R   0.798660 0.517790 0.425980 -0.507948
C4    C     C_R   0.864368 0.640018 0.398604 0.555816
O9    O     O_R   0.984100 0.734040 0.420570 -0.501824
O10   O     O_R   0.218690 0.701900 0.425960 -0.516659
C5    C     C_R   0.271705 0.635068 0.396926 0.534762
O11   O     O_R   0.249490 0.516440 0.419420 -0.505602
O12   O     O_R   0.982880 0.281910 0.424890 -0.459152
C6    C     C_R   0.860672 0.225229 0.397146 0.571030
Cr1   Cr    Cr6+3 0.791660 0.390250 0.499930 1.023726
Cr2   Cr    Cr6+3 0.098520 0.708290 0.500540 1.102260
Cr3   Cr    Cr6+3 0.109770 0.401430 0.499480 1.116281
O13   O     O_3   0.999980 0.499990 0.499980 -0.283769
C7    C     C_R   0.408271 0.793660 0.702634 -0.061233
H1    H     H_    0.453546 0.883967 0.667823 0.117858
C8    C     C_R   0.426716 0.810488 0.776126 -0.065384
H2    H     H_    0.492767 0.914729 0.797487 0.140898
C9    C     C_R   0.362248 0.692184 0.821191 0.072310
C10   C     C_R   0.285544 0.558369 0.792587 -0.094901
H3    H     H_    0.238940 0.466450 0.826386 0.132188
C11   C     C_R   0.270789 0.541647 0.720238 -0.099836
H4    H     H_    0.206397 0.436081 0.700318 0.144839
C12   C     C_R   0.325495 0.659261 0.674999 0.065954
C13   C     C_R   0.866704 0.183744 0.827153 -0.023269
C14   C     C_R   0.086561 0.181636 0.821152 -0.133659
C15   C     C_R   0.189508 0.170500 0.783952 -0.178277
C16   C     C_R   0.174716 0.143483 0.711697 -0.093423
C17   C     C_R   0.061699 0.134515 0.673000 0.235631
C18   C     C_R   0.956780 0.156603 0.709933 -0.025604
C19   C     C_R   0.968076 0.170371 0.786302 -0.035368
H5    H     H_    0.279341 0.178333 0.811880 0.143877
H6    H     H_    0.251665 0.125506 0.685420 0.163859
H7    H     H_    0.103534 0.205093 0.877446 0.151017
C20   C     C_R   0.746681 0.186290 0.721449 -0.010127
C21   C     C_R   0.780308 0.223286 0.792944 0.024722
C22   C     C_R   0.620680 0.178662 0.696675 -0.077110
C23   C     C_R   0.555756 0.239042 0.735156 -0.109242
C24   C     C_R   0.605285 0.296038 0.801828 -0.100287
C25   C     C_R   0.716409 0.287386 0.831098 -0.034138
C26   C     C_R   0.844297 0.168986 0.676893 -0.020776
H8    H     H_    0.750402 0.327342 0.884467 0.150392
H9    H     H_    0.469903 0.245738 0.712276 0.096770
H10   H     H_    0.571410 0.127845 0.647247 0.142942
H11   H     H_    0.554423 0.342049 0.831967 0.117257
C27   C     C_R   0.684362 0.594036 0.702307 -0.164019
H12   H     H_    0.600072 0.512579 0.671169 0.132087
C28   C     C_R   0.658115 0.617776 0.773272 -0.155346
H13   H     H_    0.555628 0.550324 0.797354 0.131820
C29   C     C_R   0.768230 0.725592 0.813023 -0.029521
C30   C     C_R   0.892201 0.818094 0.777995 -0.096536
H14   H     H_    0.974924 0.904368 0.807023 0.183714
C31   C     C_R   0.930310 0.770049 0.719451 0.267658
C32   C     C_R   0.823773 0.667471 0.675378 0.022604
C33   C     C_R   0.405006 0.623526 0.295454 -0.133497
H15   H     H_    0.443252 0.567504 0.327018 0.136638
C34   C     C_R   0.424511 0.631645 0.222907 -0.122084
H16   H     H_    0.481503 0.585073 0.199865 0.142747
C35   C     C_R   0.369029 0.696386 0.180094 0.040118
C36   C     C_R   0.298300 0.758750 0.210698 -0.105982
H17   H     H_    0.254443 0.808156 0.178092 0.160446
C37   C     C_R   0.278657 0.751141 0.283979 -0.130359
H18   H     H_    0.216442 0.792924 0.306841 0.140288
C38   C     C_R   0.328012 0.678961 0.326034 0.025366
C39   C     C_R   0.717544 0.138893 0.291503 -0.113958
H19   H     H_    0.629046 0.131543 0.321258 0.166259
C40   C     C_R   0.716619 0.148335 0.218595 0.241702
C41   C     C_R   0.827258 0.146243 0.178515 0.013421
C42   C     C_R   0.942995 0.153642 0.214421 -0.183087
H20   H     H_    0.027503 0.151125 0.185375 0.144095
C43   C     C_R   0.951789 0.167748 0.288202 -0.146617
H21   H     H_    0.047284 0.186324 0.314699 0.153694
C44   C     C_R   0.839603 0.163633 0.326644 -0.016355
C45   C     C_R   0.910751 0.789056 0.294616 -0.136652
H22   H     H_    0.992483 0.879167 0.322613 0.146247
C46   C     C_R   0.905028 0.796908 0.221921 -0.137790
H23   H     H_    0.979363 0.895262 0.196634 0.146605
C47   C     C_R   0.804866 0.680927 0.182858 0.016827
C48   C     C_R   0.705162 0.559833 0.218491 -0.107490
H24   H     H_    0.620496 0.474534 0.189751 0.218313
C49   C     C_R   0.714081 0.549914 0.291865 -0.123405
H25   H     H_    0.641810 0.452947 0.318734 0.185464
C50   C     C_R   0.821632 0.662539 0.329435 0.013972
O14   O     O_R   0.895110 0.806860 0.920430 -0.478967
O15   O     O_R   0.872260 0.046970 0.925000 -0.530125
C51   C     C_R   0.812716 0.109002 0.896562 0.511419
O16   O     O_R   0.691430 0.085060 0.918550 -0.516529
O17   O     O_R   0.451490 0.822460 0.925250 -0.491202
C52   C     C_R   0.401948 0.703693 0.895077 0.534991
O18   O     O_R   0.413330 0.603360 0.920440 -0.547741
O19   O     O_R   0.676110 0.626250 0.926750 -0.494215
C53   C     C_R   0.769365 0.736225 0.891401 0.571698
O20   O     O_R   0.895350 0.809870 0.080950 -0.514182
O21   O     O_R   0.872490 0.049760 0.073800 -0.523694
C54   C     C_R   0.804413 0.103550 0.103847 0.554340
O22   O     O_R   0.691680 0.088070 0.079070 -0.416562
O23   O     O_R   0.451720 0.825250 0.074050 -0.455533
C55   C     C_R   0.400068 0.705844 0.104913 0.547865
O24   O     O_R   0.413580 0.606370 0.080960 -0.523346
O25   O     O_R   0.676340 0.629040 0.075550 -0.489413
C56   C     C_R   0.794311 0.700630 0.107280 0.571910
Cr4   Cr    Cr6+3 0.874790 0.925890 0.000070 1.029256
Cr5   Cr    Cr6+3 0.574120 0.948670 0.999300 1.105596
Cr6   Cr    Cr6+3 0.551420 0.625320 0.000920 1.035868
O26   O     O_3   0.666780 0.833290 0.000090 -0.305086
S1    S     S_3+6 0.090204 0.771843 0.731746 0.014154
O27   O     O_2   0.194948 0.856740 0.674882 -0.274296
O28   O     O_2   0.154268 0.833512 0.802801 -0.275970
O29   O     O_3   0.051227 0.603925 0.730851 -0.530140
H26   H     H_    0.026129 0.571366 0.681199 0.331021
S2    S     S_3+6 0.582542 0.178268 0.183415 -0.007570
O30   O     O_2   0.646760 0.291690 0.127814 -0.264225
O31   O     O_2   0.467330 0.047852 0.149461 -0.285744
O32   O     O_3   0.508657 0.226946 0.247883 -0.586675
H27   H     H_    0.428005 0.138601 0.266459 0.342355
S3    S     S_3+6 0.061740 0.081745 0.582299 0.009372
O33   O     O_2   0.913676 0.995651 0.554542 -0.286520
O34   O     O_2   0.146427 0.206612 0.534735 -0.287294
O35   O     O_3   0.144370 0.989415 0.575535 -0.464538
H28   H     H_    0.243826 0.057265 0.562421 0.325231

loop_
_geom_bond_atom_site_label_1
_geom_bond_atom_site_label_2
_geom_bond_distance
_ccdc_geom_bond_type
C2    C12   1.449273 S    
C48   H24   1.078437 S    
C33   C34   1.372784 A    
O11   Cr3   2.055978 S    
C39   H19   1.082064 S    
C4    C50   1.446567 S    
C15   C16   1.381069 A    
C14   H7    1.082252 S    
C20   C21   1.398758 A    
C13   C51   1.492838 S    
S1    O27   1.495235 D    
O4    Cr2   1.951707 S    
C42   H20   1.083158 S    
O25   C56   1.275897 A    
C5    C38   1.440396 S    
O8    Cr1   1.952482 S    
O15   C51   1.278896 A    
C10   H3    1.081149 S    
C46   C47   1.404854 A    
O4    C2    1.293321 A    
S2    O32   1.682575 S    
C55   O24   1.262187 A    
O20   C56   1.254112 A    
C5    O11   1.278081 A    
C6    C44   1.452719 S    
C28   H13   1.081627 S    
C14   C15   1.379156 A    
O24   Cr6   2.056677 S    
C36   H17   1.082606 S    
C9    C52   1.442209 S    
C24   C25   1.384843 A    
O6    C3    1.276855 A    
C34   C35   1.404398 A    
C7    H1    1.080119 S    
C3    C26   1.488657 S    
C37   H18   1.083363 S    
C49   C50   1.401337 A    
O15   Cr4   1.953932 S    
C24   H11   1.081088 S    
O25   Cr6   1.950253 S    
C41   C54   1.460411 S    
C25   H8    1.083895 S    
O23   Cr5   1.939316 S    
C30   H14   1.077293 S    
Cr3   O13   1.987429 S    
C39   C40   1.372929 A    
C16   H6    1.074849 S    
O21   C54   1.290959 A    
C39   C44   1.392504 A    
Cr6   O26   1.987030 S    
C52   O18   1.269674 A    
C42   C43   1.391770 A    
O17   Cr5   1.952165 S    
C27   C28   1.412472 A    
O1    Cr1   2.071702 S    
C30   C31   1.370580 A    
C14   C19   1.405302 A    
S1    O29   1.680851 S    
O10   Cr2   1.940073 S    
Cr1   O13   1.971050 S    
C29   C53   1.475150 S    
C41   C42   1.404888 A    
C43   C44   1.401179 A    
C47   C48   1.396044 A    
C20   C26   1.439320 A    
C27   C32   1.409252 A    
C22   H10   1.080174 S    
C8    H2    1.083007 S    
O5    Cr3   2.070678 S    
C23   H9    1.072007 S    
O12   Cr3   1.950721 S    
C45   C50   1.396998 A    
C35   C36   1.391050 A    
C40   C41   1.431704 A    
C17   C18   1.459829 A    
C17   S3    1.798609 S    
O19   C53   1.304298 A    
O7    Cr1   2.074475 S    
S2    O30   1.502906 D    
O17   C52   1.273161 A    
C47   C56   1.449513 S    
O12   C6    1.271870 A    
O1    C3    1.277023 A    
C51   O16   1.281672 A    
Cr5   O26   1.989466 S    
C13   C19   1.412487 A    
C46   H23   1.083006 S    
C21   C25   1.412405 A    
C20   C22   1.420587 A    
Cr4   O26   1.971085 S    
S2    O31   1.499756 D    
S3    O35   1.674307 S    
Cr2   O13   1.989069 S    
C34   H16   1.077258 S    
C45   C46   1.371064 A    
C48   C49   1.389548 A    
C43   H21   1.083141 S    
O21   Cr4   1.953683 S    
C1    O3    1.265438 A    
C54   O22   1.250563 A    
C18   C26   1.449311 A    
O14   C53   1.314277 A    
S3    O34   1.504063 D    
C1    C32   1.484357 S    
C27   H12   1.082450 S    
C16   C17   1.398929 A    
O9    Cr2   2.070986 S    
O2    Cr1   1.955053 S    
C13   C21   1.386895 A    
O20   Cr4   2.073230 S    
O6    Cr3   1.938796 S    
O22   Cr5   2.071511 S    
S1    O28   1.504298 D    
O8    C4    1.273713 A    
C35   C55   1.440631 S    
C2    O5    1.258742 A    
C8    C9    1.409439 A    
O23   C55   1.280973 A    
C7    C12   1.393723 A    
O18   Cr6   2.070408 S    
C10   C11   1.369717 A    
C15   H5    1.082022 S    
C29   C30   1.382176 A    
C40   S2    1.789851 S    
O16   Cr5   2.060510 S    
O29   H26   0.988012 S    
C11   C12   1.406892 A    
C11   H4    1.081826 S    
O14   Cr4   2.073040 S    
C18   C19   1.440684 A    
O7    C6    1.267304 A    
O19   Cr6   1.939576 S    
C28   C29   1.411003 A    
O2    C1    1.289914 A    
C7    C8    1.393920 A    
C31   C32   1.416675 A    
C23   C24   1.385289 A    
C33   H15   1.083939 S    
O3    Cr2   2.061423 S    
C22   C23   1.393388 A    
C33   C38   1.388534 A    
C36   C37   1.386685 A    
C45   H22   1.083870 S    
C31   S1    1.757622 S    
O32   H27   0.990867 S    
O10   C5    1.267104 A    
C37   C38   1.411617 A    
C4    O9    1.265273 A    
C49   H25   1.081434 S    
O35   H28   0.991118 S    
S3    O33   1.503320 D    
C9    C10   1.389647 A    
