data_mof_unit_56237.cif
_audit_creation_date              2012-12-11T14:04:10-0500
_audit_creation_method            fapswitch 2.2
_symmetry_space_group_name_H-M    P1
_symmetry_Int_Tables_number       1
_space_group_crystal_system       triclinic
_cell_length_a                    18.936037
_cell_length_b                    10.951807
_cell_length_c                    18.780155
_cell_angle_alpha                 90.496467
_cell_angle_beta                  91.297865
_cell_angle_gamma                 90.58685
_cell_volume                      3893.34273243

loop_
_atom_site_label
_atom_site_type_symbol
_atom_type_description
_atom_site_fract_x
_atom_site_fract_y
_atom_site_fract_z
_atom_type_partial_charge
C1    C     C_R   0.238867 0.463147 0.648554 0.568845
C2    C     C_R   0.760617 0.465896 0.352735 0.546647
C3    C     C_R   0.738873 0.963136 0.648567 0.568875
C4    C     C_R   0.260618 0.965898 0.352737 0.546640
C5    C     C_2   0.287189 0.844353 0.537938 -0.168244
C6    C     C_2   0.804486 0.799844 0.485782 -0.153948
C7    C     C_2   0.787174 0.344317 0.537930 -0.168247
C8    C     C_2   0.304465 0.299817 0.485780 -0.153965
C9    C     C_R   0.019931 0.672442 0.416627 -0.036482
C10   C     C_R   0.011340 0.658115 0.565606 -0.021292
C11   C     C_R   0.519936 0.172455 0.416621 -0.036482
C12   C     C_R   0.511357 0.158106 0.565600 -0.021295
C13   C     C_R   0.016068 0.895915 0.423701 -0.075981
C14   C     C_R   0.989676 0.883300 0.568503 -0.070438
C15   C     C_R   0.516050 0.395923 0.423706 -0.075980
C16   C     C_R   0.489658 0.383272 0.568507 -0.070452
C17   C     C_R   0.003281 0.002129 0.462158 -0.102434
C18   C     C_R   0.988180 0.995425 0.534016 -0.109973
C19   C     C_R   0.503254 0.502122 0.462170 -0.102468
C20   C     C_R   0.488152 0.495397 0.534027 -0.110005
C21   C     C_R   0.005347 0.773840 0.531338 0.001338
C22   C     C_R   0.013907 0.780742 0.456823 0.002556
C23   C     C_R   0.505344 0.273829 0.531336 0.001342
C24   C     C_R   0.513901 0.280746 0.456823 0.002570
C25   C     C_R   0.023577 0.551106 0.522726 0.008488
C26   C     C_R   0.040129 0.565470 0.450829 0.026774
C27   C     C_R   0.523618 0.051109 0.522715 0.008505
C28   C     C_R   0.540156 0.065491 0.450815 0.026805
C29   C     C_R   0.021546 0.429341 0.548370 -0.073615
C30   C     C_R   0.070460 0.468587 0.412388 -0.049038
C31   C     C_R   0.521621 0.929338 0.548354 -0.073613
C32   C     C_R   0.570497 0.968633 0.412362 -0.048986
C33   C     C_R   0.051733 0.333842 0.510388 -0.112464
C34   C     C_R   0.078669 0.354538 0.443328 -0.095478
C35   C     C_R   0.551822 0.833866 0.510360 -0.112523
C36   C     C_R   0.578737 0.854587 0.443295 -0.095490
C37   C     C_2   0.258383 0.939614 0.914314 -0.111089
C38   C     C_2   0.742042 0.939544 0.086774 -0.118156
C39   C     C_2   0.758385 0.439622 0.914310 -0.111091
C40   C     C_2   0.242042 0.439543 0.086774 -0.118155
C41   C     C_2   0.276074 0.009363 0.065385 -0.117731
C42   C     C_2   0.729078 0.997181 0.934451 -0.119642
C43   C     C_2   0.776071 0.509355 0.065385 -0.117727
C44   C     C_2   0.229077 0.497182 0.934451 -0.119643
C45   C     C_R   0.227042 0.875127 0.648037 0.557113
C46   C     C_R   0.792106 0.830284 0.359880 0.557469
C47   C     C_R   0.727042 0.375124 0.648035 0.557111
C48   C     C_R   0.292106 0.330283 0.359879 0.557472
C49   C     C_2   0.227795 0.061318 0.021077 -0.050319
C50   C     C_2   0.774953 0.056073 0.979400 -0.048896
C51   C     C_2   0.727794 0.561316 0.021077 -0.050320
C52   C     C_2   0.274954 0.556072 0.979400 -0.048897
C53   C     C_2   0.222117 0.029780 0.944872 -0.155232
C54   C     C_2   0.782158 0.023452 0.054708 -0.153116
C55   C     C_2   0.722112 0.529776 0.944873 -0.155233
C56   C     C_2   0.282157 0.523452 0.054708 -0.153115
C57   C     C_2   0.044943 0.658247 0.933447 -0.101979
C58   C     C_2   0.014473 0.662612 0.086864 -0.104022
C59   C     C_2   0.544942 0.158247 0.933447 -0.101978
C60   C     C_2   0.514473 0.162612 0.086864 -0.104023
C61   C     C_2   0.032209 0.561685 0.050615 -0.149013
C62   C     C_2   0.054378 0.562639 0.976421 -0.165845
C63   C     C_2   0.532209 0.061685 0.050615 -0.149013
C64   C     C_2   0.554378 0.062640 0.976421 -0.165844
C65   C     C_R   0.031223 0.653427 0.642699 0.578026
C66   C     C_R   0.975917 0.656924 0.351231 0.521321
C67   C     C_R   0.531227 0.153424 0.642697 0.578023
C68   C     C_R   0.475917 0.156926 0.351230 0.521322
C69   C     C_R   0.224955 0.520670 0.858319 0.547833
C70   C     C_R   0.776278 0.523355 0.142784 0.574301
C71   C     C_R   0.724955 0.020669 0.858319 0.547832
C72   C     C_R   0.276279 0.023357 0.142784 0.574305
C73   C     C_R   0.229279 0.877552 0.851314 0.545193
C74   C     C_R   0.770669 0.877570 0.148998 0.562469
C75   C     C_R   0.729279 0.377553 0.851313 0.545196
C76   C     C_R   0.270669 0.377570 0.148998 0.562469
C77   C     C_R   0.062032 0.648739 0.858686 0.547833
C78   C     C_R   0.972386 0.652506 0.150509 0.543384
C79   C     C_R   0.562032 0.148739 0.858686 0.547836
C80   C     C_R   0.472386 0.152506 0.150509 0.543382
C81   C     C_2   0.248262 0.919204 0.578841 -0.019302
C82   C     C_2   0.779340 0.869041 0.431682 -0.006623
C83   C     C_2   0.748262 0.419189 0.578836 -0.019303
C84   C     C_2   0.279340 0.369037 0.431682 -0.006618
C85   C     C_2   0.246744 0.902726 0.418913 -0.088816
C86   C     C_2   0.744439 0.901280 0.581287 -0.076621
C87   C     C_2   0.746735 0.402719 0.418908 -0.088822
C88   C     C_2   0.244431 0.401280 0.581281 -0.076625
C89   C     C_2   0.299045 0.861786 0.461961 -0.033490
C90   C     C_2   0.798977 0.834602 0.561598 -0.027613
C91   C     C_2   0.799030 0.361745 0.461951 -0.033485
C92   C     C_2   0.298957 0.334573 0.561595 -0.027617
Cr1   Cr    Cr6+3 0.113970 0.508630 0.747920 1.033342
Cr2   Cr    Cr6+3 0.886030 0.508630 0.252080 1.046298
Cr3   Cr    Cr6+3 0.613970 0.008630 0.747920 1.033328
Cr4   Cr    Cr6+3 0.386030 0.008630 0.252080 1.046296
Cr5   Cr    Cr6+3 0.269200 0.666740 0.749850 1.046515
Cr6   Cr    Cr6+3 0.730800 0.666740 0.250150 1.035873
Cr7   Cr    Cr6+3 0.769200 0.166740 0.749850 1.046507
Cr8   Cr    Cr6+3 0.230800 0.166740 0.250150 1.035880
Cr9   Cr    Cr6+3 0.112300 0.820070 0.749800 1.037790
Cr10  Cr    Cr6+3 0.887700 0.820070 0.250200 1.022852
Cr11  Cr    Cr6+3 0.612300 0.320070 0.749800 1.037790
Cr12  Cr    Cr6+3 0.387700 0.320070 0.250200 1.022840
H1    H     H_    0.177833 0.069535 0.915653 0.165610
H2    H     H_    0.829204 0.059313 0.082288 0.167869
H3    H     H_    0.677821 0.569519 0.915658 0.165613
H4    H     H_    0.329202 0.559315 0.082289 0.167868
H5    H     H_    0.318664 0.955116 0.045074 0.101072
H6    H     H_    0.692454 0.929144 0.953292 0.090244
H7    H     H_    0.818657 0.455095 0.045074 0.101073
H8    H     H_    0.192451 0.429148 0.953292 0.090242
H9    H     H_    0.304720 0.900866 0.939025 0.131081
H10   H     H_    0.692291 0.907009 0.064277 0.121112
H11   H     H_    0.804733 0.400893 0.939014 0.131087
H12   H     H_    0.192292 0.407005 0.064275 0.121110
H13   H     H_    0.024591 0.471947 0.073614 0.174045
H14   H     H_    0.072860 0.476844 0.954696 0.149311
H15   H     H_    0.524591 0.971947 0.073614 0.174044
H16   H     H_    0.572862 0.976845 0.954696 0.149310
H17   H     H_    0.024421 0.753411 0.066669 0.112187
H18   H     H_    0.024880 0.744597 0.952471 0.119815
H19   H     H_    0.524421 0.253411 0.066669 0.112187
H20   H     H_    0.524879 0.244597 0.952470 0.119814
H21   H     H_    0.311021 0.763283 0.560850 0.159199
H22   H     H_    0.831464 0.715152 0.473553 0.115662
H23   H     H_    0.810992 0.263233 0.560839 0.159206
H24   H     H_    0.331423 0.215108 0.473550 0.115662
H25   H     H_    0.193420 0.909907 0.438546 0.121625
H26   H     H_    0.698515 0.909613 0.546150 0.125006
H27   H     H_    0.693414 0.409928 0.438545 0.121630
H28   H     H_    0.198508 0.409626 0.546144 0.124988
H29   H     H_    0.004298 0.089509 0.435839 0.141240
H30   H     H_    0.975557 0.077423 0.563461 0.111351
H31   H     H_    0.504264 0.589504 0.435857 0.141249
H32   H     H_    0.475518 0.577375 0.563480 0.111389
H33   H     H_    0.028783 0.904405 0.368033 0.133904
H34   H     H_    0.975821 0.884390 0.623853 0.157047
H35   H     H_    0.528763 0.404426 0.368039 0.133908
H36   H     H_    0.475803 0.384349 0.623856 0.157059
H37   H     H_    0.087180 0.481384 0.358126 0.131431
H38   H     H_    0.995325 0.404863 0.596736 0.146940
H39   H     H_    0.587204 0.981449 0.358096 0.131420
H40   H     H_    0.495409 0.904825 0.596718 0.146952
H41   H     H_    0.053475 0.243398 0.532805 0.131560
H42   H     H_    0.102204 0.280629 0.413815 0.141551
H43   H     H_    0.553589 0.743423 0.532772 0.131633
H44   H     H_    0.602282 0.780698 0.413774 0.141578
O1    O     O_R   0.043230 0.549300 0.667990 -0.519600
O2    O     O_R   0.956770 0.549300 0.332010 -0.495356
O3    O     O_R   0.543230 0.049300 0.667990 -0.519610
O4    O     O_R   0.456770 0.049300 0.332010 -0.495338
O5    O     O_R   0.262920 0.788600 0.824420 -0.499407
O6    O     O_R   0.737080 0.788600 0.175580 -0.496747
O7    O     O_R   0.762920 0.288600 0.824420 -0.499406
O8    O     O_R   0.237080 0.288600 0.175580 -0.496749
O9    O     O_R   0.167530 0.905110 0.830340 -0.520302
O10   O     O_R   0.832470 0.905110 0.169660 -0.508391
O11   O     O_R   0.667530 0.405110 0.830340 -0.520304
O12   O     O_R   0.332470 0.405110 0.169660 -0.508392
O13   O     O_R   0.054010 0.748440 0.822860 -0.480991
O14   O     O_R   0.945990 0.748440 0.177140 -0.498075
O15   O     O_R   0.554010 0.248440 0.822860 -0.480990
O16   O     O_R   0.445990 0.248440 0.177140 -0.498075
O17   O     O_3   0.165160 0.665150 0.749190 -0.299777
O18   O     O_3   0.834840 0.665150 0.250810 -0.299250
O19   O     O_3   0.665160 0.165150 0.749190 -0.299775
O20   O     O_3   0.334840 0.165150 0.250810 -0.299254
O21   O     O_R   0.178620 0.457600 0.674100 -0.495941
O22   O     O_R   0.821380 0.457600 0.325900 -0.475301
O23   O     O_R   0.678620 0.957600 0.674100 -0.495966
O24   O     O_R   0.321380 0.957600 0.325900 -0.475305
O25   O     O_R   0.284680 0.542100 0.669460 -0.504274
O26   O     O_R   0.715320 0.542100 0.330540 -0.521145
O27   O     O_R   0.784680 0.042100 0.669460 -0.504295
O28   O     O_R   0.215320 0.042100 0.330540 -0.521140
O29   O     O_R   0.262860 0.790390 0.676650 -0.507188
O30   O     O_R   0.737140 0.790390 0.323350 -0.502993
O31   O     O_R   0.762860 0.290390 0.676650 -0.507189
O32   O     O_R   0.237140 0.290390 0.323350 -0.502975
O33   O     O_R   0.167460 0.907030 0.670940 -0.500905
O34   O     O_R   0.832540 0.907030 0.329060 -0.495553
O35   O     O_R   0.667460 0.407030 0.670940 -0.500903
O36   O     O_R   0.332540 0.407030 0.329060 -0.495565
O37   O     O_R   0.053950 0.750220 0.675100 -0.492927
O38   O     O_R   0.946050 0.750220 0.324900 -0.522448
O39   O     O_R   0.553950 0.250220 0.675100 -0.492926
O40   O     O_R   0.446050 0.250220 0.324900 -0.522456
O41   O     O_R   0.043300 0.547370 0.827390 -0.493991
O42   O     O_R   0.956700 0.547370 0.172610 -0.520728
O43   O     O_R   0.543300 0.047370 0.827390 -0.493986
O44   O     O_R   0.456700 0.047370 0.172610 -0.520730
O45   O     O_R   0.178690 0.455820 0.821860 -0.510695
O46   O     O_R   0.821310 0.455820 0.178140 -0.492729
O47   O     O_R   0.678690 0.955820 0.821860 -0.510702
O48   O     O_R   0.321310 0.955820 0.178140 -0.492730
O49   O     O_R   0.284750 0.540170 0.828860 -0.474093
O50   O     O_R   0.715250 0.540170 0.171140 -0.488925
O51   O     O_R   0.784750 0.040170 0.828860 -0.474100
O52   O     O_R   0.215250 0.040170 0.171140 -0.488925
C93   C     C_1   0.365776 0.821114 0.434874 0.261373
N1    N     N_1   0.418591 0.787570 0.412443 -0.301530
C94   C     C_1   0.841742 0.774994 0.615316 0.198618
N2    N     N_1   0.874367 0.726196 0.659215 -0.304014
C95   C     C_1   0.865743 0.321015 0.434853 0.261396
N3    N     N_1   0.918542 0.287423 0.412413 -0.301560
C96   C     C_1   0.341725 0.274972 0.615312 0.198630
N4    N     N_1   0.374355 0.226187 0.659211 -0.304013
C97   C     C_1   0.216421 0.030725 0.553082 0.197605
N5    N     N_1   0.189636 0.118566 0.532628 -0.334582
C98   C     C_1   0.753929 0.993151 0.440047 0.209158
N6    N     N_1   0.733421 0.091723 0.446330 -0.324843
C99   C     C_1   0.716438 0.530727 0.553082 0.197601
N7    N     N_1   0.689666 0.618583 0.532632 -0.334619
C100  C     C_1   0.253957 0.493156 0.440051 0.209176
N8    N     N_1   0.233473 0.591734 0.446336 -0.324840
C101  C     C_1   0.171349 0.137205 0.046839 0.238011
N9    N     N_1   0.125430 0.196364 0.066889 -0.308301
C102  C     C_1   0.828978 0.139028 0.954429 0.235828
N10   N     N_1   0.873363 0.203097 0.934914 -0.293834
C103  C     C_1   0.671351 0.637209 0.046840 0.238009
N11   N     N_1   0.625433 0.696372 0.066891 -0.308304
C104  C     C_1   0.328980 0.639022 0.954429 0.235824
N12   N     N_1   0.373368 0.703088 0.934914 -0.293829

loop_
_geom_bond_atom_site_label_1
_geom_bond_atom_site_label_2
_ccdc_geom_bond_type
C7    C83   D    
C94   N2    T    
Cr6   O6    S    
C55   H3    S    
Cr11  O19   S    
C6    C82   D    
C87   C91   D    
C93   N1    T    
C14   C18   A    
Cr1   O1    S    
C35   C36   A    
C78   O42   A    
C38   H10   S    
C82   C98   S    
C57   C77   S    
C43   C51   D    
Cr2   O18   S    
C45   O33   A    
C57   C62   D    
C95   N3    T    
C15   C19   A    
C12   C23   A    
Cr1   O21   S    
C59   C64   D    
C50   C54   S    
C30   H37   S    
C60   C63   D    
Cr11  O35   S    
C32   C36   A    
C14   C21   A    
C51   C103  S    
C66   O2    A    
Cr6   O26   S    
Cr5   O17   S    
C9    C22   A    
C5    H21   S    
Cr12  O20   S    
C19   H31   S    
Cr4   O4    S    
C73   O9    A    
C50   C102  S    
C63   H15   S    
C74   O6    A    
C87   H27   S    
C31   H40   S    
C46   O30   A    
C9    C66   S    
C56   H4    S    
C32   H39   S    
C47   O31   A    
C85   H25   S    
C57   H18   S    
C46   C82   S    
Cr5   O29   S    
C36   H44   S    
C39   C55   D    
C14   H34   S    
C29   C33   A    
C67   O39   A    
C40   C56   D    
Cr7   O7    S    
Cr8   O28   S    
C23   C24   A    
Cr4   O20   S    
C8    C92   S    
C47   C83   S    
Cr6   O30   S    
C15   H35   S    
C61   C62   S    
C2    O26   A    
C84   C100  S    
C16   C20   A    
C37   C53   D    
C70   O46   A    
C44   C52   D    
C58   C61   D    
Cr1   O17   S    
Cr10  O18   S    
C79   O43   A    
C21   C22   A    
C3    C86   S    
C69   O49   A    
C80   O44   A    
Cr10  O10   S    
C16   H36   S    
C43   H7    S    
Cr12  O12   S    
Cr9   O37   S    
C41   C49   D    
C83   C99   S    
C8    H24   S    
C9    C26   A    
C17   C18   A    
Cr7   O19   S    
Cr11  O11   S    
C10   C21   A    
C25   C29   A    
C11   C24   A    
Cr12  O40   S    
C12   C67   S    
C65   O37   A    
Cr5   O25   S    
C30   C34   A    
C12   C27   A    
C61   H13   S    
C96   N4    T    
Cr10  O34   S    
C88   C92   D    
C28   C32   A    
Cr11  O39   S    
C6    H22   S    
C104  N12   T    
C47   O35   A    
C86   C90   D    
C59   C79   S    
C102  N10   T    
C48   O36   A    
C85   C89   D    
C86   H26   S    
C35   H43   S    
C4    C85   S    
C8    C84   D    
C101  N9    T    
C99   N7    T    
C27   C31   A    
Cr5   O5    S    
C76   O8    A    
C80   O16   A    
C48   C84   S    
C49   C101  S    
Cr12  O16   S    
C13   H33   S    
C60   H19   S    
C100  N8    T    
Cr2   O42   S    
Cr7   O31   S    
C103  N11   T    
C68   O4    A    
Cr5   O49   S    
C72   O52   A    
C5    C81   D    
C71   O47   A    
C98   N6    T    
C38   C54   D    
Cr10  O14   S    
C1    O25   A    
C69   O45   A    
C97   N5    T    
C2    C87   S    
Cr10  O38   S    
C20   H32   S    
C54   H2    S    
Cr9   O17   S    
Cr1   O45   S    
Cr6   O18   S    
C33   H41   S    
C42   C50   D    
C41   C72   S    
Cr8   O52   S    
C10   C25   A    
C3    O27   A    
C15   C24   A    
Cr12  O36   S    
C2    O22   A    
C78   O14   A    
C16   C23   A    
C39   C75   S    
C66   O38   A    
C17   H29   S    
C31   C35   A    
Cr3   O3    S    
Cr8   O8    S    
C88   H28   S    
C73   O5    A    
Cr8   O32   S    
C44   H8    S    
C7    C91   S    
C48   O32   A    
Cr9   O33   S    
C11   C68   S    
C90   C94   S    
C38   C74   S    
C10   C65   S    
C75   O11   A    
C59   H20   S    
C37   C73   S    
C76   O12   A    
C58   H17   S    
Cr3   O47   S    
Cr3   O43   S    
C4    O24   A    
C60   C80   S    
Cr2   O46   S    
Cr11  O15   S    
C45   C81   S    
C79   O15   A    
Cr3   O19   S    
Cr4   O24   S    
C72   O48   A    
C75   O7    A    
C71   O51   A    
Cr1   O41   S    
C43   C70   S    
C89   C93   S    
C39   H11   S    
C64   H16   S    
C13   C17   A    
Cr8   O20   S    
C77   O41   A    
C46   O34   A    
C19   C20   A    
Cr9   O13   S    
C25   C26   A    
C92   C96   S    
C6    C90   S    
C91   C95   S    
Cr2   O22   S    
C45   O29   A    
C34   H42   S    
C3    O23   A    
Cr6   O50   S    
C40   H12   S    
C11   C28   A    
C1    C88   S    
C67   O3    A    
C49   C53   S    
C29   H38   S    
C1    O21   A    
C42   C71   S    
C77   O13   A    
C33   C34   A    
C13   C22   A    
C18   H30   S    
C51   C55   S    
C42   H6    S    
Cr4   O44   S    
C62   H14   S    
C58   C78   S    
Cr9   O9    S    
C63   C64   S    
C53   H1    S    
Cr2   O2    S    
Cr4   O48   S    
Cr7   O27   S    
C68   O40   A    
C52   C104  S    
C70   O50   A    
C81   C97   S    
C4    O28   A    
C40   C76   S    
Cr7   O51   S    
C27   C28   A    
C65   O1    A    
C44   C69   S    
C37   H9    S    
C41   H5    S    
C74   O10   A    
C7    H23   S    
Cr3   O23   S    
C5    C89   S    
C52   C56   S    
C26   C30   A    
