data_mof_unit_20594.cif
_audit_creation_date              2012-12-11T14:45:53-0500
_audit_creation_method            fapswitch 2.2
_symmetry_space_group_name_H-M    P1
_symmetry_Int_Tables_number       1
_space_group_crystal_system       triclinic
_cell_length_a                    10.871086
_cell_length_b                    10.884884
_cell_length_c                    18.832451
_cell_angle_alpha                 89.451249
_cell_angle_beta                  90.607166
_cell_angle_gamma                 119.448406
_cell_volume                      1940.40121307

loop_
_atom_site_label
_atom_site_type_symbol
_atom_type_description
_atom_site_fract_x
_atom_site_fract_y
_atom_site_fract_z
_atom_type_partial_charge
C1    C     C_R   0.864616 0.637574 0.603361 0.538950
C2    C     C_R   0.426915 0.659900 0.775259 -0.108309
C3    C     C_R   0.383224 0.631385 0.705551 -0.102223
C4    C     C_R   0.259219 0.630142 0.683972 0.035923
C5    C     C_R   0.823236 0.137343 0.815854 -0.030939
C6    C     C_R   0.080322 0.225471 0.824818 -0.091985
C7    C     C_R   0.206956 0.253135 0.793422 -0.122166
C8    C     C_R   0.210970 0.230341 0.721238 -0.129873
C9    C     C_R   0.090079 0.187013 0.679508 -0.085957
C10   C     C_R   0.962273 0.165984 0.709474 -0.001553
C11   C     C_R   0.954597 0.174675 0.784111 -0.008056
C12   C     C_R   0.211110 0.595914 0.611173 0.559255
C13   C     C_R   0.709470 0.076562 0.697955 0.015170
C14   C     C_R   0.701492 0.100198 0.770815 -0.003110
C15   C     C_R   0.584310 0.006202 0.656330 0.113784
C16   C     C_R   0.457032 0.986671 0.682952 -0.086620
C17   C     C_R   0.452145 0.032608 0.750671 -0.162631
C18   C     C_R   0.571558 0.087452 0.794346 -0.095208
C19   C     C_R   0.842543 0.136827 0.666773 -0.019101
C20   C     C_R   0.724665 0.535645 0.712379 -0.125736
C21   C     C_R   0.714826 0.544634 0.785957 0.072756
C22   C     C_R   0.802156 0.674372 0.819394 0.045393
C23   C     C_R   0.861985 0.221029 0.601222 0.557589
C24   C     C_R   0.887993 0.794825 0.778349 -0.167612
C25   C     C_R   0.895078 0.785543 0.705958 -0.151468
C26   C     C_R   0.819685 0.654880 0.673065 0.003292
C27   C     C_R   0.392869 0.607010 0.295656 -0.143823
C28   C     C_R   0.408596 0.612031 0.223294 -0.125182
C29   C     C_R   0.376263 0.699954 0.181579 0.012738
C30   C     C_R   0.338788 0.791652 0.213702 -0.125071
C31   C     C_R   0.319743 0.785790 0.287252 0.085670
C32   C     C_R   0.338830 0.685319 0.327732 0.053564
C33   C     C_R   0.717226 0.127050 0.291527 -0.155675
C34   C     C_R   0.864394 0.639258 0.397932 0.557445
C35   C     C_R   0.708515 0.114259 0.219118 -0.136718
C36   C     C_R   0.825325 0.132638 0.179692 0.011202
C37   C     C_R   0.948970 0.156500 0.214412 -0.127321
C38   C     C_R   0.959856 0.171383 0.287917 0.068780
C39   C     C_R   0.844675 0.164495 0.326454 0.041723
C40   C     C_R   0.897120 0.788140 0.294958 -0.117911
C41   C     C_R   0.892411 0.797938 0.222459 -0.120459
C42   C     C_R   0.805611 0.678058 0.181782 0.031901
C43   C     C_R   0.717369 0.549257 0.214996 -0.149781
C44   C     C_R   0.724820 0.538560 0.288289 -0.135209
C45   C     C_R   0.274273 0.637038 0.397236 0.589297
C46   C     C_R   0.819766 0.657348 0.327917 0.028664
C47   C     C_R   0.801644 0.097533 0.892475 0.536419
C48   C     C_R   0.392408 0.700538 0.897368 0.537862
C49   C     C_R   0.793922 0.696341 0.894915 0.559782
C50   C     C_R   0.803464 0.099913 0.104659 0.552010
C51   C     C_R   0.404620 0.707717 0.106263 0.549113
C52   C     C_R   0.795600 0.698691 0.106543 0.546847
C53   C     C_R   0.862036 0.226379 0.396576 0.578065
C54   C     C_R   0.181082 0.661238 0.732393 -0.149282
C55   C     C_R   0.225000 0.689295 0.803117 -0.143292
C56   C     C_R   0.346802 0.685946 0.824351 0.044536
Cr1   Cr    Cr6+3 0.791660 0.390250 0.499930 1.035763
Cr2   Cr    Cr6+3 0.098520 0.708290 0.500540 1.053136
Cr3   Cr    Cr6+3 0.109770 0.401430 0.499480 1.053861
Cr4   Cr    Cr6+3 0.874790 0.925890 0.000070 1.009570
Cr5   Cr    Cr6+3 0.574120 0.948670 0.999300 1.010195
Cr6   Cr    Cr6+3 0.551420 0.625320 0.000920 1.028765
H1    H     H_    0.085372 0.660860 0.715714 0.121321
H2    H     H_    0.362181 0.938195 0.650673 0.154091
H3    H     H_    0.354566 0.023599 0.770024 0.115565
H4    H     H_    0.665128 0.433952 0.686859 0.138605
H5    H     H_    0.950800 0.897787 0.802114 0.158498
H6    H     H_    0.967108 0.879080 0.676444 0.146262
H7    H     H_    0.413747 0.533896 0.325851 0.163139
H8    H     H_    0.446235 0.546071 0.200063 0.153914
H9    H     H_    0.322266 0.865452 0.181552 0.116179
H10   H     H_    0.163110 0.709736 0.841060 0.115234
H11   H     H_    0.625877 0.116517 0.319483 0.138172
H12   H     H_    0.608265 0.088151 0.194316 0.144752
H13   H     H_    0.036471 0.162775 0.184500 0.139252
H14   H     H_    0.969165 0.880875 0.324669 0.173180
H15   H     H_    0.957454 0.900387 0.198379 0.147340
H16   H     H_    0.646038 0.457334 0.184381 0.123427
H17   H     H_    0.663355 0.436035 0.313089 0.144256
H18   H     H_    0.522637 0.659510 0.791413 0.143107
H19   H     H_    0.446351 0.610339 0.668648 0.154467
H20   H     H_    0.301844 0.290894 0.825433 0.138695
H21   H     H_    0.308376 0.247508 0.697360 0.112176
H22   H     H_    0.082963 0.247501 0.880837 0.133704
H23   H     H_    0.096634 0.165883 0.624100 0.141885
H24   H     H_    0.559650 0.127441 0.844247 0.154585
O1    O     O_R   0.766500 0.250040 0.579790 -0.491992
O2    O     O_R   0.218690 0.701900 0.425960 -0.455050
O3    O     O_R   0.249490 0.516440 0.419420 -0.495682
O4    O     O_R   0.982880 0.281910 0.424890 -0.464186
O5    O     O_3   0.999980 0.499990 0.499980 -0.278361
O6    O     O_R   0.895110 0.806860 0.920430 -0.535214
O7    O     O_R   0.872260 0.046970 0.925000 -0.504611
O8    O     O_R   0.691430 0.085060 0.918550 -0.531380
O9    O     O_R   0.451490 0.822460 0.925250 -0.500308
O10   O     O_R   0.413330 0.603360 0.920440 -0.512631
O11   O     O_R   0.676110 0.626250 0.926750 -0.467690
O12   O     O_R   0.798570 0.516780 0.574780 -0.508258
O13   O     O_R   0.895350 0.809870 0.080950 -0.524672
O14   O     O_R   0.872490 0.049760 0.073800 -0.507230
O15   O     O_R   0.691680 0.088070 0.079070 -0.524750
O16   O     O_R   0.451720 0.825250 0.074050 -0.509822
O17   O     O_R   0.413580 0.606370 0.080960 -0.523361
O18   O     O_R   0.676340 0.629040 0.075550 -0.507655
O19   O     O_3   0.666780 0.833290 0.000090 -0.253388
O20   O     O_R   0.984000 0.732950 0.581090 -0.532693
O21   O     O_R   0.218600 0.700890 0.574760 -0.492211
O22   O     O_R   0.249390 0.515350 0.579940 -0.511104
O23   O     O_R   0.982790 0.280900 0.573700 -0.525342
O24   O     O_R   0.766600 0.251130 0.419260 -0.517698
O25   O     O_R   0.798660 0.517790 0.425980 -0.506652
O26   O     O_R   0.984100 0.734040 0.420570 -0.489530
I1    I     I_    0.578149 0.915349 0.555538 -0.365699
N1    N     N_3   0.620327 0.422877 0.826724 -0.619771
H25   H     H_    0.553520 0.340702 0.793048 0.211081
H26   H     H_    0.681893 0.389275 0.854896 0.228622
N2    N     N_3   0.275866 0.876650 0.320017 -0.573750
H27   H     H_    0.359972 0.948368 0.351516 0.236351
H28   H     H_    0.257470 0.936185 0.281785 0.226589
I2    I     I_    0.154041 0.202313 0.332592 -0.440510

loop_
_geom_bond_atom_site_label_1
_geom_bond_atom_site_label_2
_ccdc_geom_bond_type
C53   O24   A    
C55   C56   A    
C35   H12   S    
C48   O9    A    
Cr6   O10   S    
C8    H21   S    
C34   O26   A    
C41   C42   A    
C14   C18   A    
Cr5   O15   S    
C35   C36   A    
Cr4   O13   S    
N1    H25   S    
C7    C8    A    
Cr6   O19   S    
C39   C53   S    
C51   O16   A    
C40   C46   A    
C5    C47   S    
C18   H24   S    
Cr2   O26   S    
C20   H4    S    
C28   C29   A    
C29   C51   S    
C5    C11   A    
N2    H28   S    
C41   H15   S    
C30   C31   A    
C54   H1    S    
C51   O17   A    
C15   C16   A    
C48   O10   A    
Cr2   O21   S    
C32   C45   S    
C31   N2    S    
C24   H5    S    
C9    H23   S    
Cr3   O3    S    
Cr1   O24   S    
C8    C9    A    
C3    H19   S    
C15   I1    S    
C34   C46   S    
C4    C12   S    
C29   C30   A    
Cr5   O19   S    
C9    C10   A    
C55   H10   S    
C27   H7    S    
C1    O20   A    
C38   I2    S    
Cr4   O7    S    
C37   H13   S    
C23   O1    A    
C21   C22   A    
C34   O25   A    
C25   H6    S    
Cr3   O23   S    
C44   C46   A    
C30   H9    S    
Cr6   O18   S    
Cr4   O6    S    
C38   C39   A    
C23   O23   A    
C6    H22   S    
C13   C19   A    
C45   O2    A    
C24   C25   A    
C6    C11   A    
C12   O22   A    
Cr5   O8    S    
C16   C17   A    
Cr3   O5    S    
C25   C26   A    
Cr1   O1    S    
C43   H16   S    
Cr3   O4    S    
C19   C23   S    
C43   C44   A    
C37   C38   A    
Cr6   O11   S    
C31   C32   A    
C10   C19   A    
C17   C18   A    
C47   O7    A    
C33   C39   A    
C5    C14   A    
C22   C49   S    
C33   H11   S    
C40   C41   A    
C13   C15   A    
C1    C26   S    
C22   C24   A    
C42   C43   A    
C49   O6    A    
C3    C4    A    
C53   O4    A    
C36   C50   S    
Cr6   O17   S    
Cr2   O5    S    
C48   C56   S    
C54   C55   A    
C36   C37   A    
C45   O3    A    
Cr1   O5    S    
C4    C54   A    
C27   C32   A    
C50   O14   A    
C44   H17   S    
C28   H8    S    
C21   N1    S    
Cr4   O14   S    
Cr2   O2    S    
C1    O12   A    
C12   O21   A    
N1    H26   S    
Cr5   O9    S    
C6    C7    A    
C52   O13   A    
C17   H3    S    
Cr3   O22   S    
Cr5   O16   S    
C2    C56   A    
N2    H27   S    
Cr1   O25   S    
C20   C26   A    
Cr1   O12   S    
C33   C35   A    
C47   O8    A    
C52   O18   A    
C2    C3    A    
C2    H18   S    
C10   C11   A    
C49   O11   A    
C40   H14   S    
C7    H20   S    
C20   C21   A    
C50   O15   A    
C27   C28   A    
C16   H2    S    
Cr2   O20   S    
C13   C14   A    
Cr4   O19   S    
C42   C52   S    
