data_mof_unit_50534.cif
_audit_creation_date              2012-12-11T16:24:26-0500
_audit_creation_method            fapswitch 2.2
_symmetry_space_group_name_H-M    P1
_symmetry_Int_Tables_number       1
_space_group_crystal_system       triclinic
_cell_length_a                    14.707882
_cell_length_b                    14.734313
_cell_length_c                    33.243201
_cell_angle_alpha                 95.868611
_cell_angle_beta                  96.165949
_cell_angle_gamma                 61.445019
_cell_volume                      6280.52559248

loop_
_atom_site_label
_atom_site_type_symbol
_atom_type_description
_atom_site_fract_x
_atom_site_fract_y
_atom_site_fract_z
_atom_type_partial_charge
C1    C     C_R   0.390706 0.700366 0.446194 0.544482
C2    C     C_1   0.317282 0.334061 0.229145 -0.018939
C3    C     C_1   0.322095 0.339712 0.265453 -0.018549
C4    C     C_R   0.405141 0.385868 0.434226 0.576548
C5    C     C_R   0.291936 0.292614 0.101869 0.021104
C6    C     C_R   0.751990 0.373005 0.409102 0.005420
C7    C     C_R   0.783834 0.433105 0.390574 -0.133103
C8    C     C_R   0.807664 0.410992 0.350180 -0.123711
C9    C     C_R   0.798846 0.329419 0.327377 0.047673
C10   C     C_R   0.772618 0.264100 0.346585 -0.007041
C11   C     C_R   0.752226 0.285688 0.387598 -0.115067
C12   C     C_R   0.329708 0.347651 0.308688 -0.015215
C13   C     C_R   0.822683 0.309822 0.202353 0.340746
C14   C     C_R   0.808798 0.321404 0.283463 0.333117
C15   C     C_R   0.829232 0.389646 0.141049 -0.119031
C16   C     C_R   0.700399 0.410047 0.447394 0.541379
C17   C     C_R   0.862912 0.378744 0.102451 -0.129126
C18   C     C_R   0.903878 0.198085 0.097510 -0.134561
C19   C     C_R   0.871632 0.208579 0.136360 -0.121797
C20   C     C_R   0.838116 0.303393 0.159042 0.036878
C21   C     C_R   0.904928 0.281691 0.081158 0.024622
C22   C     C_R   0.365232 0.767207 0.412091 0.021454
C23   C     C_R   0.386565 0.258961 0.330468 -0.089627
C24   C     C_R   0.264125 0.813660 0.393680 -0.129769
C25   C     C_R   0.242125 0.866610 0.358538 -0.116880
C26   C     C_R   0.320876 0.873836 0.340867 0.045804
C27   C     C_R   0.420771 0.832353 0.360538 -0.103010
C28   C     C_R   0.393538 0.701374 0.561265 0.545158
C29   C     C_R   0.442718 0.779637 0.395876 -0.126886
C30   C     C_R   0.272027 0.964736 0.221766 0.345437
C31   C     C_R   0.301028 0.914701 0.300224 0.355867
C32   C     C_R   0.177819 0.974913 0.153906 -0.115452
C33   C     C_R   0.169807 0.982042 0.112081 -0.129564
C34   C     C_R   0.405701 0.267253 0.372549 0.257743
C35   C     C_R   0.323822 0.003814 0.117391 -0.130820
C36   C     C_R   0.332530 0.995566 0.159288 -0.117818
C37   C     C_R   0.259858 0.980457 0.177933 0.037440
C38   C     C_R   0.243117 0.995668 0.093285 0.018416
C39   C     C_R   0.371218 0.368559 0.584996 0.025533
C40   C     C_R   0.407265 0.388670 0.548965 0.554059
C41   C     C_R   0.284319 0.447636 0.603654 -0.129561
C42   C     C_R   0.265077 0.438321 0.642766 -0.121074
C43   C     C_R   0.332528 0.349871 0.663746 0.034457
C44   C     C_R   0.413458 0.266955 0.643587 -0.120309
C45   C     C_R   0.395700 0.248560 0.165710 -0.114750
C46   C     C_R   0.432553 0.276144 0.604512 -0.123237
C47   C     C_R   0.319209 0.349018 0.788686 0.346677
C48   C     C_R   0.325145 0.347640 0.707385 0.347293
C49   C     C_R   0.219116 0.404542 0.850645 -0.121554
C50   C     C_R   0.207766 0.384612 0.889386 -0.130972
C51   C     C_R   0.386952 0.250226 0.893314 -0.129854
C52   C     C_R   0.701517 0.413509 0.562676 0.540868
C53   C     C_R   0.398261 0.270110 0.854657 -0.120602
C54   C     C_R   0.313001 0.343837 0.832208 0.034623
C55   C     C_R   0.290173 0.303702 0.910150 0.021869
C56   C     C_R   0.386044 0.232067 0.123818 -0.129924
C57   C     C_R   0.754477 0.380298 0.602901 0.020171
C58   C     C_R   0.779012 0.447353 0.629441 -0.125057
C59   C     C_R   0.807178 0.426830 0.670267 -0.110060
C60   C     C_R   0.811615 0.339031 0.684909 0.040803
C61   C     C_R   0.793756 0.268560 0.658299 -0.110559
C62   C     C_R   0.765631 0.288821 0.617459 -0.125017
C63   C     C_R   0.884572 0.213061 0.823004 -0.110563
C64   C     C_R   0.368287 0.367220 0.392637 0.002756
C65   C     C_R   0.912334 0.201754 0.864412 -0.127520
C66   C     C_R   0.871597 0.382433 0.873382 -0.125812
C67   C     C_R   0.210483 0.374770 0.122219 -0.124295
C68   C     C_R   0.843706 0.393529 0.832029 -0.110689
C69   C     C_R   0.853172 0.308157 0.806657 0.041658
C70   C     C_1   0.838196 0.316690 0.763623 -0.021789
C71   C     C_1   0.826973 0.325503 0.727629 -0.022017
C72   C     C_R   0.909659 0.285489 0.889756 0.019162
C73   C     C_R   0.376581 0.754753 0.601984 0.021096
C74   C     C_R   0.281065 0.790031 0.619059 -0.123982
C75   C     C_R   0.271602 0.819215 0.660293 -0.110071
C76   C     C_R   0.304397 0.454914 0.370349 -0.175011
C77   C     C_R   0.357193 0.813799 0.684868 0.041280
C78   C     C_R   0.220427 0.391095 0.164139 -0.107000
C79   C     C_R   0.450696 0.784945 0.667759 -0.110655
C80   C     C_R   0.460347 0.755918 0.626464 -0.125563
C81   C     C_R   0.397226 0.884402 0.832775 -0.110714
C82   C     C_R   0.377328 0.911901 0.873587 -0.125838
C83   C     C_R   0.227850 0.881897 0.862789 -0.126169
C84   C     C_R   0.248036 0.854316 0.822028 -0.110657
C85   C     C_R   0.330982 0.858281 0.806778 0.040234
C86   C     C_1   0.343421 0.842346 0.764016 -0.022594
C87   C     C_1   0.350770 0.830192 0.727960 -0.022187
C88   C     C_R   0.285757 0.445121 0.328730 -0.129281
C89   C     C_R   0.311848 0.326006 0.185913 0.041536
C90   C     C_R   0.290402 0.914147 0.888719 0.018736
C91   C     C_R   0.963028 0.264174 0.045378 0.538371
C92   C     C_R   0.272875 0.259141 0.060021 0.533767
C93   C     C_R   0.229863 0.010265 0.049341 0.566751
C94   C     C_R   0.962403 0.267690 0.930740 0.545157
C95   C     C_R   0.270983 0.264213 0.945427 0.547231
C96   C     C_R   0.256139 0.965019 0.928937 0.554999
C97   C     C_3   0.753943 0.178769 0.324172 -0.248028
C98   C     C_3   0.649990 0.223754 0.298760 -0.284125
C99   C     C_3   0.628824 0.138116 0.277695 -0.437553
Cr1   Cr    Cr6+3 0.576280 0.580550 0.506370 1.020847
Cr2   Cr    Cr6+3 0.346780 0.572400 0.496520 1.019051
Cr3   Cr    Cr6+3 0.576960 0.347070 0.497150 1.073529
Cr4   Cr    Cr6+3 0.087320 0.083240 0.984860 1.008205
Cr5   Cr    Cr6+3 0.087720 0.316210 0.996740 1.008234
Cr6   Cr    Cr6+3 0.317350 0.090340 0.995890 1.012047
H1    H     H_    0.450126 0.168213 0.109017 0.127617
H2    H     H_    0.105856 0.977076 0.094483 0.125347
H3    H     H_    0.466882 0.198184 0.182489 0.107988
H4    H     H_    0.164096 0.898406 0.344403 0.137854
H5    H     H_    0.483166 0.836689 0.347756 0.143662
H6    H     H_    0.120475 0.963268 0.167270 0.137901
H7    H     H_    0.380131 0.016872 0.103938 0.136093
H8    H     H_    0.396115 0.001027 0.177035 0.132502
H9    H     H_    0.235129 0.519515 0.589192 0.131416
H10   H     H_    0.499331 0.213351 0.590688 0.138794
H11   H     H_    0.132382 0.427635 0.901763 0.130983
H12   H     H_    0.727462 0.238900 0.401803 0.159719
H13   H     H_    0.201248 0.502960 0.657366 0.133034
H14   H     H_    0.465460 0.196853 0.658705 0.134372
H15   H     H_    0.418534 0.183540 0.314410 0.169763
H16   H     H_    0.152410 0.462836 0.834252 0.132636
H17   H     H_    0.452272 0.188449 0.908894 0.130225
H18   H     H_    0.472322 0.223613 0.841565 0.133608
H19   H     H_    0.941820 0.125982 0.876030 0.128084
H20   H     H_    0.891911 0.146614 0.803519 0.111557
H21   H     H_    0.797321 0.200236 0.669414 0.112688
H22   H     H_    0.747145 0.235694 0.597843 0.129470
H23   H     H_    0.861522 0.444895 0.090304 0.131780
H24   H     H_    0.770848 0.518530 0.619242 0.128483
H25   H     H_    0.819094 0.467547 0.819581 0.111274
H26   H     H_    0.868633 0.448335 0.892076 0.127981
H27   H     H_    0.821183 0.481661 0.690725 0.113280
H28   H     H_    0.426783 0.936663 0.892699 0.129111
H29   H     H_    0.461773 0.887441 0.821196 0.113300
H30   H     H_    0.517331 0.780655 0.686607 0.111316
H31   H     H_    0.535087 0.728626 0.614308 0.128714
H32   H     H_    0.215197 0.789975 0.601053 0.129693
H33   H     H_    0.196515 0.833876 0.802072 0.113848
H34   H     H_    0.828574 0.460989 0.336103 0.136905
H35   H     H_    0.160256 0.883014 0.873441 0.128419
H36   H     H_    0.198813 0.841749 0.673323 0.111760
H37   H     H_    0.274010 0.532384 0.384574 0.148540
H38   H     H_    0.155364 0.451504 0.179724 0.117341
H39   H     H_    0.136991 0.422479 0.106189 0.130955
H40   H     H_    0.240945 0.514078 0.311942 0.131913
H41   H     H_    0.784720 0.500581 0.406531 0.136698
H42   H     H_    0.691083 0.087977 0.257179 0.163320
H43   H     H_    0.624605 0.090285 0.300461 0.187541
H44   H     H_    0.553618 0.172976 0.259427 0.142147
H45   H     H_    0.802625 0.464008 0.157701 0.137524
H46   H     H_    0.586097 0.273278 0.318762 0.176731
H47   H     H_    0.649892 0.272405 0.275354 0.186283
H48   H     H_    0.819258 0.126952 0.305368 0.177842
H49   H     H_    0.751886 0.127879 0.346204 0.160860
H50   H     H_    0.509892 0.991649 0.386184 0.363646
H51   H     H_    0.934027 0.122876 0.081404 0.120278
H52   H     H_    0.877383 0.141309 0.149278 0.128661
H53   H     H_    0.202456 0.806399 0.405695 0.134122
H54   H     H_    0.521327 0.744998 0.409499 0.132192
N1    N     N_R   0.775947 0.403050 0.223072 -0.231454
N2    N     N_R   0.377115 0.918988 0.281967 -0.209838
N3    N     N_R   0.362814 0.943748 0.243525 -0.229435
N4    N     N_R   0.240031 0.423092 0.766769 -0.236047
N5    N     N_R   0.243291 0.422841 0.726901 -0.235524
N6    N     N_R   0.404134 0.273749 0.729339 -0.234453
N7    N     N_R   0.401054 0.274218 0.769140 -0.234744
N8    N     N_R   0.768817 0.408705 0.262855 -0.230648
N9    N     N_R   0.856425 0.228274 0.262836 -0.229570
N10   N     N_R   0.863184 0.222529 0.223015 -0.229011
N11   N     N_R   0.195191 0.962952 0.240347 -0.219863
N12   N     N_R   0.209381 0.938505 0.278746 -0.228769
O1    O     O_R   0.679450 0.499830 0.463150 -0.515473
O2    O     O_R   0.340240 0.172500 0.045430 -0.531616
O3    O     O_R   0.309670 0.000990 0.032050 -0.497910
O4    O     O_R   0.480650 0.664000 0.464630 -0.498115
O5    O     O_R   0.168330 0.982130 0.939200 -0.514676
O6    O     O_R   0.000140 0.178170 0.944610 -0.501053
O7    O     O_R   0.983010 0.336750 0.948660 -0.517101
O8    O     O_R   0.181800 0.312190 0.959860 -0.498911
O9    O     O_R   0.338500 0.175680 0.956950 -0.517864
O10   O     O_R   0.308050 0.003930 0.950020 -0.494787
O11   O     O_3   0.164130 0.163270 0.992500 -0.259347
O12   O     O_R   0.356040 0.477400 0.534170 -0.503698
O13   O     O_R   0.323930 0.675950 0.455370 -0.521405
O14   O     O_R   0.354700 0.475360 0.451930 -0.516249
O15   O     O_R   0.494470 0.320860 0.448390 -0.430771
O16   O     O_R   0.662580 0.357570 0.460050 -0.502394
O17   O     O_R   0.680900 0.502040 0.551870 -0.519306
O18   O     O_R   0.481990 0.666040 0.546870 -0.500689
O19   O     O_R   0.325370 0.678160 0.544080 -0.517680
O20   O     O_2   0.588638 0.126119 0.403717 -0.300897
O21   O     O_2   0.434574 0.163520 0.438721 -0.264551
O22   O     O_3   0.466871 0.053539 0.370428 -0.537318
O23   O     O_R   0.495910 0.323070 0.537100 -0.504570
O24   O     O_R   0.663920 0.359620 0.542290 -0.502989
O25   O     O_3   0.500010 0.500010 0.500010 -0.250678
O26   O     O_R   0.170070 0.978950 0.027680 -0.513381
O27   O     O_R   0.001760 0.175230 0.026640 -0.521263
O28   O     O_R   0.984760 0.333570 0.037150 -0.517896
O29   O     O_R   0.183410 0.309240 0.041890 -0.501927
S1    S     S_3+6 0.476442 0.151197 0.398067 0.006418

loop_
_geom_bond_atom_site_label_1
_geom_bond_atom_site_label_2
_ccdc_geom_bond_type
C66   C68   A    
C99   H43   S    
C63   C65   A    
N6    N7    A    
C32   H6    S    
Cr1   O1    S    
C18   C21   A    
C41   C42   A    
C5    C56   A    
Cr5   O11   S    
N4    N5    A    
C33   H2    S    
C41   H9    S    
C5    C67   A    
C10   C97   S    
Cr3   O24   S    
C31   N2    A    
C97   C98   S    
C7    C8    A    
C39   C41   A    
C98   H47   S    
C53   C54   A    
C67   C78   A    
C12   C23   A    
C26   C27   A    
Cr3   O15   S    
C46   H10   S    
C8    H34   S    
C36   C37   A    
C22   C29   A    
C94   O7    A    
C62   H22   S    
C24   H53   S    
C65   H19   S    
Cr5   O8    S    
C27   C29   A    
N11   N12   A    
C67   H39   S    
C34   S1    S    
C49   C54   A    
Cr4   O11   S    
C93   O3    A    
O22   S1    S    
C18   C19   A    
Cr4   O26   S    
N1    N8    A    
C4    O15   A    
C5    C92   S    
C30   N11   A    
C3    C12   S    
C75   H36   S    
C96   O10   A    
C91   O27   A    
Cr5   O7    S    
C48   N6    A    
C63   C69   A    
C45   C56   A    
C8    C9    A    
O21   S1    D    
C61   H21   S    
C97   H48   S    
Cr6   O11   S    
C45   C89   A    
C43   C48   S    
C76   C88   A    
C13   N1    A    
C50   H11   S    
Cr2   O12   S    
Cr2   O25   S    
C25   H4    S    
C7    H41   S    
C91   O28   A    
C13   N10   A    
C84   H33   S    
C59   C60   A    
C21   C91   S    
Cr6   O2    S    
C28   O18   A    
Cr5   O29   S    
C61   C62   A    
C52   O24   A    
C82   H28   S    
Cr2   O14   S    
C36   H8    S    
Cr3   O23   S    
C83   H35   S    
C1    O13   A    
C44   C46   A    
N2    N3    A    
C98   H46   S    
Cr1   O25   S    
C78   C89   A    
C15   C20   A    
C74   H32   S    
C66   C72   A    
C59   H27   S    
C74   C75   A    
C12   C88   A    
C19   H52   S    
C81   H29   S    
C57   C62   A    
C35   C38   A    
C84   C85   A    
C27   H5    S    
C29   H54   S    
Cr2   O19   S    
C53   H18   S    
C23   H15   S    
C47   N7    A    
C86   C87   T    
C68   C69   A    
C1    C22   S    
C40   O23   A    
C60   C71   S    
C25   C26   A    
C32   C37   A    
C81   C82   A    
C30   C37   S    
Cr3   O25   S    
C60   C61   A    
Cr4   O6    S    
Cr4   O27   S    
C4    O14   A    
C2    C89   S    
C93   O26   A    
C9    C14   S    
H50   O22   S    
C99   H44   S    
C16   O1    A    
C83   C84   A    
C88   H40   S    
C23   C34   A    
C49   H16   S    
Cr1   O4    S    
C34   C64   A    
C64   C76   A    
C77   C79   A    
C97   H49   S    
C24   C25   A    
C68   H25   S    
C75   C77   A    
C56   H1    S    
C85   C86   S    
C63   H20   S    
Cr2   O13   S    
C47   C54   S    
C55   C95   S    
N9    N10   A    
C98   C99   S    
Cr6   O3    S    
C39   C46   A    
Cr1   O18   S    
Cr5   O28   S    
C22   C24   A    
C42   C43   A    
C30   N3    A    
Cr6   O9    S    
C14   N9    A    
C52   C57   S    
C11   H12   S    
C73   C74   A    
C6    C11   A    
C70   C71   T    
C18   H51   S    
C66   H26   S    
C9    C10   A    
C95   O8    A    
C15   C17   A    
C83   C90   A    
C99   H42   S    
C1    O4    A    
C28   C73   S    
C13   C20   S    
Cr1   O17   S    
C58   H24   S    
C42   H13   S    
C50   C55   A    
C16   O16   A    
C28   O19   A    
C96   O5    A    
C45   H3    S    
C17   H23   S    
C90   C96   S    
C6    C7    A    
C48   N5    A    
C92   O2    A    
C65   C72   A    
C79   H30   S    
C4    C64   S    
Cr3   O16   S    
C82   C90   A    
Cr6   O10   S    
C32   C33   A    
C40   O12   A    
C19   C20   A    
C2    C3    T    
C58   C59   A    
C72   C94   S    
C78   H38   S    
C44   H14   S    
C57   C58   A    
C31   N12   A    
C43   C44   A    
C47   N4    A    
C38   C93   S    
Cr4   O5    S    
C73   C80   A    
C51   C55   A    
C69   C70   S    
C17   C21   A    
C80   H31   S    
C10   C11   A    
C6    C16   S    
C79   C80   A    
C39   C40   S    
C95   O9    A    
C26   C31   S    
O20   S1    D    
C77   C87   S    
C49   C50   A    
C51   H17   S    
C33   C38   A    
C35   C36   A    
C52   O17   A    
C51   C53   A    
C14   N8    A    
C92   O29   A    
C94   O6    A    
C15   H45   S    
C81   C85   A    
C35   H7    S    
C76   H37   S    
