data_mof_unit_44595.cif
_audit_creation_date              2012-12-11T16:56:06-0500
_audit_creation_method            fapswitch 2.2
_symmetry_space_group_name_H-M    P1
_symmetry_Int_Tables_number       1
_space_group_crystal_system       triclinic
_cell_length_a                    6.961742
_cell_length_b                    14.496559
_cell_length_c                    16.224562
_cell_angle_alpha                 90.43446
_cell_angle_beta                  90.031342
_cell_angle_gamma                 90.015687
_cell_volume                      1637.35656623

loop_
_atom_site_label
_atom_site_type_symbol
_atom_type_description
_atom_site_fract_x
_atom_site_fract_y
_atom_site_fract_z
_atom_type_partial_charge
O1    O     O_R   0.505830 0.583360 0.413880 -0.550202
O2    O     O_R   0.175830 0.595460 0.585520 -0.542071
O3    O     O_R   0.005520 0.416640 0.586120 -0.541809
C1    C     C_R   0.344579 0.616881 0.614863 0.687352
O4    O     O_R   0.176120 0.594390 0.414490 -0.528402
O5    O     O_R   0.005810 0.415570 0.413870 -0.540022
C2    C     C_R   0.345024 0.617703 0.387014 0.685584
O6    O     O_R   0.505540 0.584430 0.586130 -0.541518
O7    O     O_3   0.339200 0.441330 0.500000 -0.368381
V1    V     V_3+5 0.064350 0.510880 0.500000 1.408036
O8    O     O_R   0.676100 0.404540 0.414480 -0.540056
C3    C     C_R   0.845118 0.382387 0.385861 0.695496
O9    O     O_R   0.675810 0.405610 0.585510 -0.539261
C4    C     C_R   0.845022 0.383694 0.613614 0.743168
V2    V     V_3+5 0.564340 0.489120 0.500000 1.389338
O10   O     O_3   0.839360 0.558670 0.500000 -0.372472
C5    C     C_2   0.721120 0.208401 0.785659 -0.131717
C6    C     C_2   0.885632 0.181661 0.822490 -0.310879
H1    H     H_    0.585753 0.179382 0.806318 0.136247
H2    H     H_    0.022673 0.209941 0.803891 0.126845
C7    C     C_2   0.708707 0.276927 0.717703 -0.136986
C8    C     C_2   0.861555 0.315379 0.680408 -0.310327
H3    H     H_    0.565201 0.295671 0.697579 0.135109
H4    H     H_    0.006203 0.297250 0.698628 0.129233
C9    C     C_R   0.729840 0.179829 0.243772 0.172371
C10   C     C_R   0.882883 0.180243 0.187681 -0.108573
C11   C     C_R   0.033778 0.242787 0.203082 -0.185743
H5    H     H_    0.155842 0.245230 0.162056 0.129319
C12   C     C_R   0.022215 0.307448 0.268166 -0.177509
H6    H     H_    0.136307 0.357498 0.275425 0.124804
C13   C     C_R   0.859209 0.311643 0.319663 -0.115859
C14   C     C_R   0.718004 0.243982 0.307954 0.105916
C15   C     C_3   0.506443 0.254244 0.297546 -0.422463
C16   C     C_3   0.519271 0.183778 0.227923 -0.399189
H7    H     H_    0.466727 0.324385 0.276298 0.164217
H8    H     H_    0.425285 0.228896 0.351838 0.188016
H9    H     H_    0.486021 0.212762 0.166323 0.159545
H10   H     H_    0.446617 0.117487 0.242189 0.196128
C17   C     C_R   0.513706 0.742600 0.694893 0.100792
C18   C     C_R   0.353242 0.685857 0.683009 -0.110948
C19   C     C_R   0.199462 0.696979 0.738532 -0.179831
H11   H     H_    0.075053 0.652963 0.733189 0.134004
C20   C     C_R   0.211226 0.759785 0.805281 -0.183311
H12   H     H_    0.094038 0.763417 0.848823 0.129543
C21   C     C_R   0.377921 0.812922 0.818949 -0.104352
C22   C     C_R   0.525350 0.804940 0.760753 0.111242
C23   C     C_3   0.731983 0.784073 0.774579 -0.420905
C24   C     C_3   0.719018 0.716004 0.703294 -0.406428
H13   H     H_    0.757313 0.750505 0.835005 0.167860
H14   H     H_    0.825072 0.844480 0.761305 0.175330
H15   H     H_    0.736117 0.642925 0.722344 0.167180
H16   H     H_    0.806291 0.736682 0.649328 0.167488
C25   C     C_R   0.501785 0.754218 0.316306 -0.071074
C26   C     C_R   0.352216 0.689171 0.321800 -0.122077
C27   C     C_R   0.203614 0.695220 0.262860 -0.101542
H17   H     H_    0.082953 0.648334 0.265378 0.100644
C28   C     C_R   0.215618 0.757316 0.196487 -0.128029
H18   H     H_    0.102353 0.757582 0.150816 0.121554
C29   C     C_R   0.377890 0.814186 0.186262 -0.115791
C30   C     C_R   0.516425 0.812353 0.248674 0.037563
C31   C     C_3   0.728672 0.801823 0.243599 0.124126
C32   C     C_3   0.716601 0.742111 0.321094 0.274231
H19   H     H_    0.772515 0.762526 0.187650 0.035951
H20   H     H_    0.762819 0.669612 0.310744 0.042628
O11   O     O_R   0.229930 0.912420 0.917160 -0.543368
O12   O     O_R   0.559420 0.902500 0.088780 -0.530272
O13   O     O_R   0.729660 0.081330 0.089380 -0.532470
C33   C     C_R   0.390402 0.880014 0.116843 0.731518
O14   O     O_R   0.559650 0.901420 0.917750 -0.543500
O15   O     O_R   0.729880 0.080250 0.917130 -0.540575
C34   C     C_R   0.390539 0.878920 0.889276 0.677348
O16   O     O_R   0.229700 0.913500 0.089410 -0.523133
O17   O     O_3   0.396250 0.055540 0.003280 -0.377460
V3    V     V_3+5 0.671130 0.986010 0.003260 1.434374
O18   O     O_R   0.059600 0.091310 0.917720 -0.548353
C35   C     C_R   0.890909 0.113133 0.889513 0.728885
O19   O     O_R   0.059370 0.092380 0.088750 -0.539142
C36   C     C_R   0.890638 0.114648 0.117249 0.753671
V4    V     V_3+5 0.171120 0.007820 0.003230 1.425349
O20   O     O_3   0.896130 0.938240 0.003240 -0.366001
Br1   Br    Br    0.856000 0.920858 0.256505 -0.534979
O21   O     O_3   0.817085 0.785334 0.387524 -0.533468
C37   C     C_3   0.710493 0.795016 0.461238 0.179868
H21   H     H_    0.812628 0.786186 0.513035 0.118157
H22   H     H_    0.598214 0.741515 0.469224 0.099974
C38   C     C_3   0.625617 0.892481 0.467037 -0.298142
H23   H     H_    0.743161 0.944002 0.461657 0.225779
H24   H     H_    0.523157 0.904007 0.415717 0.220708
C39   C     C_3   0.520898 0.908149 0.548400 -0.853865
H25   H     H_    0.402839 0.857226 0.555307 0.234742
H26   H     H_    0.458206 0.978563 0.549613 0.241302
H27   H     H_    0.622861 0.902026 0.600711 0.233920

loop_
_geom_bond_atom_site_label_1
_geom_bond_atom_site_label_2
_ccdc_geom_bond_type
O12   C33   A    
C27   H17   S    
O11   V4    S    
C11   C12   A    
C16   H9    S    
O17   V3    S    
C1    O6    A    
C23   H13   S    
C21   C22   A    
C10   C11   A    
C10   C36   S    
O16   V4    S    
O5    C3    A    
C38   H24   S    
C28   C29   A    
C21   C34   S    
V2    O10   S    
O12   V3    S    
C15   H8    S    
O14   C34   A    
C19   H11   S    
C31   H19   S    
C32   H20   S    
C5    H1    S    
C22   C23   S    
O8    V2    S    
C31   Br1   S    
C24   H15   S    
C13   C14   A    
O15   V3    S    
O1    V2    S    
C39   H26   S    
O7    V1    S    
O19   C36   A    
C9    C16   S    
C9    C14   A    
C32   O21   S    
C29   C30   A    
V3    O20   S    
O9    C4    A    
C19   C20   A    
O13   C36   A    
C25   C30   A    
C5    C6    D    
C23   H14   S    
O19   V4    S    
C7    H3    S    
C23   C24   S    
C1    C18   S    
C17   C18   A    
O4    C2    A    
C38   H23   S    
C9    C10   A    
C25   C26   A    
C5    C7    S    
C30   C31   S    
C16   H10   S    
O2    C1    A    
O18   C35   A    
C12   H6    S    
C29   C33   S    
C25   C32   S    
C37   H21   S    
C33   O16   A    
C15   C16   S    
O17   V4    S    
O14   V3    S    
O13   V3    S    
C39   H27   S    
C20   C21   A    
O3    C4    A    
C17   C22   A    
C18   C19   A    
C37   H22   S    
O6    V2    S    
O9    V2    S    
C3    C13   S    
O15   C35   A    
C8    H4    S    
O2    V1    S    
C26   C27   A    
C6    C35   S    
O1    C2    A    
C38   C39   S    
O5    V1    S    
O8    C3    A    
C14   C15   S    
C4    C8    S    
C27   C28   A    
O7    V2    S    
O4    V1    S    
C12   C13   A    
O3    V1    S    
O11   C34   A    
C28   H18   S    
C20   H12   S    
C15   H7    S    
C6    H2    S    
C31   C32   S    
V4    O20   S    
C24   H16   S    
C37   C38   S    
O21   C37   S    
C11   H5    S    
V1    O10   S    
C2    C26   S    
C39   H25   S    
C7    C8    D    
O18   V4    S    
C17   C24   S    
