data_mof_unit_28417.cif
_audit_creation_date              2012-12-10T18:09:53-0500
_audit_creation_method            fapswitch 2.2
_symmetry_space_group_name_H-M    P1
_symmetry_Int_Tables_number       1
_space_group_crystal_system       triclinic
_cell_length_a                    10.617074
_cell_length_b                    12.60009
_cell_length_c                    13.119951
_cell_angle_alpha                 82.420922
_cell_angle_beta                  90.376269
_cell_angle_gamma                 102.452134
_cell_volume                      1698.44238387

loop_
_atom_site_label
_atom_site_type_symbol
_atom_type_description
_atom_site_fract_x
_atom_site_fract_y
_atom_site_fract_z
_atom_type_partial_charge
C1    C     C_R   0.490137 0.438861 0.691233 0.840057
C2    C     C_R   0.506907 0.446843 0.973868 0.084106
C3    C     C_R   0.549494 0.467392 0.870440 0.083391
C4    C     C_R   0.741269 0.498911 0.504342 0.842807
C5    C     C_R   0.548868 0.529560 0.037000 0.083943
C6    C     C_R   0.648396 0.621994 0.002126 0.182906
C7    C     C_R   0.703189 0.631980 0.904237 -0.256115
C8    C     C_R   0.654285 0.555548 0.839006 -0.223106
C9    C     C_R   0.492648 0.523591 0.133505 -0.258327
C10   C     C_R   0.643254 0.688226 0.166779 -0.203164
C11   C     C_R   0.485363 0.399300 0.800850 -0.115420
C12   C     C_3   0.120697 0.495806 0.507589 0.123490
C13   C     C_R   0.321160 0.087843 0.346846 -0.309207
C14   C     C_R   0.654731 0.800608 0.628093 0.024984
C15   C     C_R   0.687060 0.905506 0.655787 -0.252434
C16   C     C_R   0.516187 0.561022 0.308812 0.858287
C17   C     C_R   0.628218 0.986550 0.607423 -0.191179
C18   C     C_R   0.536594 0.962807 0.530361 0.013487
C19   C     C_R   0.507568 0.854531 0.504633 0.233429
C20   C     C_R   0.473536 0.041837 0.477559 -0.019890
C21   C     C_R   0.383912 0.011250 0.399996 0.199146
C22   C     C_R   0.358191 0.904732 0.375734 -0.294623
C23   C     C_3   0.082619 0.545449 0.400181 -0.425789
C24   C     C_R   0.419549 0.827801 0.427095 -0.216772
C25   C     C_R   0.495592 0.150774 0.498111 -0.052327
C26   C     C_R   0.347666 0.194125 0.370661 0.006194
C27   C     C_R   0.257851 0.497817 0.504368 0.851649
C28   C     C_3   0.898163 0.376211 0.526968 0.365892
C29   C     C_3   0.041972 0.376300 0.535734 -0.470155
C30   C     C_3   0.939114 0.549975 0.401065 -0.478224
C31   C     C_3   0.947196 0.569360 0.587970 -0.434511
C32   C     C_3   0.877399 0.497583 0.507786 0.069503
C33   C     C_3   0.822516 0.332672 0.701969 0.107124
C34   C     C_3   0.090037 0.564741 0.590489 -0.390180
C35   C     C_3   0.769636 0.231938 0.780113 -0.344178
C36   C     C_3   0.778076 0.260106 0.889924 -0.950656
C37   C     C_R   0.693139 0.701892 0.066721 -0.209022
C38   C     C_R   0.545224 0.596863 0.200482 -0.054136
C39   C     C_R   0.402335 0.299075 0.837339 -0.197797
C40   C     C_R   0.375738 0.270374 0.941965 -0.149908
C41   C     C_R   0.424434 0.344405 0.009827 -0.193406
H1    H     H_    0.869576 0.341694 0.454117 0.128040
H2    H     H_    0.398891 0.318220 0.090061 0.130842
H3    H     H_    0.312570 0.192549 0.970151 0.138578
H4    H     H_    0.700415 0.564996 0.764169 0.143732
H5    H     H_    0.300557 0.254798 0.330208 0.123439
H6    H     H_    0.290520 0.880708 0.316348 0.150518
H7    H     H_    0.252781 0.065797 0.287421 0.138478
H8    H     H_    0.561262 0.181684 0.555510 0.157755
H9    H     H_    0.701005 0.737661 0.664655 0.127313
H10   H     H_    0.657076 0.066587 0.631347 0.159332
H11   H     H_    0.757727 0.924052 0.714360 0.143794
H12   H     H_    0.148531 0.650205 0.576488 0.201636
H13   H     H_    0.396870 0.748073 0.403721 0.213510
H14   H     H_    0.066171 0.342062 0.614000 0.172190
H15   H     H_    0.066472 0.321733 0.482161 0.167678
H16   H     H_    0.889379 0.505933 0.338838 0.165723
H17   H     H_    0.101175 0.494786 0.340840 0.164243
H18   H     H_    0.940127 0.656267 0.565649 0.198001
H19   H     H_    0.903046 0.546428 0.666032 0.136166
H20   H     H_    0.113946 0.528233 0.668212 0.156665
H21   H     H_    0.758337 0.391032 0.705206 0.122925
H22   H     H_    0.921913 0.369463 0.724019 0.138890
H23   H     H_    0.929464 0.636795 0.383936 0.195305
H24   H     H_    0.667051 0.198228 0.763429 0.221478
H25   H     H_    0.825554 0.167948 0.773411 0.221084
H26   H     H_    0.880282 0.290479 0.909594 0.258097
H27   H     H_    0.736776 0.185628 0.944348 0.267148
H28   H     H_    0.722888 0.323843 0.898740 0.277693
H29   H     H_    0.141968 0.629784 0.378630 0.176613
H30   H     H_    0.685570 0.745227 0.218979 0.156693
H31   H     H_    0.782225 0.699870 0.877380 0.137775
H32   H     H_    0.770028 0.772106 0.041339 0.133744
H33   H     H_    0.410543 0.459335 0.160580 0.138405
H34   H     H_    0.354653 0.244596 0.784774 0.155354
N1    N     N_R   0.433240 0.222190 0.444680 -0.102292
N2    N     N_R   0.566070 0.776970 0.554790 -0.129189
O1    O     O_R   0.468120 0.366740 0.627160 -0.614970
O2    O     O_R   0.510770 0.544830 0.662520 -0.609265
O3    O     O_R   0.663880 0.410950 0.482330 -0.596068
O4    O     O_R   0.706530 0.589040 0.517700 -0.636888
O5    O     O_R   0.489230 0.455170 0.337480 -0.611621
O6    O     O_R   0.531880 0.633260 0.372840 -0.635285
O7    O     O_R   0.293470 0.410960 0.482300 -0.626564
O8    O     O_R   0.336120 0.589050 0.517670 -0.641681
O9    O     O_3   0.818818 0.299972 0.603002 -0.653582
Zn1   Zn    Zn3+2 0.471520 0.381090 0.476390 0.941279
Zn2   Zn    Zn3+2 0.528480 0.618910 0.523610 0.917425

loop_
_geom_bond_atom_site_label_1
_geom_bond_atom_site_label_2
_ccdc_geom_bond_type
O1    Zn1   S    
C23   H17   S    
C30   H23   S    
C12   C29   S    
C35   C36   S    
C1    C11   S    
O7    Zn1   S    
C17   H10   S    
C36   H26   S    
C7    C8    A    
C12   C23   S    
C10   C37   A    
C28   C29   S    
C4    O3    A    
O3    Zn1   S    
C5    C6    A    
C20   C25   A    
C35   H24   S    
C2    C41   A    
C24   H13   S    
O5    Zn1   S    
C30   H16   S    
C27   O8    A    
C18   C19   A    
C14   N2    A    
C31   H18   S    
C19   N2    A    
C8    H4    S    
C4    O4    A    
N2    Zn2   S    
C33   H21   S    
C26   N1    A    
C39   H34   S    
C10   H30   S    
O6    Zn2   S    
C21   C22   A    
C1    O1    A    
C41   H2    S    
C23   H29   S    
O2    Zn2   S    
C31   C34   S    
C12   C27   S    
C23   C30   S    
C28   C32   S    
C3    C8    A    
C7    H31   S    
C29   H14   S    
C35   H25   S    
C16   O6    A    
C31   H19   S    
C33   O9    S    
C5    C9    A    
C31   C32   S    
C33   H22   S    
C16   O5    A    
C17   C18   A    
C6    C37   A    
C13   C21   A    
C15   H11   S    
C11   C39   A    
N1    Zn1   S    
C4    C32   S    
C40   C41   A    
C28   O9    S    
C1    O2    A    
C22   C24   A    
C13   C26   A    
C2    C5    A    
C9    H33   S    
C12   C34   S    
C39   C40   A    
C36   H28   S    
O8    Zn2   S    
C15   C17   A    
C37   H32   S    
C27   O7    A    
C13   H7    S    
C36   H27   S    
C6    C7    A    
C29   H15   S    
C10   C38   A    
C25   N1    A    
C19   C24   A    
C30   C32   S    
C22   H6    S    
C14   H9    S    
C28   H1    S    
C9    C38   A    
C33   C35   S    
C2    C3    A    
C18   C20   A    
C34   H20   S    
C25   H8    S    
O4    Zn2   S    
C3    C11   A    
C26   H5    S    
C40   H3    S    
C20   C21   A    
C34   H12   S    
C14   C15   A    
C16   C38   S    
