data_mof_unit_11613.cif
_audit_creation_date              2012-10-26T18:50:47-0400
_audit_creation_method            fapswitch 2.2
_symmetry_space_group_name_H-M    P1
_symmetry_Int_Tables_number       1
_space_group_crystal_system       triclinic
_cell_length_a                    12.335382
_cell_length_b                    13.234804
_cell_length_c                    17.296821
_cell_angle_alpha                 106.11125
_cell_angle_beta                  74.630478
_cell_angle_gamma                 116.393231
_cell_volume                      2396.96623252

loop_
_atom_site_label
_atom_site_type_symbol
_atom_type_description
_atom_site_fract_x
_atom_site_fract_y
_atom_site_fract_z
_atom_type_partial_charge
C1    C     C_R   0.144940 0.712433 0.502215 0.554406
C2    C     C_R   0.027262 0.506682 0.262120 -0.025109
C3    C     C_R   0.742957 0.964301 0.449116 0.342170
C4    C     C_R   0.983223 0.496887 0.651771 0.555190
C5    C     C_R   0.774943 0.164301 0.484985 -0.066612
C6    C     C_R   0.182106 0.917710 0.517612 0.237723
C7    C     C_R   0.257300 0.032382 0.546991 0.284743
C8    C     C_R   0.379047 0.060449 0.553206 0.238147
C9    C     C_R   0.436325 0.983771 0.509204 -0.030418
C10   C     C_R   0.359810 0.868280 0.481556 -0.075722
C11   C     C_R   0.566060 0.017180 0.492095 -0.012825
C12   C     C_R   0.882886 0.518548 0.796574 -0.217266
C13   C     C_R   0.615827 0.932905 0.459508 0.043451
C14   C     C_R   0.539221 0.820493 0.431632 -0.116182
C15   C     C_R   0.415207 0.791275 0.436831 -0.122358
C16   C     C_R   0.856034 0.286323 0.490289 0.554843
C17   C     C_R   0.648105 0.132500 0.499021 -0.121321
C18   C     C_R   0.821829 0.079676 0.463768 -0.103190
C19   C     C_R   0.230113 0.833752 0.497996 -0.034906
C20   C     C_R   0.646689 0.683570 0.628368 0.264444
C21   C     C_R   0.248733 0.350670 0.388570 0.353198
C22   C     C_R   0.354844 0.328085 0.358562 -0.132493
C23   C     C_R   0.987829 0.577999 0.161545 0.440924
C24   C     C_R   0.456489 0.386838 0.397821 0.306051
C25   C     C_R   0.455261 0.470722 0.469445 -0.033381
C26   C     C_R   0.349305 0.497295 0.493963 0.024987
C27   C     C_R   0.553908 0.530373 0.516933 -0.094659
C28   C     C_R   0.014887 0.499733 0.347760 0.599509
C29   C     C_R   0.547794 0.620618 0.583821 0.007113
C30   C     C_R   0.443414 0.647100 0.605174 0.240349
C31   C     C_R   0.347298 0.584484 0.560924 -0.099386
C32   C     C_R   0.657128 0.502204 0.502624 -0.002025
C33   C     C_R   0.746866 0.651186 0.609846 0.414705
C34   C     C_R   0.979073 0.574583 0.243239 0.228229
C35   C     C_R   0.965999 0.481965 0.736174 -0.025350
C36   C     C_R   0.028674 0.428278 0.756918 0.291889
C37   C     C_R   0.009455 0.416998 0.838421 0.336492
C38   C     C_R   0.937168 0.466479 0.899238 0.016467
C39   C     C_R   0.870346 0.513006 0.877598 -0.157833
C40   C     C_3   0.219744 0.424197 0.709703 -0.041668
C41   C     C_3   0.989753 0.924712 0.555288 0.002702
C42   C     C_3   0.441812 0.140361 0.676087 -0.107845
C43   C     C_3   0.254203 0.190554 0.522135 -0.084261
C44   C     C_3   0.821137 0.730677 0.733080 -0.087486
C45   C     C_R   0.088016 0.446989 0.198593 0.209364
C46   C     C_3   0.807367 0.605413 0.310920 0.005833
C47   C     C_3   0.403179 0.809428 0.662424 -0.117154
C48   C     C_3   0.696378 0.877398 0.664347 -0.087263
C49   C     C_3   0.121401 0.178048 0.317805 -0.086532
C50   C     C_3   0.265503 0.433794 0.198481 -0.059212
C51   C     C_R   0.089492 0.446848 0.117565 -0.169653
C52   C     C_R   0.037811 0.510036 0.099161 -0.019499
C53   C     C_2   0.933797 0.473675 0.985896 0.454459
C54   C     C_2   0.037743 0.503965 0.013670 -0.008876
Cu1   Cu    Cu3+1 0.900140 0.524980 0.518800 1.048632
Cu2   Cu    Cu3+1 0.099860 0.475020 0.481200 1.009553
F1    F     F_    0.791161 0.883854 0.421969 -0.658720
F2    F     F_    0.555291 0.361789 0.361537 -0.681982
F3    F     F_    0.950870 0.649787 0.142976 -0.583953
F4    F     F_    0.825159 0.454640 0.037919 -0.592707
F5    F     F_    0.057087 0.354345 0.858127 -0.655421
H1    H     H_    0.129009 0.395209 0.068760 0.161261
H2    H     H_    0.810507 0.547505 0.923660 0.187828
H3    H     H_    0.828148 0.552759 0.781559 0.142062
H4    H     H_    0.229978 0.379737 0.751309 0.204251
H5    H     H_    0.254798 0.518542 0.733118 0.132391
H6    H     H_    0.278911 0.409611 0.650908 0.126114
H7    H     H_    0.997946 0.008686 0.548082 0.158121
H8    H     H_    0.001217 0.928376 0.617935 0.141873
H9    H     H_    0.895632 0.862560 0.546384 0.172652
H10   H     H_    0.486144 0.223153 0.716351 0.154830
H11   H     H_    0.347431 0.095874 0.708248 0.134642
H12   H     H_    0.919575 0.102656 0.454695 0.151619
H13   H     H_    0.497009 0.089129 0.666403 0.098671
H14   H     H_    0.245831 0.144268 0.458104 0.111456
H15   H     H_    0.351101 0.250038 0.526703 0.167227
H16   H     H_    0.199035 0.242821 0.538414 0.158190
H17   H     H_    0.898612 0.735119 0.756744 0.124181
H18   H     H_    0.735991 0.660208 0.755904 0.120181
H19   H     H_    0.814703 0.814820 0.758522 0.164750
H20   H     H_    0.761199 0.511646 0.311245 0.164060
H21   H     H_    0.783170 0.625233 0.261092 0.198220
H22   H     H_    0.771060 0.649517 0.369476 0.177050
H23   H     H_    0.576147 0.756408 0.400758 0.165838
H24   H     H_    0.305612 0.778928 0.656579 0.106203
H25   H     H_    0.465188 0.845322 0.608224 0.117201
H26   H     H_    0.420243 0.880813 0.715725 0.138189
H27   H     H_    0.649529 0.933447 0.702678 0.154460
H28   H     H_    0.688638 0.868453 0.599765 0.117038
H29   H     H_    0.793407 0.922419 0.673163 0.104950
H30   H     H_    0.131626 0.134868 0.360568 0.099490
H31   H     H_    0.179590 0.167980 0.257472 0.130324
H32   H     H_    0.024696 0.133922 0.307601 0.178382
H33   H     H_    0.304102 0.381804 0.213741 0.156739
H34   H     H_    0.614899 0.198673 0.509605 0.211487
H35   H     H_    0.300447 0.521056 0.236642 0.118794
H36   H     H_    0.299611 0.438232 0.132693 0.107307
H37   H     H_    0.365274 0.708412 0.402678 0.160301
H38   H     H_    0.666272 0.431195 0.457513 0.226746
H39   H     H_    0.360742 0.265895 0.303598 0.140205
H40   H     H_    0.269290 0.604418 0.583021 0.196617
H41   H     H_    0.124209 0.518513 0.972011 0.106637
N1    N     N_R   0.749710 0.562810 0.547300 -0.263381
N2    N     N_R   0.249640 0.437820 0.453210 -0.238021
O1    O     O_R   0.025490 0.682370 0.523640 -0.403002
O2    O     O_3   0.070939 0.886979 0.493584 -0.516297
O3    O     O_3   0.439078 0.163387 0.601942 -0.573588
O4    O     O_3   0.208699 0.114454 0.577226 -0.557278
O5    O     O_3   0.850197 0.714576 0.647142 -0.550384
O6    O     O_3   0.935776 0.646769 0.304878 -0.506203
O7    O     O_3   0.427018 0.721997 0.677249 -0.525227
O8    O     O_3   0.642561 0.772441 0.692653 -0.534206
O9    O     O_3   0.146279 0.295111 0.349888 -0.492312
O10   O     O_3   0.136208 0.380310 0.215221 -0.506477
O11   O     O_R   0.194150 0.640180 0.491890 -0.571953
O12   O     O_R   0.905900 0.523560 0.631310 -0.485297
O13   O     O_R   0.074570 0.481370 0.599560 -0.492135
O14   O     O_R   0.805850 0.359820 0.508110 -0.523210
O15   O     O_R   0.974510 0.317630 0.476360 -0.456492
O16   O     O_R   0.925430 0.518630 0.400440 -0.484384
O17   O     O_R   0.094100 0.476440 0.368690 -0.429513
O18   O     O_3   0.097171 0.376730 0.696138 -0.531482

loop_
_geom_bond_atom_site_label_1
_geom_bond_atom_site_label_2
_ccdc_geom_bond_type
C49   O9    S    
Cu1   Cu2   S    
C27   C29   A    
Cu2   O13   S    
C35   C36   A    
C14   H23   S    
C7    C8    A    
C20   O8    S    
C53   C54   D    
C23   F3    S    
C6    C19   A    
C29   C30   A    
Cu1   O1    S    
C43   H16   S    
C31   H40   S    
C36   C37   A    
C10   C15   A    
C30   C31   A    
C12   H3    S    
C5    C17   A    
Cu1   O12   S    
C45   C51   A    
Cu1   N1    S    
C3    C18   A    
C5    C16   S    
C26   N2    A    
C46   H21   S    
C21   N2    A    
C45   O10   S    
C8    C9    A    
C40   H6    S    
C48   H27   S    
C17   H34   S    
C42   O3    S    
C3    C13   A    
Cu1   O16   S    
C44   O5    S    
C2    C34   A    
C4    C35   S    
C26   C31   A    
C48   H29   S    
C21   C22   A    
C51   H1    S    
C49   H30   S    
C53   F4    S    
C52   C54   S    
C41   H7    S    
C20   C29   A    
C2    C45   A    
C43   H14   S    
C42   H13   S    
C22   H39   S    
C41   O2    S    
C51   C52   A    
C47   H25   S    
C44   H19   S    
C24   C25   A    
Cu2   N2    S    
C21   O9    S    
C28   O16   A    
C16   O15   A    
C28   O17   A    
C50   H33   S    
C5    C18   A    
C25   C26   A    
C1    C19   S    
C50   O10   S    
C47   H26   S    
C36   O18   S    
C37   C38   A    
C16   O14   A    
C46   H20   S    
C10   C19   A    
C23   C34   A    
C42   H11   S    
C6    O2    S    
C32   N1    A    
C12   C35   A    
C9    C11   A    
C7    O4    S    
C20   C33   A    
C3    F1    S    
C48   O8    S    
C18   H12   S    
C48   H28   S    
C46   O6    S    
C34   O6    S    
Cu2   O15   S    
C22   C24   A    
C4    O13   A    
C33   O5    S    
C49   H31   S    
C8    O3    S    
C47   H24   S    
C39   H2    S    
C41   H8    S    
C9    C10   A    
C15   H37   S    
C43   H15   S    
C11   C17   A    
C50   H36   S    
C27   C32   A    
C33   N1    A    
C4    O12   A    
C44   H18   S    
C37   F5    S    
C6    C7    A    
C25   C27   A    
C40   O18   S    
C32   H38   S    
C30   O7    S    
C40   H4    S    
C54   H41   S    
Cu2   O17   S    
C12   C39   A    
C44   H17   S    
C11   C13   A    
C50   H35   S    
C23   C52   A    
C38   C39   A    
C38   C53   S    
C47   O7    S    
C42   H10   S    
C40   H5    S    
Cu2   O11   S    
C43   O4    S    
C46   H22   S    
C24   F2    S    
C14   C15   A    
C2    C28   S    
C1    O11   A    
C49   H32   S    
C13   C14   A    
C1    O1    A    
C41   H9    S    
Cu1   O14   S    
