data_mof_unit_48409.cif
_audit_creation_date              2012-12-11T15:48:32-0500
_audit_creation_method            fapswitch 2.2
_symmetry_space_group_name_H-M    P1
_symmetry_Int_Tables_number       1
_space_group_crystal_system       triclinic
_cell_length_a                    10.957937
_cell_length_b                    10.986875
_cell_length_c                    18.795654
_cell_angle_alpha                 90.584135
_cell_angle_beta                  90.143335
_cell_angle_gamma                 60.196944
_cell_volume                      1963.47350398

loop_
_atom_site_label
_atom_site_type_symbol
_atom_type_description
_atom_site_fract_x
_atom_site_fract_y
_atom_site_fract_z
_atom_type_partial_charge
C1    C     C_R   0.239848 0.645557 0.610357 0.540412
C2    C     C_3   0.674470 0.543985 0.800021 -0.120664
C3    C     C_3   0.697142 0.671497 0.812957 0.066316
C4    C     C_3   0.668491 0.647279 0.676648 0.049742
C5    C     C_3   0.816630 0.624586 0.691457 -0.253174
C6    C     C_3   0.644800 0.540025 0.719653 -0.208014
C7    C     C_R   0.682775 0.150578 0.822084 0.014229
C8    C     C_R   0.778678 0.174425 0.784796 -0.010743
C9    C     C_R   0.772989 0.183463 0.710793 0.011788
C10   C     C_R   0.578833 0.139971 0.709402 -0.180901
C11   C     C_R   0.575641 0.145354 0.782603 -0.173078
C12   C     C_R   0.653584 0.622221 0.600968 0.539493
C13   C     C_3   0.934306 0.095537 0.786074 -0.274091
C14   C     C_3   0.929645 0.102914 0.705468 -0.278664
C15   C     C_R   0.674584 0.163675 0.671905 0.014909
C16   C     C_R   0.179159 0.668581 0.834729 0.009634
C17   C     C_R   0.153828 0.576599 0.793755 0.022489
C18   C     C_R   0.162768 0.574094 0.719987 -0.003106
C19   C     C_R   0.213094 0.763581 0.725728 -0.172924
C20   C     C_R   0.210207 0.761681 0.799499 -0.187970
C21   C     C_3   0.228652 0.420552 0.797193 -0.286010
C22   C     C_3   0.236158 0.418335 0.716729 -0.270565
C23   C     C_R   0.630245 0.225660 0.601792 0.537047
C24   C     C_R   0.194924 0.665782 0.684631 0.011729
C25   C     C_R   0.676283 0.682404 0.174582 0.022644
C26   C     C_R   0.796620 0.606393 0.216169 0.056194
C27   C     C_R   0.790779 0.602087 0.288933 0.020484
C28   C     C_R   0.541727 0.764403 0.283893 -0.164942
C29   C     C_R   0.548912 0.769315 0.209482 -0.180875
C30   C     C_3   0.909242 0.456426 0.210161 -0.261928
C31   C     C_3   0.907393 0.452759 0.290513 -0.274120
C32   C     C_R   0.661123 0.670736 0.323616 0.015495
C33   C     C_R   0.634259 0.190496 0.168517 0.016244
C34   C     C_R   0.220804 0.648938 0.402014 0.554099
C35   C     C_R   0.514848 0.212176 0.206225 0.015448
C36   C     C_R   0.512858 0.220853 0.279186 0.032364
C37   C     C_R   0.734389 0.215679 0.278405 -0.154748
C38   C     C_R   0.734679 0.211429 0.204192 -0.160214
C39   C     C_3   0.438019 0.131214 0.207076 -0.268600
C40   C     C_3   0.437722 0.140015 0.287417 -0.277429
C41   C     C_R   0.628028 0.209309 0.316759 0.025137
C42   C     C_R   0.119514 0.690510 0.188237 0.027374
C43   C     C_R   0.070359 0.810222 0.231404 0.050289
C44   C     C_R   0.082618 0.801322 0.303880 0.015668
C45   C     C_R   0.642900 0.624286 0.393014 0.552040
C46   C     C_R   0.179219 0.550419 0.293488 -0.158326
C47   C     C_R   0.166364 0.560567 0.219788 -0.168350
C48   C     C_3   0.104121 0.926024 0.228114 -0.264669
C49   C     C_3   0.111772 0.920955 0.308200 -0.274571
C50   C     C_R   0.149044 0.669722 0.335325 0.019421
C51   C     C_R   0.702485 0.098921 0.895084 0.534821
C52   C     C_R   0.723560 0.688040 0.888283 0.540012
C53   C     C_R   0.118563 0.705863 0.905898 0.530815
C54   C     C_R   0.672434 0.111771 0.102319 0.543076
C55   C     C_R   0.698575 0.692029 0.099059 0.536920
C56   C     C_R   0.612872 0.236340 0.392606 0.547031
C57   C     C_R   0.089639 0.712043 0.113645 0.542988
C58   C     C_3   0.571372 0.808680 0.782778 -0.231408
C59   C     C_3   0.558673 0.796555 0.701999 -0.244145
C60   C     C_3   0.831071 0.644755 0.771115 -0.233543
Cr1   Cr    Cr6+3 0.392960 0.397920 0.502240 1.003817
Cr2   Cr    Cr6+3 0.398340 0.708480 0.501250 0.999163
Cr3   Cr    Cr6+3 0.708670 0.393570 0.496460 1.003346
Cr4   Cr    Cr6+3 0.937650 0.938540 0.007610 0.998806
Cr5   Cr    Cr6+3 0.625330 0.937370 0.994520 0.994588
Cr6   Cr    Cr6+3 0.937940 0.625230 0.001190 0.996861
H1    H     H_    0.589632 0.897452 0.793400 0.144162
H2    H     H_    0.716759 0.433311 0.699115 0.141009
H3    H     H_    0.923988 0.548370 0.790866 0.140074
H4    H     H_    0.898459 0.516818 0.675071 0.134147
H5    H     H_    0.497655 0.128470 0.682330 0.129468
H6    H     H_    0.493340 0.133549 0.807642 0.137838
H7    H     H_    0.973002 0.989004 0.806998 0.177641
H8    H     H_    0.978824 0.156828 0.811311 0.122204
H9    H     H_    0.972777 0.167743 0.683943 0.132207
H10   H     H_    0.968339 0.999588 0.678587 0.147158
H11   H     H_    0.235390 0.839001 0.701258 0.134897
H12   H     H_    0.470806 0.834267 0.809218 0.110162
H13   H     H_    0.224634 0.839026 0.828808 0.126426
H14   H     H_    0.161079 0.380098 0.818207 0.131723
H15   H     H_    0.332246 0.378472 0.823643 0.132604
H16   H     H_    0.344113 0.374843 0.695783 0.178105
H17   H     H_    0.171389 0.378543 0.690791 0.124391
H18   H     H_    0.440928 0.825227 0.309435 0.128243
H19   H     H_    0.455129 0.836590 0.179451 0.113376
H20   H     H_    0.008222 0.442798 0.187565 0.147692
H21   H     H_    0.871038 0.390408 0.184350 0.128559
H22   H     H_    0.875524 0.379024 0.310695 0.156348
H23   H     H_    0.450363 0.819809 0.689434 0.135685
H24   H     H_    0.004026 0.441962 0.315462 0.133231
H25   H     H_    0.819691 0.217643 0.305732 0.115141
H26   H     H_    0.821060 0.208512 0.175257 0.111125
H27   H     H_    0.503065 0.022907 0.186661 0.176849
H28   H     H_    0.331243 0.190897 0.183509 0.122912
H29   H     H_    0.330684 0.203660 0.310397 0.129346
H30   H     H_    0.504065 0.037097 0.313255 0.145600
H31   H     H_    0.227709 0.447156 0.316478 0.138618
H32   H     H_    0.200742 0.466903 0.187570 0.114842
H33   H     H_    0.016696 0.024385 0.207682 0.144213
H34   H     H_    0.576191 0.875440 0.674178 0.115158
H35   H     H_    0.207341 0.892568 0.202265 0.131785
H36   H     H_    0.217492 0.893481 0.327501 0.159495
H37   H     H_    0.024948 0.014408 0.334786 0.129289
H38   H     H_    0.850828 0.734086 0.779324 0.129744
H39   H     H_    0.834787 0.700052 0.660525 0.119246
H40   H     H_    0.775470 0.446547 0.811438 0.139766
H41   H     H_    0.535542 0.561192 0.710331 0.125294
O1    O     O_R   0.507380 0.255700 0.581440 -0.535323
O2    O     O_R   0.524480 0.695810 0.424040 -0.509504
O3    O     O_R   0.736390 0.504290 0.414790 -0.524744
O4    O     O_R   0.691300 0.277290 0.422170 -0.511028
O5    O     O_3   0.499990 0.499990 0.499980 -0.248211
O6    O     O_R   0.089400 0.825690 0.930570 -0.533227
O7    O     O_R   0.818460 0.054440 0.929850 -0.504499
O8    O     O_R   0.606060 0.077150 0.915510 -0.539079
O9    O     O_R   0.646550 0.806680 0.917570 -0.512489
O10   O     O_R   0.837170 0.593410 0.915250 -0.538489
O11   O     O_R   0.065200 0.635530 0.931570 -0.499715
O12   O     O_R   0.280320 0.527350 0.578930 -0.503859
O13   O     O_R   0.068260 0.828890 0.091840 -0.522819
O14   O     O_R   0.798870 0.057410 0.079340 -0.505763
O15   O     O_R   0.584930 0.080350 0.076780 -0.525582
O16   O     O_R   0.626960 0.809650 0.067060 -0.507446
O17   O     O_R   0.816040 0.596610 0.076510 -0.525847
O18   O     O_R   0.045610 0.638500 0.081060 -0.507494
O19   O     O_3   0.833640 0.833710 0.001100 -0.243879
O20   O     O_R   0.260510 0.739590 0.584590 -0.533447
O21   O     O_R   0.532300 0.695080 0.573820 -0.510549
O22   O     O_R   0.744840 0.503500 0.576370 -0.529685
O23   O     O_R   0.699120 0.276560 0.571960 -0.501042
O24   O     O_R   0.498940 0.256500 0.419860 -0.520324
O25   O     O_R   0.272500 0.528080 0.429150 -0.510526
O26   O     O_R   0.252060 0.740380 0.423010 -0.526118
C61   C     C_3   0.558689 0.541298 0.846961 -0.275726
C62   C     C_3   0.612906 0.470343 0.919395 -0.302553
C63   C     C_3   0.499892 0.455147 0.959126 -0.434145
H42   H     H_    0.407302 0.560034 0.970039 0.156427
H43   H     H_    0.466144 0.391300 0.927452 0.157309
H44   H     H_    0.542611 0.402083 0.010615 0.149159
H45   H     H_    0.706391 0.364730 0.911663 0.167077
H46   H     H_    0.643693 0.533123 0.953645 0.190341
H47   H     H_    0.470523 0.648805 0.856326 0.154895
H48   H     H_    0.515696 0.481619 0.818411 0.156969

loop_
_geom_bond_atom_site_label_1
_geom_bond_atom_site_label_2
_ccdc_geom_bond_type
C44   C49   S    
C8    C13   S    
Cr1   O12   S    
C32   C45   S    
C35   C36   A    
C9    C14   S    
C62   C63   S    
C41   C56   S    
C5    H39   S    
C7    C11   A    
C28   C32   A    
C26   C27   A    
C2    C61   S    
C47   H32   S    
C18   C24   A    
C22   H16   S    
Cr2   O26   S    
C28   C29   A    
C10   C15   A    
C57   O18   A    
C30   C31   S    
C45   O2    A    
C28   H18   S    
C48   H35   S    
Cr4   O14   S    
C38   H26   S    
C4    C59   S    
C59   H23   S    
Cr3   O23   S    
Cr3   O5    S    
C19   H11   S    
Cr1   O1    S    
C16   C53   S    
C39   H27   S    
Cr1   O25   S    
C61   H48   S    
C55   O17   A    
C19   C20   A    
C16   C17   A    
Cr6   O10   S    
C6    H41   S    
C31   H22   S    
C30   H20   S    
C53   O11   A    
C43   C48   S    
C56   O4    A    
C29   H19   S    
C20   H13   S    
C3    C60   S    
C15   C23   S    
C54   O15   A    
C34   O25   A    
C13   C14   S    
C37   C41   A    
C59   H34   S    
Cr5   O8    S    
C36   C41   A    
C2    C6    S    
C40   H30   S    
C63   H44   S    
C42   C57   S    
C53   O6    A    
C52   O9    A    
C25   C29   A    
C62   H45   S    
C55   O16   A    
C34   C50   S    
C51   O7    A    
Cr4   O7    S    
C12   O22   A    
C37   H25   S    
C27   C31   S    
C1    O20   A    
C7    C8    A    
C63   H43   S    
C49   H36   S    
C58   H12   S    
C11   H6    S    
C8    C9    A    
C34   O26   A    
C25   C26   A    
C2    H40   S    
C51   O8    A    
Cr6   O19   S    
C23   O23   A    
C14   H10   S    
C35   C39   S    
C43   C44   A    
C39   H28   S    
C1    O12   A    
C37   C38   A    
C61   H47   S    
C36   C40   S    
C16   C20   A    
C31   H24   S    
C45   O3    A    
C17   C18   A    
Cr5   O15   S    
C57   O13   A    
C4    C6    S    
C48   C49   S    
C46   H31   S    
C13   H7    S    
C26   C30   S    
Cr4   O19   S    
Cr5   O9    S    
Cr6   O17   S    
C4    C12   S    
C42   C43   A    
C40   H29   S    
C39   C40   S    
C44   C50   A    
C33   C54   S    
C48   H33   S    
C46   C47   A    
Cr4   O6    S    
C5    C60   S    
C27   C32   A    
C18   C22   S    
Cr5   O16   S    
C54   O14   A    
C25   C55   S    
C21   H15   S    
C4    C5    S    
C5    H4    S    
C49   H37   S    
C3    C52   S    
C61   C62   S    
C12   O21   A    
C14   H9    S    
C46   C50   A    
C33   C38   A    
Cr4   O13   S    
Cr6   O18   S    
Cr5   O19   S    
Cr3   O3    S    
C19   C24   A    
C58   C59   S    
C7    C51   S    
C60   H38   S    
C22   H17   S    
Cr2   O21   S    
Cr2   O20   S    
Cr2   O2    S    
C60   H3    S    
C23   O1    A    
C21   H14   S    
C6    H2    S    
C33   C35   A    
C2    C3    S    
C42   C47   A    
Cr3   O22   S    
Cr3   O4    S    
C17   C21   S    
C56   O24   A    
C10   C11   A    
Cr1   O24   S    
C10   H5    S    
C3    C58   S    
C58   H1    S    
C62   H46   S    
Cr2   O5    S    
C13   H8    S    
C1    C24   S    
Cr6   O11   S    
C52   O10   A    
C63   H42   S    
C30   H21   S    
C21   C22   S    
Cr1   O5    S    
C9    C15   A    
