data_mof_unit_11018.cif
_audit_creation_date              2012-12-10T16:57:47-0500
_audit_creation_method            fapswitch 2.2
_symmetry_space_group_name_H-M    P1
_symmetry_Int_Tables_number       1
_space_group_crystal_system       triclinic
_cell_length_a                    10.62337
_cell_length_b                    10.870946
_cell_length_c                    9.896246
_cell_angle_alpha                 92.322273
_cell_angle_beta                  89.480577
_cell_angle_gamma                 93.532298
_cell_volume                      1139.74589467

loop_
_atom_site_label
_atom_site_type_symbol
_atom_type_description
_atom_site_fract_x
_atom_site_fract_y
_atom_site_fract_z
_atom_type_partial_charge
C1    C     C_R   0.501007 0.266041 0.497338 0.837436
C2    C     C_3   0.963736 0.605066 0.442726 -0.192311
C3    C     C_3   0.040215 0.504547 0.372461 0.210590
C4    C     C_3   0.122952 0.501458 0.498627 0.003648
C5    C     C_2   0.420049 0.929336 0.408843 0.188873
C6    C     C_2   0.453990 0.863787 0.516208 0.000103
C7    C     C_2   0.417731 0.065011 0.419057 -0.170254
C8    C     C_2   0.504705 0.133759 0.489966 -0.346941
C9    C     C_2   0.416222 0.438159 0.922604 0.379072
C10   C     C_2   0.435188 0.419099 0.073744 0.380586
C11   C     C_R   0.260032 0.500139 0.499970 0.776985
C12   C     C_R   0.487341 0.733572 0.503045 0.799627
C13   C     C_R   0.739914 0.500942 0.499897 0.762033
C14   C     C_3   0.034709 0.398821 0.556302 -0.258112
C15   C     C_3   0.951146 0.401443 0.428705 -0.154576
C16   C     C_3   0.876755 0.501777 0.500450 -0.039649
C17   C     C_3   0.957610 0.498940 0.628546 -0.139565
C18   C     C_3   0.046846 0.600441 0.569367 0.183316
Cu1   Cu    Cu3+1 0.500030 0.500020 0.638630 0.951264
Cu2   Cu    Cu3+1 0.499970 0.499980 0.361370 0.949946
H1    H     H_    0.909182 0.319944 0.370245 0.138394
H2    H     H_    0.577989 0.092881 0.545584 0.157012
H3    H     H_    0.066147 0.314752 0.602767 0.143498
H4    H     H_    0.921771 0.497392 0.734231 0.136565
H5    H     H_    0.932431 0.689285 0.396410 0.117777
H6    H     H_    0.348158 0.109601 0.361247 0.149988
N1    N     N_2   0.498620 0.498660 0.846910 0.018434
N2    N     N_2   0.498590 0.498630 0.153040 0.017490
O1    O     O_R   0.500020 0.321960 0.617040 -0.585457
O2    O     O_R   0.499980 0.321920 0.382900 -0.571957
O3    O     O_R   0.316870 0.499990 0.617050 -0.582772
O4    O     O_R   0.316830 0.499950 0.382910 -0.593954
O5    O     O_R   0.500020 0.678080 0.617100 -0.565056
O6    O     O_R   0.499980 0.678040 0.382960 -0.611791
O7    O     O_R   0.683170 0.500050 0.617090 -0.612938
O8    O     O_R   0.683130 0.500010 0.382950 -0.560376
C19   C     C_3   0.293430 0.386429 0.861152 -0.891168
H7    H     H_    0.228690 0.340523 0.934152 0.195872
H8    H     H_    0.238764 0.463921 0.830264 0.252985
H9    H     H_    0.310058 0.320095 0.775842 0.254179
O9    O     O_3   0.532973 0.612592 0.898499 -0.501183
C20   C     C_3   0.657219 0.645991 0.853876 -0.024454
H10   H     H_    0.664627 0.676514 0.750448 0.171555
H11   H     H_    0.722967 0.572263 0.870413 0.143945
H12   H     H_    0.691898 0.731455 0.909637 0.059530
C21   C     C_3   0.385723 0.298228 0.129968 -0.900259
H13   H     H_    0.339439 0.233648 0.053957 0.198503
H14   H     H_    0.466865 0.247444 0.161885 0.260267
H15   H     H_    0.318796 0.313298 0.214588 0.246214
O10   O     O_3   0.618238 0.521361 0.108662 -0.487835
C22   C     C_3   0.660448 0.643391 0.149951 -0.021914
H16   H     H_    0.680547 0.660264 0.256940 0.164668
H17   H     H_    0.594350 0.711583 0.118787 0.139924
H18   H     H_    0.754260 0.663997 0.103499 0.069909
C23   C     C_3   0.102719 0.713236 0.648648 -0.904666
H19   H     H_    0.025669 0.769402 0.688081 0.226338
H20   H     H_    0.158421 0.683792 0.734665 0.247187
H21   H     H_    0.165156 0.769646 0.581504 0.237093
C24   C     C_3   0.082280 0.508494 0.225185 -0.859625
H22   H     H_    0.998758 0.514948 0.159850 0.230459
H23   H     H_    0.148285 0.590167 0.210868 0.237896
H24   H     H_    0.129527 0.423286 0.195620 0.233531
C25   C     C_3   0.381881 0.869419 0.273935 -0.837713
H25   H     H_    0.335167 0.934649 0.210055 0.215778
H26   H     H_    0.466462 0.841181 0.218141 0.233977
H27   H     H_    0.313812 0.789142 0.288123 0.235462
C26   C     C_3   0.442295 0.915749 0.661119 -0.870475
H28   H     H_    0.385702 0.849305 0.723009 0.256965
H29   H     H_    0.537316 0.931629 0.706723 0.226646
H30   H     H_    0.391314 0.001690 0.669808 0.243480

loop_
_geom_bond_atom_site_label_1
_geom_bond_atom_site_label_2
_ccdc_geom_bond_type
C14   H3    S    
C10   C21   S    
C8    H2    S    
C23   H19   S    
C25   H26   S    
C3    C24   S    
C19   H7    S    
C19   H9    S    
C1    C8    S    
C2    C16   S    
O9    C20   S    
N1    O9    S    
Cu1   Cu2   S    
C21   H15   S    
C15   H1    S    
C26   H30   S    
C4    C18   S    
Cu1   O3    S    
C22   H18   S    
C1    O1    A    
O10   C22   S    
C13   C16   S    
C25   H27   S    
Cu2   O6    S    
C7    C8    D    
C19   H8    S    
Cu2   O2    S    
C4    C11   S    
C6    C12   S    
C14   C17   S    
C5    C25   S    
C16   C17   S    
C7    H6    S    
C20   H11   S    
C18   C23   S    
C26   H28   S    
C9    C19   S    
C6    C26   S    
Cu2   O4    S    
C11   O4    A    
C13   O7    A    
C2    H5    S    
C2    C3    S    
C23   H20   S    
C4    C14   S    
C5    C6    D    
C21   H14   S    
C24   H23   S    
C17   H4    S    
C2    C18   S    
C20   H10   S    
C22   H17   S    
C11   O3    A    
C22   H16   S    
Cu2   O8    S    
C24   H22   S    
Cu1   N1    S    
C9    N1    D    
C13   O8    A    
C17   C18   S    
C9    C10   S    
C23   H21   S    
C10   N2    D    
C5    C7    S    
N2    O10   S    
C21   H13   S    
C1    O2    A    
C3    C15   S    
Cu1   O7    S    
Cu2   N2    S    
C26   H29   S    
C12   O5    A    
C14   C15   S    
C12   O6    A    
C3    C4    S    
C15   C16   S    
Cu1   O5    S    
C25   H25   S    
C24   H24   S    
C20   H12   S    
Cu1   O1    S    
