data_mof_unit_54391.cif
_audit_creation_date              2012-12-10T20:26:28-0500
_audit_creation_method            fapswitch 2.2
_symmetry_space_group_name_H-M    P1
_symmetry_Int_Tables_number       1
_space_group_crystal_system       triclinic
_cell_length_a                    10.703711
_cell_length_b                    10.662876
_cell_length_c                    9.972872
_cell_angle_alpha                 90.06548
_cell_angle_beta                  92.254824
_cell_angle_gamma                 90.916174
_cell_volume                      1137.19876241

loop_
_atom_site_label
_atom_site_type_symbol
_atom_type_description
_atom_site_fract_x
_atom_site_fract_y
_atom_site_fract_z
_atom_type_partial_charge
C1    C     C_R   0.503575 0.260281 0.500046 0.933962
C2    C     C_R   0.522153 0.128556 0.502240 -0.186768
C3    C     C_R   0.575088 0.065279 0.393992 0.506315
C4    C     C_R   0.573518 0.934854 0.394297 -0.308481
C5    C     C_R   0.526280 0.870975 0.504428 -0.133866
C6    C     C_R   0.500957 0.935612 0.620943 0.035867
C7    C     C_3   0.391376 0.922032 0.707953 -0.510667
C8    C     C_3   0.382232 0.064354 0.703116 0.409450
C9    C     C_R   0.391324 0.503461 0.066673 0.206446
C10   C     C_R   0.607510 0.507187 0.079305 -0.152475
C11   C     C_R   0.609584 0.506773 0.937328 0.188283
C12   C     C_R   0.262669 0.500724 0.497216 0.988856
C13   C     C_R   0.390462 0.509265 0.925129 0.091776
C14   C     C_3   0.278285 0.423078 0.915783 -0.060029
C15   C     C_3   0.287774 0.409423 0.068081 -0.500603
C16   C     C_R   0.505655 0.739451 0.500486 0.907761
C17   C     C_R   0.737513 0.506066 0.501962 0.937727
C18   C     C_2   0.929326 0.544848 0.391033 -0.294302
C19   C     C_2   0.869236 0.530767 0.505370 -0.415561
C20   C     C_2   0.065370 0.561263 0.393795 0.572272
C21   C     C_2   0.129757 0.498026 0.489274 -0.456621
C22   C     C_R   0.495212 0.063052 0.618598 -0.025795
H1    H     H_    0.879659 0.540421 0.294176 0.170487
H2    H     H_    0.401256 0.113347 0.800744 0.070033
H3    H     H_    0.693469 0.512672 0.139541 0.146982
H4    H     H_    0.296684 0.335556 0.859590 0.185635
H5    H     H_    0.206483 0.443703 0.122797 0.237664
H6    H     H_    0.320701 0.315548 0.101010 0.194490
H7    H     H_    0.916720 0.542583 0.602522 0.155956
H8    H     H_    0.084845 0.439038 0.562223 0.129375
H9    H     H_    0.603162 0.884711 0.306775 0.181517
H10   H     H_    0.312138 0.870190 0.656599 0.211168
H11   H     H_    0.418833 0.886175 0.809322 0.168103
N1    N     N_R   0.499170 0.499140 0.142800 -0.114519
N2    N     N_R   0.499170 0.499180 0.857150 -0.128855
O1    O     O_R   0.500020 0.316790 0.614690 -0.630999
O2    O     O_R   0.500000 0.316760 0.385350 -0.568515
O3    O     O_R   0.319080 0.500020 0.614640 -0.636513
O4    O     O_R   0.319070 0.499980 0.385300 -0.562242
O5    O     O_R   0.500000 0.683240 0.614650 -0.628497
O6    O     O_R   0.499980 0.683210 0.385310 -0.611469
O7    O     O_R   0.680930 0.500020 0.614700 -0.631144
O8    O     O_R   0.680920 0.499980 0.385360 -0.631340
Zn1   Zn    Zn3+2 0.500010 0.500020 0.653130 0.930584
Zn2   Zn    Zn3+2 0.499990 0.499980 0.346870 0.983652
C23   C     C_3   0.738714 0.516960 0.884675 -0.361329
C24   C     C_3   0.767878 0.650934 0.839106 -0.818495
H12   H     H_    0.697129 0.684871 0.764452 0.293229
H13   H     H_    0.861488 0.655651 0.795421 0.225796
H14   H     H_    0.769000 0.715301 0.926868 0.228174
H15   H     H_    0.810461 0.496322 0.965066 0.159518
H16   H     H_    0.754388 0.440845 0.813061 0.222821
C25   C     C_3   0.158259 0.491697 0.870155 -0.323554
C26   C     C_3   0.049783 0.399059 0.850318 -0.956420
H17   H     H_    0.072556 0.326408 0.776452 0.262290
H18   H     H_    0.026657 0.354327 0.946948 0.267901
H19   H     H_    0.967918 0.449391 0.809300 0.249482
H20   H     H_    0.133051 0.564072 0.944456 0.204939
H21   H     H_    0.171003 0.542919 0.775537 0.227174
O9    O     O_3   0.129716 0.631143 0.298827 -0.590534
C27   C     C_3   0.051591 0.710781 0.221434 -0.346266
H22   H     H_    0.992644 0.769256 0.285562 0.171680
H23   H     H_    0.993561 0.655841 0.146725 0.154618
H24   H     H_    0.111546 0.775718 0.164382 0.193652
O10   O     O_3   0.614485 0.128148 0.281779 -0.587117
C28   C     C_3   0.742235 0.159419 0.302580 -0.300542
H25   H     H_    0.758440 0.221081 0.392002 0.147492
H26   H     H_    0.773811 0.212271 0.213985 0.188110
H27   H     H_    0.799890 0.073693 0.312548 0.147794
O11   O     O_3   0.275782 0.105869 0.628438 -0.580921
C29   C     C_3   0.169160 0.091878 0.706128 -0.338487
H28   H     H_    0.182472 0.137505 0.806136 0.151064
H29   H     H_    0.143579 0.991359 0.718946 0.167220
H30   H     H_    0.089212 0.136722 0.651986 0.185612

loop_
_geom_bond_atom_site_label_1
_geom_bond_atom_site_label_2
_ccdc_geom_bond_type
C2    C22   A    
C27   H24   S    
C8    C22   S    
C25   H20   S    
C17   O8    A    
O3    Zn1   S    
O11   C29   S    
C29   H30   S    
C7    H11   S    
C21   H8    S    
C6    C7    S    
C28   H26   S    
C24   H12   S    
C14   C15   S    
C1    O2    A    
O4    Zn2   S    
C1    C2    S    
C28   H27   S    
C27   H22   S    
C12   O4    A    
C11   N2    A    
C2    C3    A    
C25   H21   S    
C5    C16   S    
C7    C8    S    
C24   H13   S    
N1    Zn2   S    
C13   C14   S    
C14   H4    S    
N2    Zn1   S    
O8    Zn2   S    
C15   H6    S    
C3    O10   S    
O7    Zn1   S    
C16   O5    A    
C4    C5    A    
C23   H15   S    
C10   H3    S    
C17   C19   S    
C9    N1    A    
C28   H25   S    
C24   H14   S    
C18   C20   S    
C12   O3    A    
C5    C6    A    
C26   H18   S    
O1    Zn1   S    
C4    H9    S    
C20   O9    S    
C10   C11   A    
C16   O6    A    
O2    Zn2   S    
C3    C4    A    
C19   H7    S    
C23   H16   S    
O5    Zn1   S    
C14   C25   S    
C29   H28   S    
C20   C21   D    
C10   N1    A    
O10   C28   S    
C23   C24   S    
C17   O7    A    
C29   H29   S    
C27   H23   S    
C9    C13   A    
C26   H17   S    
C18   C19   D    
C11   C23   S    
O6    Zn2   S    
C7    H10   S    
C8    H2    S    
C25   C26   S    
C8    O11   S    
C12   C21   S    
C26   H19   S    
C13   N2    A    
C18   H1    S    
C1    O1    A    
O9    C27   S    
C15   H5    S    
C9    C15   S    
C6    C22   A    
