data_mof_unit_7633.cif
_audit_creation_date              2012-10-26T19:46:32-0400
_audit_creation_method            fapswitch 2.2
_symmetry_space_group_name_H-M    P1
_symmetry_Int_Tables_number       1
_space_group_crystal_system       triclinic
_cell_length_a                    10.834619
_cell_length_b                    9.516821
_cell_length_c                    15.105665
_cell_angle_alpha                 89.903644
_cell_angle_beta                  90.166625
_cell_angle_gamma                 89.999889
_cell_volume                      1557.55339289

loop_
_atom_site_label
_atom_site_type_symbol
_atom_type_description
_atom_site_fract_x
_atom_site_fract_y
_atom_site_fract_z
_atom_type_partial_charge
C1    C     C_R   0.262050 0.500000 0.499930 0.553223
C2    C     C_R   0.936150 0.627693 0.499997 -0.132471
C3    C     C_R   0.936151 0.372307 0.500103 -0.132288
C4    C     C_R   0.063844 0.627694 0.499900 -0.132363
C5    C     C_R   0.577056 0.607501 0.097445 0.244967
C6    C     C_R   0.576925 0.391991 0.902854 0.245881
C7    C     C_R   0.453152 0.607820 0.906799 0.228497
C8    C     C_R   0.452877 0.391975 0.093046 0.229805
C9    C     C_R   0.567294 0.608182 0.189255 -0.071508
C10   C     C_R   0.567303 0.391510 0.810990 -0.071005
C11   C     C_R   0.449379 0.607854 0.814109 -0.140270
C12   C     C_R   0.737950 0.500000 0.500070 0.550011
C13   C     C_R   0.448979 0.392114 0.185723 -0.138541
C14   C     C_R   0.504891 0.500518 0.233524 -0.066614
C15   C     C_R   0.505140 0.499403 0.766498 -0.066601
C16   C     C_R   0.517567 0.499460 0.048722 0.077375
C17   C     C_R   0.517573 0.500099 0.951363 0.077710
C18   C     C_R   0.871788 0.500000 0.500078 0.021807
C19   C     C_R   0.128208 0.500000 0.499920 0.022257
C20   C     C_R   0.500541 0.500130 0.329942 0.552123
C21   C     C_R   0.500725 0.499861 0.670060 0.552390
C22   C     C_R   0.422299 0.074570 0.445624 0.017917
C23   C     C_R   0.577713 0.925437 0.554365 0.016978
C24   C     C_R   0.577699 0.074286 0.554378 0.018774
C25   C     C_R   0.422291 0.925722 0.445633 0.016849
C26   C     C_R   0.063845 0.372307 0.499995 -0.132152
Cu1   Cu    Cu3+1 0.500000 0.640660 0.500000 0.946728
Cu2   Cu    Cu3+1 0.500000 0.359340 0.500000 0.950213
H1    H     H_    0.360075 0.130805 0.402057 0.108539
H2    H     H_    0.888124 0.727530 0.500001 0.130901
H3    H     H_    0.888126 0.272470 0.500196 0.131066
H4    H     H_    0.111869 0.727531 0.499815 0.130457
H5    H     H_    0.662117 0.690315 0.996113 0.334102
H6    H     H_    0.661578 0.308713 0.004567 0.335104
H7    H     H_    0.353729 0.777896 0.914139 0.334690
H8    H     H_    0.353135 0.222145 0.085339 0.333257
H9    H     H_    0.639963 0.869209 0.597912 0.115238
H10   H     H_    0.639916 0.130296 0.597948 0.110489
H11   H     H_    0.360046 0.869722 0.402086 0.115996
H12   H     H_    0.612230 0.691176 0.226371 0.164134
H13   H     H_    0.612115 0.308458 0.774027 0.154973
H14   H     H_    0.400798 0.690734 0.779174 0.129536
H15   H     H_    0.400220 0.309400 0.220492 0.120437
H16   H     H_    0.111870 0.272470 0.499983 0.130763
N1    N     N_R   0.500000 0.852070 0.500000 -0.228390
N2    N     N_R   0.500000 0.147930 0.500000 -0.225808
O1    O     O_R   0.319640 0.618740 0.499990 -0.509102
O2    O     O_3   0.645335 0.285886 0.941772 -0.658776
O3    O     O_3   0.394116 0.710759 0.955308 -0.656879
O4    O     O_3   0.393709 0.289104 0.044319 -0.656022
O5    O     O_R   0.680360 0.381260 0.500010 -0.509907
O6    O     O_R   0.680360 0.618740 0.500010 -0.510235
O7    O     O_R   0.319640 0.381260 0.499990 -0.508425
O8    O     O_R   0.499990 0.618780 0.371460 -0.501553
O9    O     O_R   0.500010 0.381220 0.628540 -0.499567
O10   O     O_R   0.500010 0.618780 0.628540 -0.499670
O11   O     O_R   0.499990 0.381220 0.371460 -0.497570
O12   O     O_3   0.645725 0.713366 0.058788 -0.657465

loop_
_geom_bond_atom_site_label_1
_geom_bond_atom_site_label_2
_ccdc_geom_bond_type
C6    C10   A    
C21   O10   A    
C2    C4    A    
Cu2   O7    S    
C19   C26   A    
C5    C9    A    
C8    C13   A    
C23   N1    A    
C22   H1    S    
C8    O4    S    
C2    C18   A    
C14   C20   S    
C24   H10   S    
C2    H2    S    
C23   C24   A    
C24   N2    A    
Cu1   N1    S    
Cu1   O8    S    
C26   H16   S    
C8    C16   A    
C4    H4    S    
C13   C14   A    
C25   H11   S    
C10   H13   S    
C3    H3    S    
Cu2   N2    S    
H5    O12   S    
C15   C21   S    
C6    O2    S    
C5    O12   S    
C3    C18   A    
H7    O3    S    
C22   N2    A    
Cu2   O9    S    
C7    C11   A    
C10   C15   A    
C9    H12   S    
Cu2   O5    S    
C1    C19   S    
H6    O2    S    
Cu1   O1    S    
C6    C17   A    
C25   N1    A    
C13   H15   S    
C12   O5    A    
H8    O4    S    
Cu1   O6    S    
C7    O3    S    
C11   H14   S    
C20   O8    A    
C12   C18   S    
Cu1   Cu2   S    
C21   O9    A    
C9    C14   A    
C1    O7    A    
Cu1   O10   S    
C1    O1    A    
C5    C16   A    
C23   H9    S    
C12   O6    A    
C20   O11   A    
Cu2   O11   S    
C4    C19   A    
C11   C15   A    
C3    C26   A    
C16   C17   S    
C7    C17   A    
C22   C25   A    
