data_mof_unit_18890.cif
_audit_creation_date              2012-12-10T17:52:02-0500
_audit_creation_method            fapswitch 2.2
_symmetry_space_group_name_H-M    P1
_symmetry_Int_Tables_number       1
_space_group_crystal_system       triclinic
_cell_length_a                    14.615465
_cell_length_b                    14.566203
_cell_length_c                    19.270715
_cell_angle_alpha                 76.919635
_cell_angle_beta                  101.845406
_cell_angle_gamma                 113.789097
_cell_volume                      3626.5815083

loop_
_atom_site_label
_atom_site_type_symbol
_atom_type_description
_atom_site_fract_x
_atom_site_fract_y
_atom_site_fract_z
_atom_type_partial_charge
C1    C     C_R   0.880698 0.311258 0.510585 0.806303
C2    C     C_R   0.119155 0.688606 0.489804 0.858069
C3    C     C_R   0.813250 0.201816 0.520541 -0.206101
C4    C     C_R   0.186374 0.797904 0.481366 -0.154355
C5    C     C_R   0.770562 0.044254 0.606063 0.126144
C6    C     C_R   0.232152 0.954614 0.395567 0.133827
C7    C     C_R   0.843925 0.129186 0.571325 0.125484
C8    C     C_R   0.157416 0.870528 0.429517 0.097495
C9    C     C_R   0.711278 0.172393 0.487999 -0.100100
C10   C     C_R   0.287198 0.826951 0.516214 -0.085392
C11   C     C_R   0.639500 0.076891 0.514678 0.041156
C12   C     C_R   0.361227 0.920436 0.488770 -0.024152
C13   C     C_R   0.667961 0.024389 0.581383 0.023570
C14   C     C_R   0.334229 0.972738 0.421223 0.031867
C15   C     C_R   0.538232 0.035181 0.481206 0.121267
C16   C     C_R   0.463040 0.960676 0.522252 0.065483
C17   C     C_R   0.491988 0.932883 0.595784 -0.220593
C18   C     C_R   0.510504 0.062545 0.407560 -0.147391
C19   C     C_R   0.592781 0.956259 0.622912 -0.148246
C20   C     C_R   0.410128 0.039289 0.379767 -0.125200
C21   C     C_R   0.699836 0.642465 0.364003 -0.111147
C22   C     C_R   0.299878 0.357154 0.635948 -0.112278
C23   C     C_R   0.999427 0.500912 0.632164 0.823809
C24   C     C_R   0.000627 0.499197 0.367839 0.789483
C25   C     C_R   0.788774 0.624265 0.390779 0.124991
C26   C     C_R   0.211106 0.375683 0.609215 0.143561
C27   C     C_R   0.718258 0.518850 0.494178 0.121929
C28   C     C_R   0.281714 0.480946 0.505807 0.070916
C29   C     C_R   0.628136 0.538362 0.472032 -0.005076
C30   C     C_R   0.371689 0.461151 0.527938 -0.019644
C31   C     C_R   0.613528 0.586733 0.400479 -0.037178
C32   C     C_R   0.386209 0.412681 0.599472 -0.031594
C33   C     C_R   0.549662 0.504394 0.516436 -0.019805
C34   C     C_R   0.450124 0.494950 0.483530 -0.030710
C35   C     C_R   0.431477 0.513435 0.407218 0.112004
C36   C     C_R   0.568254 0.485780 0.592752 0.100672
C37   C     C_R   0.513005 0.566916 0.366284 0.102629
C38   C     C_R   0.486701 0.432236 0.633658 0.108415
C39   C     C_R   0.988243 0.414107 0.759070 -0.071402
C40   C     C_R   0.013694 0.586740 0.241222 -0.064969
C41   C     C_R   0.991114 0.418647 0.831185 -0.113495
C42   C     C_R   0.011085 0.582441 0.169095 -0.118367
C43   C     C_R   0.001435 0.508185 0.852669 -0.077318
C44   C     C_R   0.999334 0.492574 0.147385 -0.077478
C45   C     C_R   0.011114 0.596793 0.801577 0.159006
C46   C     C_R   0.987880 0.403434 0.198200 0.169878
C47   C     C_R   0.009412 0.593923 0.728676 0.158739
C48   C     C_R   0.989096 0.406037 0.271068 0.126087
C49   C     C_R   0.997876 0.502570 0.707573 -0.184260
C50   C     C_R   0.002268 0.497723 0.292435 -0.183351
C51   C     C_R   0.998750 0.494819 0.070833 0.434075
C52   C     C_R   0.002126 0.506051 0.929249 0.435727
Cu1   Cu    Cu3+1 0.081740 0.475680 0.518680 1.004885
Cu2   Cu    Cu3+1 0.918260 0.524320 0.481320 0.991851
H1    H     H_    0.274761 0.533796 0.457597 0.138810
H2    H     H_    0.725285 0.465985 0.542360 0.150885
H3    H     H_    0.146691 0.339874 0.638591 0.168787
H4    H     H_    0.853167 0.660173 0.361387 0.173268
H5    H     H_    0.983023 0.351128 0.871182 0.209899
H6    H     H_    0.020419 0.650320 0.129273 0.209956
H7    H     H_    0.610689 0.925200 0.678110 0.190755
H8    H     H_    0.393079 0.070105 0.324355 0.181806
H9    H     H_    0.437928 0.892333 0.633385 0.184920
H10   H     H_    0.565832 0.104570 0.370915 0.144629
N1    N     N_R   0.941256 0.540847 0.951075 -0.169207
N2    N     N_R   0.059587 0.459969 0.049023 -0.167059
N3    N     N_R   0.940164 0.536039 0.020670 -0.193230
N4    N     N_R   0.060699 0.464810 0.979424 -0.191280
N5    N     N_R   0.795420 0.560800 0.453240 -0.210027
N6    N     N_R   0.204580 0.439200 0.546760 -0.201098
O1    O     O_R   0.977910 0.338110 0.524620 -0.553903
O2    O     O_R   0.022090 0.661890 0.475380 -0.564101
O3    O     O_R   0.839850 0.379180 0.493080 -0.584966
O4    O     O_R   0.160150 0.620820 0.506920 -0.576770
O5    O     O_R   0.069040 0.479450 0.615630 -0.575259
O6    O     O_R   0.930960 0.520550 0.384370 -0.600006
O7    O     O_R   0.930990 0.520520 0.584090 -0.560793
O8    O     O_R   0.069010 0.479480 0.415910 -0.552117
C53   C     C_2   0.971979 0.315700 0.738198 0.446759
H11   H     H_    0.958475 0.307015 0.682168 0.051194
O9    O     O_2   0.972722 0.242280 0.783617 -0.472227
C54   C     C_2   0.031344 0.685339 0.262419 0.439905
H12   H     H_    0.043935 0.693414 0.318521 0.050561
O10   O     O_2   0.032758 0.759574 0.217207 -0.475157
I1    I     I_    0.480130 0.589308 0.250740 -0.212936
I2    I     I_    0.519570 0.409351 0.749206 -0.210865
C55   C     C_2   0.703934 0.728567 0.304837 0.449226
H13   H     H_    0.649773 0.764591 0.297319 0.096263
O11   O     O_2   0.769062 0.761839 0.264927 -0.476262
C56   C     C_2   0.295522 0.270903 0.695034 0.454878
H14   H     H_    0.349433 0.234599 0.702462 0.103289
O12   O     O_2   0.230445 0.237817 0.734974 -0.475274
I3    I     I_    0.285082 0.432950 0.352502 -0.221682
I4    I     I_    0.714516 0.566287 0.647574 -0.255357
I5    I     I_    0.037052 0.736713 0.835272 -0.118429
I6    I     I_    0.960195 0.263359 0.164050 -0.130271
I7    I     I_    0.030543 0.729257 0.650509 -0.139001
I8    I     I_    0.964446 0.269952 0.348791 -0.222278
C57   C     C_2   0.316475 0.753573 0.574519 0.402361
H15   H     H_    0.384067 0.739910 0.574058 0.074154
O13   O     O_2   0.266396 0.709780 0.624162 -0.503642
C58   C     C_2   0.679409 0.247237 0.432815 0.411013
H16   H     H_    0.723032 0.288759 0.388533 0.087318
O14   O     O_2   0.607575 0.266472 0.438597 -0.515247
I9    I     I_    0.004014 0.859075 0.403597 -0.180937
I10   I     I_    0.997613 0.141274 0.594327 -0.178600
I11   I     I_    0.813945 0.943658 0.694208 -0.144596
I12   I     I_    0.191553 0.056256 0.306758 -0.127780

loop_
_geom_bond_atom_site_label_1
_geom_bond_atom_site_label_2
_ccdc_geom_bond_type
C15   C18   A    
N2    N4    A    
C55   H13   S    
C21   C55   S    
C27   C29   A    
Cu1   O4    S    
C4    C8    A    
C8    I9    S    
C39   C41   A    
Cu1   Cu2   S    
C21   C31   A    
C1    O1    A    
C22   C32   A    
C38   I2    S    
C37   I1    S    
C35   C37   A    
C3    C7    A    
C43   C52   S    
C23   C49   S    
C15   C16   A    
C29   C33   A    
C33   C36   A    
C34   C35   A    
C45   C47   A    
C11   C15   A    
C12   C16   A    
C9    C58   S    
N1    N3    A    
C32   C38   A    
C5    C13   A    
C27   N5    A    
Cu2   O7    S    
C40   C42   A    
C41   C43   A    
Cu1   O5    S    
C42   C44   A    
C2    O2    A    
Cu1   N6    S    
C28   H1    S    
C44   C46   A    
C35   I3    S    
C24   C50   S    
C46   C48   A    
C30   C34   A    
C58   H16   S    
C40   C54   S    
C41   H5    S    
C47   C49   A    
C42   H6    S    
C53   O9    D    
C13   C19   A    
C27   H2    S    
C24   O6    A    
C6    C8    A    
C52   N4    A    
C31   C37   A    
C1    C3    S    
C51   N2    A    
C39   C53   S    
C2    C4    S    
C3    C9    A    
C14   C20   A    
C6    C14   A    
Cu2   O3    S    
C43   C45   A    
C56   O12   D    
C57   H15   S    
C33   C34   A    
C22   C56   S    
C7    I10   S    
C46   I6    S    
C51   N3    A    
C23   O7    A    
C58   O14   D    
C9    C11   A    
C10   C12   A    
Cu2   O6    S    
C44   C51   S    
C24   O8    A    
C39   C49   A    
C12   C14   A    
C54   O10   D    
C55   O11   D    
C26   N6    A    
C25   N5    A    
C25   H4    S    
C4    C10   A    
C36   C38   A    
Cu1   O1    S    
C5    C7    A    
C5    I11   S    
C21   C25   A    
C57   O13   D    
C28   N6    A    
C23   O5    A    
C2    O4    A    
C48   I8    S    
C47   I7    S    
C1    O3    A    
C28   C30   A    
Cu1   O8    S    
C29   C31   A    
C17   H9    S    
C30   C32   A    
C11   C13   A    
C18   H10   S    
C56   H14   S    
C16   C17   A    
Cu2   N5    S    
C19   H7    S    
C40   C50   A    
C48   C50   A    
C17   C19   A    
C18   C20   A    
C20   H8    S    
C10   C57   S    
C26   H3    S    
C53   H11   S    
C36   I4    S    
Cu2   O2    S    
C54   H12   S    
C22   C26   A    
C6    I12   S    
C52   N1    A    
C45   I5    S    
