data_mof_unit_26944.cif
_audit_creation_date              2012-12-10T17:54:22-0500
_audit_creation_method            fapswitch 2.2
_symmetry_space_group_name_H-M    P1
_symmetry_Int_Tables_number       1
_space_group_crystal_system       triclinic
_cell_length_a                    27.724006
_cell_length_b                    10.619058
_cell_length_c                    9.905452
_cell_angle_alpha                 89.948595
_cell_angle_beta                  90.040808
_cell_angle_gamma                 91.751794
_cell_volume                      2914.8282922

loop_
_atom_site_label
_atom_site_type_symbol
_atom_type_description
_atom_site_fract_x
_atom_site_fract_y
_atom_site_fract_z
_atom_type_partial_charge
C1    C     C_R   0.501310 0.260734 0.500088 0.855399
C2    C     C_R   0.277933 0.498783 0.377134 -0.103285
C3    C     C_R   0.252905 0.487660 0.499099 0.325458
C4    C     C_R   0.101671 0.487742 0.499546 -0.051863
C5    C     C_R   0.125893 0.373564 0.511510 -0.020582
C6    C     C_R   0.099406 0.260361 0.524043 -0.137260
C7    C     C_R   0.128663 0.601707 0.487225 -0.022495
C8    C     C_R   0.353380 0.495223 0.499713 -0.040693
C9    C     C_R   0.646511 0.497017 0.500753 -0.093983
C10   C     C_R   0.972855 0.372011 0.499781 0.046014
C11   C     C_R   0.975812 0.604899 0.501549 0.046801
C12   C     C_R   0.406084 0.499012 0.499933 0.858195
C13   C     C_R   0.949100 0.488630 0.500857 0.071911
C14   C     C_R   0.944531 0.259209 0.490402 -0.215657
C15   C     C_R   0.894547 0.260836 0.488369 -0.140257
C16   C     C_R   0.870927 0.374750 0.495130 -0.021355
C17   C     C_R   0.898016 0.489017 0.501213 -0.053153
C18   C     C_R   0.873902 0.603706 0.507573 -0.038344
C19   C     C_R   0.823467 0.601937 0.507975 0.562295
C20   C     C_R   0.820524 0.377406 0.495150 0.494498
C21   C     C_R   0.722078 0.502673 0.624863 0.527966
C22   C     C_R   0.671832 0.508265 0.623162 -0.343390
C23   C     C_R   0.501479 0.739465 0.499913 0.878215
C24   C     C_R   0.671793 0.482225 0.379427 -0.204965
C25   C     C_R   0.721798 0.479388 0.380488 -0.193967
C26   C     C_R   0.746833 0.490521 0.502493 0.244816
C27   C     C_R   0.023897 0.371854 0.506948 0.046495
C28   C     C_R   0.050583 0.487993 0.499943 0.070596
C29   C     C_R   0.026798 0.604412 0.493339 0.045676
C30   C     C_R   0.049385 0.259251 0.522049 -0.215699
C31   C     C_R   0.104977 0.715124 0.474791 -0.135034
C32   C     C_R   0.950423 0.718086 0.511652 -0.212583
C33   C     C_R   0.900438 0.717226 0.514267 -0.138694
C34   C     C_R   0.593898 0.499890 0.500107 0.869349
C35   C     C_R   0.055024 0.716714 0.477469 -0.215558
C36   C     C_R   0.582448 0.137809 0.623710 -0.176043
C37   C     C_R   0.620419 0.075094 0.683606 -0.120337
C38   C     C_R   0.620451 0.944034 0.683523 -0.114846
C39   C     C_R   0.582537 0.875255 0.623457 -0.189879
C40   C     C_R   0.543467 0.937455 0.563516 0.092533
C41   C     C_R   0.543408 0.069445 0.563685 0.098505
C42   C     C_R   0.504648 0.128732 0.499858 -0.087655
C43   C     C_R   0.468071 0.061777 0.432685 -0.210149
C44   C     C_R   0.468142 0.933186 0.432495 -0.190702
C45   C     C_R   0.176374 0.375623 0.511453 0.503493
C46   C     C_R   0.504782 0.872024 0.499484 -0.101288
C47   C     C_R   0.436503 0.335228 0.140216 -0.160357
C48   C     C_R   0.405184 0.254128 0.070009 -0.193081
C49   C     C_R   0.405197 0.254033 0.930267 -0.186842
C50   C     C_R   0.436543 0.335004 0.859927 -0.159017
C51   C     C_R   0.468710 0.418731 0.927698 0.168934
C52   C     C_R   0.468704 0.418814 0.072345 0.170644
C53   C     C_R   0.529997 0.577558 0.071491 -0.112497
C54   C     C_R   0.529984 0.577534 0.928315 -0.113239
C55   C     C_R   0.179053 0.599324 0.486870 0.505453
C56   C     C_R   0.277785 0.479494 0.621312 -0.102928
C57   C     C_R   0.327913 0.483382 0.621847 -0.218261
C58   C     C_R   0.328051 0.502252 0.377196 -0.220642
H1    H     H_    0.346859 0.510994 0.281681 0.167692
H2    H     H_    0.258204 0.471085 0.715610 0.137738
H3    H     H_    0.124987 0.803691 0.462840 0.191841
H4    H     H_    0.968066 0.809421 0.520878 0.137234
H5    H     H_    0.653031 0.473186 0.283819 0.171979
H6    H     H_    0.882661 0.806432 0.521662 0.187919
H7    H     H_    0.741248 0.469478 0.286556 0.158562
H8    H     H_    0.039676 0.807761 0.463655 0.139016
H9    H     H_    0.438899 0.109344 0.382843 0.142836
H10   H     H_    0.584455 0.239582 0.623251 0.152757
H11   H     H_    0.650123 0.128402 0.729025 0.138273
H12   H     H_    0.258466 0.505145 0.282672 0.137757
H13   H     H_    0.650176 0.895487 0.728906 0.153735
H14   H     H_    0.584609 0.773742 0.622728 0.144380
H15   H     H_    0.439012 0.880954 0.382571 0.158714
H16   H     H_    0.554503 0.640920 0.125272 0.150605
H17   H     H_    0.434399 0.329497 0.247250 0.199822
H18   H     H_    0.380791 0.190877 0.124560 0.156963
H19   H     H_    0.380799 0.190737 0.875828 0.161365
H20   H     H_    0.434483 0.329080 0.752874 0.204256
H21   H     H_    0.554473 0.640895 0.874408 0.145187
H22   H     H_    0.117252 0.171608 0.535553 0.189418
H23   H     H_    0.652859 0.522407 0.717230 0.169872
H24   H     H_    0.874461 0.171923 0.481387 0.191562
H25   H     H_    0.959817 0.167604 0.481329 0.138539
H26   H     H_    0.031800 0.168328 0.535742 0.138259
H27   H     H_    0.346616 0.477076 0.717542 0.166081
N1    N     N_R   0.201591 0.487414 0.499071 -0.359098
N2    N     N_R   0.798141 0.489890 0.501809 -0.339492
N3    N     N_R   0.499540 0.498800 0.142780 -0.122881
N4    N     N_R   0.499520 0.498720 0.857170 -0.121953
O1    O     O_R   0.500000 0.316780 0.614690 -0.640319
O2    O     O_2   0.793991 0.268816 0.489161 -0.572446
O3    O     O_2   0.205443 0.707757 0.475177 -0.549836
O4    O     O_2   0.799786 0.711012 0.514011 -0.544503
O5    O     O_R   0.500000 0.316750 0.385360 -0.629040
O6    O     O_R   0.428760 0.500030 0.614650 -0.634863
O7    O     O_R   0.428750 0.500010 0.385320 -0.640928
O8    O     O_R   0.500000 0.683250 0.614640 -0.612988
O9    O     O_R   0.500000 0.683220 0.385310 -0.610214
O10   O     O_R   0.571250 0.499990 0.614680 -0.636308
O11   O     O_R   0.571240 0.499970 0.385350 -0.616417
O12   O     O_2   0.200168 0.267103 0.523012 -0.553336
Zn1   Zn    Zn3+2 0.500000 0.500020 0.653130 0.934589
Zn2   Zn    Zn3+2 0.500000 0.499980 0.346870 0.942582
O13   O     O_3   0.747672 0.519179 0.743769 -0.633183
C59   C     C_3   0.741917 0.409569 0.823706 0.053206
H28   H     H_    0.752711 0.324589 0.766275 0.166740
H29   H     H_    0.703782 0.396748 0.857599 0.134817
C60   C     C_3   0.774164 0.423185 0.948372 -0.316944
H30   H     H_    0.812430 0.435161 0.916075 0.235451
H31   H     H_    0.764181 0.508335 0.005969 0.230217
C61   C     C_3   0.769099 0.308105 0.040286 -0.936788
H32   H     H_    0.731312 0.296167 0.076467 0.264818
H33   H     H_    0.793187 0.320807 0.129193 0.275012
H34   H     H_    0.779447 0.221890 0.985336 0.275077

loop_
_geom_bond_atom_site_label_1
_geom_bond_atom_site_label_2
_ccdc_geom_bond_type
C10   C27   A    
C21   C26   A    
C1    O1    A    
C37   H11   S    
N4    Zn1   S    
C41   C42   A    
C48   H18   S    
C61   H32   S    
C7    C55   A    
C53   C54   A    
C56   C57   A    
C40   C46   A    
C59   H29   S    
C37   C38   A    
C36   C37   A    
C19   N2    A    
C49   H19   S    
C5    C6    A    
C9    C22   A    
O9    Zn2   S    
C20   N2    A    
C60   H30   S    
C18   C19   A    
C31   H3    S    
O1    Zn1   S    
C8    C58   A    
C21   O13   S    
C53   H16   S    
C60   H31   S    
C16   C17   A    
C34   O11   A    
C39   H14   S    
C12   O6    A    
C61   H34   S    
O8    Zn1   S    
C19   O4    S    
O6    Zn1   S    
C8    C12   S    
C23   C46   S    
C21   C22   A    
C3    N1    S    
C36   C41   A    
C14   H25   S    
C4    C7    A    
C50   H20   S    
O13   C59   S    
C4    C28   A    
C44   C46   A    
C17   C18   A    
C15   H24   S    
C59   C60   S    
C7    C31   A    
C51   C52   A    
C22   H23   S    
C52   N3    A    
C25   H7    S    
C24   C25   A    
C54   N4    A    
C10   C14   A    
C39   C40   A    
C27   C30   A    
C26   N2    S    
C35   H8    S    
C58   H1    S    
C5    C45   A    
O11   Zn2   S    
C56   H2    S    
C43   C44   A    
C55   O3    S    
C8    C57   A    
C3    C56   A    
C1    C42   S    
C6    H22   S    
C47   C48   A    
C16   C20   A    
C23   O9    A    
C36   H10   S    
C50   C51   A    
C61   H33   S    
C45   O12   S    
C40   C41   A    
C6    C30   A    
O5    Zn2   S    
C24   H5    S    
C9    C34   S    
C31   C35   A    
C42   C43   A    
N3    Zn2   S    
C54   H21   S    
C38   H13   S    
C28   C29   A    
C23   O8    A    
C4    C5    A    
C10   C13   A    
C1    O5    A    
C2    C58   A    
C9    C24   A    
C47   C52   A    
C34   O10   A    
C59   H28   S    
C29   C35   A    
C60   C61   S    
C13   C17   A    
C32   C33   A    
C55   N1    A    
C2    C3    A    
C25   C26   A    
C47   H17   S    
C51   N4    A    
C11   C13   A    
C38   C39   A    
C33   H6    S    
C48   C49   A    
C57   H27   S    
C45   N1    A    
C53   N3    A    
C30   H26   S    
C44   H15   S    
C18   C33   A    
C32   H4    S    
C20   O2    S    
O10   Zn1   S    
C11   C29   A    
C43   H9    S    
C49   C50   A    
O7    Zn2   S    
C27   C28   A    
C14   C15   A    
C12   O7    A    
C2    H12   S    
C15   C16   A    
C11   C32   A    
