data_mof_unit_48042.cif
_audit_creation_date              2012-12-10T17:22:42-0500
_audit_creation_method            fapswitch 2.2
_symmetry_space_group_name_H-M    P1
_symmetry_Int_Tables_number       1
_space_group_crystal_system       triclinic
_cell_length_a                    10.631437
_cell_length_b                    10.844502
_cell_length_c                    9.625473
_cell_angle_alpha                 88.876254
_cell_angle_beta                  90.476748
_cell_angle_gamma                 94.84439
_cell_volume                      1105.54446571

loop_
_atom_site_label
_atom_site_type_symbol
_atom_type_description
_atom_site_fract_x
_atom_site_fract_y
_atom_site_fract_z
_atom_type_partial_charge
C1    C     C_R   0.505874 0.262363 0.502200 0.793508
C2    C     C_3   0.964299 0.604979 0.449799 -0.241004
C3    C     C_3   0.038544 0.513957 0.369074 0.355112
C4    C     C_3   0.122670 0.498341 0.497201 -0.129781
C5    C     C_R   0.515432 0.105518 0.767947 -0.045599
C6    C     C_R   0.470622 0.040177 0.886212 -0.139891
C7    C     C_R   0.402880 0.925764 0.872829 -0.192189
C8    C     C_R   0.392713 0.870215 0.743398 0.606127
C9    C     C_R   0.451352 0.930010 0.625230 -0.003505
C10   C     C_R   0.492883 0.056505 0.633756 0.036743
C11   C     C_R   0.509307 0.127074 0.507665 -0.088419
C12   C     C_R   0.259569 0.499439 0.499184 0.872370
C13   C     C_R   0.512033 0.065684 0.380978 -0.150527
C14   C     C_R   0.499422 0.937900 0.377926 -0.205504
C15   C     C_R   0.472331 0.868700 0.499692 -0.066149
C16   C     C_R   0.647744 0.681283 0.148835 -0.167577
C17   C     C_R   0.688182 0.792885 0.088225 -0.333908
C18   C     C_R   0.679157 0.807771 0.947306 0.605548
C19   C     C_R   0.643309 0.705343 0.864399 0.236440
C20   C     C_R   0.574014 0.594649 0.925146 0.036685
C21   C     C_R   0.574135 0.590126 0.075282 0.052236
C22   C     C_R   0.425720 0.416898 0.075760 0.686018
C23   C     C_R   0.487370 0.735824 0.499191 0.851299
C24   C     C_R   0.424295 0.417357 0.928480 0.252546
C25   C     C_R   0.739960 0.495825 0.500666 0.839464
C26   C     C_3   0.035160 0.387620 0.549479 -0.220308
C27   C     C_3   0.949120 0.403446 0.420426 -0.228051
C28   C     C_3   0.876685 0.494404 0.502269 -0.109135
C29   C     C_3   0.960821 0.478552 0.630318 0.379158
C30   C     C_3   0.050055 0.589160 0.578992 -0.162518
Cu1   Cu    Cu3+1 0.499990 0.499990 0.640660 1.061776
Cu2   Cu    Cu3+1 0.500010 0.500010 0.359340 1.028523
H1    H     H_    0.905499 0.327732 0.355340 0.188552
H2    H     H_    0.361037 0.878494 0.963461 0.178304
H3    H     H_    0.511537 0.893409 0.279808 0.167665
H4    H     H_    0.672430 0.673195 0.255333 0.229939
H5    H     H_    0.732734 0.866611 0.150578 0.197901
H6    H     H_    0.066612 0.298889 0.590743 0.205109
H7    H     H_    0.092659 0.665109 0.644282 0.239331
H8    H     H_    0.932820 0.693664 0.408371 0.186673
H9    H     H_    0.526658 0.116355 0.283524 0.179123
H10   H     H_    0.570413 0.192185 0.784754 0.183812
H11   H     H_    0.485411 0.080071 0.987898 0.173646
N1    N     N_R   0.501210 0.501210 0.147910 -0.252015
N2    N     N_R   0.501250 0.501290 0.852040 -0.223163
O1    O     O_R   0.499990 0.319640 0.618810 -0.585253
O2    O     O_R   0.500000 0.319660 0.381240 -0.540158
O3    O     O_R   0.316850 0.499960 0.618770 -0.511392
O4    O     O_R   0.316860 0.499980 0.381190 -0.523139
O5    O     O_R   0.500000 0.680340 0.618760 -0.524631
O6    O     O_R   0.500010 0.680360 0.381190 -0.624138
O7    O     O_R   0.683140 0.500020 0.618810 -0.529969
O8    O     O_R   0.683150 0.500040 0.381230 -0.610798
F1    F     F_    0.318312 0.762736 0.732944 -0.667358
F2    F     F_    0.347927 0.332913 0.146814 -0.607601
F3    F     F_    0.726326 0.918114 0.891215 -0.620827
Br1   Br    Br    0.749690 0.730840 0.703238 -0.419223
Br2   Br    Br    0.300213 0.305199 0.841472 -0.382022
Br3   Br    Br    0.909443 0.448958 0.821749 -0.364532
Br4   Br    Br    0.090538 0.541200 0.177538 -0.353322

loop_
_geom_bond_atom_site_label_1
_geom_bond_atom_site_label_2
_ccdc_geom_bond_type
C4    C26   S    
C5    H10   S    
Cu2   O6    S    
C29   C30   S    
C4    C12   S    
C21   N1    A    
C9    C10   A    
C23   O6    A    
C19   C20   A    
C1    C11   S    
C18   F3    S    
Cu1   O7    S    
C12   O3    A    
C26   H6    S    
C3    Br4   S    
C15   C23   S    
C12   O4    A    
Cu2   N1    S    
C25   O7    A    
C4    C30   S    
C5    C10   A    
C17   H5    S    
C13   C14   A    
C27   H1    S    
C25   C28   S    
C11   C13   A    
C26   C27   S    
C22   F2    S    
C22   N1    A    
C5    C6    A    
C24   N2    A    
C3    C27   S    
C28   C29   S    
C7    H2    S    
C25   O8    A    
C30   H7    S    
C17   C18   A    
C6    C7    A    
C2    C3    S    
C6    H11   S    
C9    C15   A    
Cu1   O3    S    
Cu2   O4    S    
Cu2   O2    S    
C22   C24   A    
C1    O1    A    
C16   C17   A    
C10   C11   A    
Cu1   O5    S    
C3    C4    S    
C2    H8    S    
Cu2   O8    S    
C7    C8    A    
C2    C30   S    
C20   C21   A    
C26   C29   S    
C24   Br2   S    
C18   C19   A    
Cu1   N2    S    
C20   N2    A    
C8    F1    S    
C14   H3    S    
C13   H9    S    
C1    O2    A    
C23   O5    A    
C2    C28   S    
C14   C15   A    
C16   C21   A    
C19   Br1   S    
Cu1   Cu2   S    
C16   H4    S    
C29   Br3   S    
C8    C9    A    
C27   C28   S    
Cu1   O1    S    
