data_mof_unit_22152.cif
_audit_creation_date              2012-12-11T15:31:39-0500
_audit_creation_method            fapswitch 2.2
_symmetry_space_group_name_H-M    P1
_symmetry_Int_Tables_number       1
_space_group_crystal_system       triclinic
_cell_length_a                    6.943127
_cell_length_b                    14.76403
_cell_length_c                    21.330622
_cell_angle_alpha                 75.241245
_cell_angle_beta                  90.584875
_cell_angle_gamma                 89.966926
_cell_volume                      2114.30775806

loop_
_atom_site_label
_atom_site_type_symbol
_atom_type_description
_atom_site_fract_x
_atom_site_fract_y
_atom_site_fract_z
_atom_type_partial_charge
O1    O     O_R   0.648150 0.130050 0.214300 -0.538570
O2    O     O_R   0.351850 0.869950 0.785700 -0.538571
O3    O     O_R   0.320490 0.006660 0.340150 -0.543789
O4    O     O_R   0.679510 0.993340 0.659850 -0.543789
O5    O     O_R   0.146100 0.869940 0.285700 -0.541659
O6    O     O_R   0.853900 0.130060 0.714300 -0.541659
C1    C     C_R   0.489554 0.001412 0.367189 0.676397
C2    C     C_R   0.510446 0.998587 0.632811 0.676397
O7    O     O_R   0.318690 0.137980 0.218120 -0.540063
O8    O     O_R   0.681310 0.862020 0.781880 -0.540063
O9    O     O_R   0.144280 0.002190 0.162800 -0.537594
O10   O     O_R   0.855720 0.997810 0.837200 -0.537595
C3    C     C_R   0.486633 0.175540 0.205176 0.696270
C4    C     C_R   0.513367 0.824460 0.794824 0.696271
O11   O     O_R   0.649960 0.997790 0.337200 -0.539597
O12   O     O_R   0.350040 0.002210 0.662800 -0.539596
O13   O     O_3   0.479300 0.955290 0.231990 -0.370514
O14   O     O_3   0.520700 0.044710 0.768010 -0.370514
V1    V     V_3+5 0.206040 0.008290 0.253340 1.415010
V2    V     V_3+5 0.793960 0.991710 0.746660 1.415010
O15   O     O_R   0.814320 0.993320 0.159850 -0.546675
O16   O     O_R   0.185680 0.006680 0.840150 -0.546675
C5    C     C_R   0.982240 0.998428 0.132905 0.695595
C6    C     C_R   0.017760 0.001572 0.867095 0.695594
O17   O     O_R   0.816120 0.862000 0.281880 -0.541304
O18   O     O_R   0.183880 0.138000 0.718120 -0.541304
C7    C     C_R   0.985747 0.824706 0.293541 0.716461
C8    C     C_R   0.014253 0.175294 0.706458 0.716462
V3    V     V_3+5 0.705540 0.991700 0.246660 1.414947
V4    V     V_3+5 0.294460 0.008300 0.753340 1.414946
O19   O     O_3   0.982150 0.044700 0.268010 -0.369126
O20   O     O_3   0.017850 0.955300 0.731990 -0.369126
C9    C     C_R   0.999395 0.724573 0.324056 -0.035894
C10   C     C_R   0.000605 0.275427 0.675944 -0.035894
C11   C     C_R   0.101610 0.573022 0.313792 -0.164829
C12   C     C_R   0.898386 0.426978 0.686208 -0.164828
C13   C     C_R   0.049016 0.665069 0.285336 -0.225513
C14   C     C_R   0.950982 0.334931 0.714664 -0.225513
C15   C     C_R   0.992182 0.690801 0.392307 0.104853
C16   C     C_R   0.007818 0.309199 0.607693 0.104853
C17   C     C_R   0.012100 0.592408 0.420429 0.070864
C18   C     C_R   0.987900 0.407592 0.579571 0.070863
C19   C     C_R   0.089153 0.537171 0.380955 0.111577
C20   C     C_R   0.910845 0.462829 0.619045 0.111577
C21   C     C_R   0.967004 0.546709 0.486205 0.060963
C22   C     C_R   0.032997 0.453291 0.513795 0.060963
C23   C     C_R   0.149733 0.410768 0.475701 -0.199375
C24   C     C_R   0.850269 0.589233 0.524300 -0.199376
C25   C     C_R   0.163703 0.448438 0.409406 -0.199489
C26   C     C_R   0.836298 0.551562 0.590594 -0.199489
H1    H     H_    0.240064 0.409468 0.380606 0.120852
H2    H     H_    0.759936 0.590531 0.619394 0.120852
H3    H     H_    0.939158 0.308059 0.766729 0.111463
H4    H     H_    0.060839 0.691940 0.233271 0.111463
H5    H     H_    0.154390 0.530029 0.283321 0.119568
H6    H     H_    0.845605 0.469969 0.716679 0.119568
H7    H     H_    0.229586 0.347305 0.496217 0.148878
H8    H     H_    0.770418 0.652696 0.503784 0.148878
C27   C     C_3   0.914357 0.924353 0.990509 0.211570
C28   C     C_3   0.085643 0.075647 0.009491 0.211570
C29   C     C_3   0.089608 0.922757 0.036003 -0.185190
C30   C     C_3   0.910392 0.077242 0.963997 -0.185190
H9    H     H_    0.161787 0.858782 0.065701 0.110406
H10   H     H_    0.838213 0.141218 0.934299 0.110406
C31   C     C_3   0.990321 0.998916 0.062412 -0.048166
C32   C     C_3   0.009679 0.001084 0.937588 -0.048166
C33   C     C_3   0.813795 0.999512 0.017567 -0.158882
C34   C     C_3   0.186205 0.000488 0.982433 -0.158882
H11   H     H_    0.660617 0.998295 0.032185 0.118055
H12   H     H_    0.339382 0.001705 0.967815 0.118055
C35   C     C_3   0.681768 0.001213 0.478686 -0.113464
C36   C     C_3   0.318232 0.998787 0.521314 -0.113464
C37   C     C_3   0.589666 0.076895 0.507742 -0.146143
C38   C     C_3   0.410333 0.923105 0.492258 -0.146143
H13   H     H_    0.662113 0.140917 0.514080 0.105698
H14   H     H_    0.337887 0.859083 0.485920 0.105698
H15   H     H_    0.831765 0.002162 0.460966 0.112410
H16   H     H_    0.168235 0.997838 0.539034 0.112410
C39   C     C_3   0.502044 0.999182 0.562205 -0.005979
C40   C     C_3   0.497956 0.000818 0.437795 -0.005979
C41   C     C_3   0.594199 0.923510 0.533940 -0.141403
C42   C     C_3   0.405800 0.076490 0.466060 -0.141403
H17   H     H_    0.671595 0.860216 0.562297 0.100884
H18   H     H_    0.328405 0.139784 0.437703 0.100884
C43   C     C_R   0.491935 0.277004 0.177505 -0.033363
C44   C     C_R   0.508065 0.722996 0.822495 -0.033363
C45   C     C_R   0.456370 0.433834 0.190346 -0.161558
C46   C     C_R   0.543628 0.566166 0.809654 -0.161558
C47   C     C_R   0.464463 0.337574 0.217272 -0.172389
C48   C     C_R   0.535536 0.662426 0.782728 -0.172388
C49   C     C_R   0.510462 0.312835 0.110428 -0.215137
C50   C     C_R   0.489538 0.687165 0.889571 -0.215137
C51   C     C_R   0.497767 0.410505 0.081398 0.086084
C52   C     C_R   0.502233 0.589495 0.918602 0.086084
C53   C     C_R   0.471118 0.470646 0.123045 0.142864
C54   C     C_R   0.528881 0.529354 0.876955 0.142864
C55   C     C_R   0.508048 0.450277 0.012779 0.060882
C56   C     C_R   0.491952 0.549723 0.987221 0.060882
C57   C     C_R   0.467049 0.606028 0.031130 -0.191214
C58   C     C_R   0.532950 0.393972 0.968870 -0.191214
C59   C     C_R   0.457156 0.567105 0.097445 -0.205870
C60   C     C_R   0.542843 0.432895 0.902555 -0.205871
H19   H     H_    0.437018 0.613262 0.129103 0.120369
H20   H     H_    0.562981 0.386737 0.870897 0.120369
H21   H     H_    0.469676 0.737790 0.917426 0.095363
H22   H     H_    0.530325 0.262210 0.082574 0.095363
H23   H     H_    0.551727 0.689790 0.730873 0.099412
H24   H     H_    0.448272 0.310210 0.269127 0.099412
H25   H     H_    0.435748 0.479661 0.222158 0.109521
H26   H     H_    0.564250 0.520338 0.777842 0.109521
H27   H     H_    0.453937 0.681081 0.016024 0.123916
H28   H     H_    0.546061 0.318918 0.983976 0.123916
C61   C     C_3   0.997996 0.237870 0.567353 -0.826795
H29   H     H_    0.939212 0.268063 0.517942 0.212498
H30   H     H_    0.141944 0.205929 0.565386 0.203858
H31   H     H_    0.895806 0.180987 0.588785 0.206947
C62   C     C_3   0.002006 0.762131 0.432647 -0.826797
H32   H     H_    0.858059 0.794072 0.434614 0.203858
H33   H     H_    0.060792 0.731937 0.482058 0.212499
H34   H     H_    0.104197 0.819013 0.411215 0.206947
C63   C     C_3   0.815141 0.837622 0.979840 -0.805758
H35   H     H_    0.761860 0.794076 0.026750 0.206857
H36   H     H_    0.691589 0.858918 0.945848 0.203865
H37   H     H_    0.918491 0.796089 0.959067 0.210145
C64   C     C_3   0.184859 0.162377 0.020160 -0.805759
H38   H     H_    0.238139 0.205924 0.973249 0.206857
H39   H     H_    0.081509 0.203911 0.040933 0.210145
H40   H     H_    0.308411 0.141082 0.054152 0.203865

loop_
_geom_bond_atom_site_label_1
_geom_bond_atom_site_label_2
_ccdc_geom_bond_type
C27   C63   S    
C32   C34   S    
C46   C54   A    
C54   C60   A    
O13   V3    S    
O4    C2    A    
V1    O19   S    
C55   C56   A    
C43   C49   A    
C23   C25   A    
C21   C22   A    
C7    C9    S    
O9    V1    S    
C9    C15   A    
C38   H14   S    
C30   C33   S    
C10   C16   A    
C28   C64   S    
C11   C13   A    
C48   H23   S    
C36   C39   S    
O3    C1    A    
C62   H33   S    
C27   C32   S    
C23   H7    S    
C52   C56   A    
O12   V4    S    
C28   C30   S    
C18   C22   A    
C29   H9    S    
O7    C3    A    
C63   H37   S    
C36   H16   S    
C27   C33   S    
O5    C7    A    
O7    V1    S    
O6    C8    A    
O8    V2    S    
C31   C33   S    
C45   C53   A    
C2    C39   S    
C26   H2    S    
O3    V1    S    
O14   V4    S    
C11   C19   A    
C30   H10   S    
C6    C32   S    
C61   H31   S    
C46   H26   S    
C2    O12   A    
C24   C26   A    
C8    C10   S    
C59   H19   S    
C38   C40   S    
C17   C19   A    
C49   H22   S    
C18   C20   A    
O1    V3    S    
C35   C40   S    
C41   H17   S    
O11   V3    S    
O17   V3    S    
C27   C29   S    
C30   C32   S    
C11   H5    S    
C4    C44   S    
C36   C38   S    
C44   C48   A    
C62   H34   S    
C39   C41   S    
C43   C47   A    
C19   C25   A    
C1    O11   A    
C25   H1    S    
C15   C62   S    
O15   V3    S    
C9    C13   A    
C33   H11   S    
C52   C54   A    
C12   H6    S    
C49   C51   A    
C16   C61   S    
C57   H27   S    
O10   V2    S    
C58   C60   A    
C37   C39   S    
C60   H20   S    
C28   C34   S    
C63   H35   S    
C45   H25   S    
C13   H4    S    
C40   C42   S    
C57   C59   A    
C46   C48   A    
C28   C31   S    
C58   H28   S    
C42   H18   S    
O15   C5    A    
O8    C4    A    
C64   H38   S    
O16   C6    A    
C12   C20   A    
O1    C3    A    
C37   H13   S    
C38   C41   S    
C12   C14   A    
C51   C55   A    
C37   C42   S    
C35   H15   S    
C55   C58   A    
C35   C37   S    
C61   H29   S    
V2    O20   S    
C21   C24   A    
C20   C26   A    
C22   C23   A    
O16   V4    S    
C10   C14   A    
C16   C18   A    
C24   H8    S    
O5    V1    S    
O17   C7    A    
O6    V2    S    
O10   C6    A    
O18   C8    A    
O2    V4    S    
C5    C31   S    
C45   C47   A    
V3    O19   S    
C44   C50   A    
C62   H32   S    
V4    O20   S    
C29   C34   S    
C50   C52   A    
C14   H3    S    
C64   H40   S    
C47   H24   S    
O9    C5    A    
O13   V1    S    
O14   V2    S    
O2    C4    A    
C63   H36   S    
O4    V2    S    
C29   C31   S    
C50   H21   S    
C15   C17   A    
C51   C53   A    
C56   C57   A    
C3    C43   S    
C64   H39   S    
C34   H12   S    
C17   C21   A    
C61   H30   S    
C36   C42   S    
C53   C59   A    
C1    C40   S    
C35   C41   S    
O18   V4    S    
