data_mof_unit_11358.cif
_audit_creation_date              2012-12-11T17:00:26-0500
_audit_creation_method            fapswitch 2.2
_symmetry_space_group_name_H-M    P1
_symmetry_Int_Tables_number       1
_space_group_crystal_system       triclinic
_cell_length_a                    6.951669
_cell_length_b                    13.578758
_cell_length_c                    20.266693
_cell_angle_alpha                 103.166506
_cell_angle_beta                  90.128203
_cell_angle_gamma                 90.429124
_cell_volume                      1862.71710519

loop_
_atom_site_label
_atom_site_type_symbol
_atom_type_description
_atom_site_fract_x
_atom_site_fract_y
_atom_site_fract_z
_atom_type_partial_charge
O1    O     O_R   0.506770 0.599700 0.449550 -0.542307
O2    O     O_R   0.179980 0.595740 0.587960 -0.547776
O3    O     O_R   0.004580 0.400300 0.550450 -0.544524
C1    C     C_R   0.348193 0.616923 0.615380 0.685131
O4    O     O_R   0.177380 0.611700 0.452380 -0.528078
O5    O     O_R   0.001970 0.416370 0.413900 -0.541447
C2    C     C_R   0.346859 0.638521 0.435876 0.695372
O6    O     O_R   0.509390 0.583630 0.586100 -0.541736
O7    O     O_3   0.337530 0.435890 0.487530 -0.373217
V1    V     V_3+5 0.064660 0.511890 0.502310 1.451242
O8    O     O_R   0.671950 0.404260 0.412040 -0.536519
C3    C     C_R   0.840708 0.380324 0.385684 0.706388
O9    O     O_R   0.674540 0.388300 0.547620 -0.540768
C4    C     C_R   0.843630 0.361969 0.564443 0.685224
V2    V     V_3+5 0.564030 0.488110 0.497690 1.443874
O10   O     O_3   0.841030 0.564110 0.512470 -0.370276
C5    C     C_R   0.979463 0.120368 0.610337 -0.031475
H1    H     H_    0.949284 0.170579 0.517494 0.104802
C6    C     C_R   0.858333 0.283886 0.603156 -0.041375
C7    C     C_R   0.767149 0.305834 0.926197 -0.150430
C8    C     C_R   0.721484 0.376777 0.889242 -0.123288
C9    C     C_R   0.757211 0.357114 0.819959 -0.159517
C10   C     C_R   0.845766 0.265923 0.785757 0.089762
C11   C     C_R   0.900461 0.195665 0.824811 0.061432
C12   C     C_R   0.877347 0.241472 0.714088 0.065917
C13   C     C_R   0.965966 0.147688 0.682574 0.043905
C14   C     C_R   0.041258 0.086498 0.724486 -0.069389
C15   C     C_R   0.000650 0.108260 0.793536 -0.244456
C16   C     C_R   0.827019 0.308664 0.672803 -0.206817
C17   C     C_R   0.929825 0.189599 0.572054 -0.177025
C18   C     C_R   0.855235 0.215103 0.894896 -0.088415
H2    H     H_    0.771852 0.383202 0.693258 0.092714
H3    H     H_    0.730623 0.320988 0.979441 0.166789
H4    H     H_    0.711661 0.414940 0.794990 0.106893
H5    H     H_    0.652871 0.446668 0.914168 0.125286
H6    H     H_    0.055563 0.057771 0.823380 0.124861
C19   C     C_R   0.733245 0.262568 0.201104 0.163298
C20   C     C_R   0.867855 0.185049 0.183599 -0.182486
C21   C     C_R   0.005197 0.175623 0.232962 -0.178843
H7    H     H_    0.112039 0.116682 0.220114 0.160355
C22   C     C_R   0.995098 0.234882 0.300356 -0.016485
C23   C     C_R   0.851724 0.310947 0.317609 -0.167213
C24   C     C_R   0.727700 0.324837 0.265907 0.110621
C25   C     C_3   0.513226 0.330308 0.265169 -0.464987
C26   C     C_3   0.518333 0.260106 0.194802 -0.180230
H8    H     H_    0.463186 0.408341 0.266357 0.171110
H9    H     H_    0.446570 0.295168 0.303942 0.210390
H10   H     H_    0.455278 0.184011 0.193024 0.122039
C27   C     C_R   0.502539 0.679105 0.730077 0.091465
C28   C     C_R   0.350554 0.681036 0.685173 -0.097632
C29   C     C_R   0.190803 0.741259 0.710444 -0.130179
H11   H     H_    0.069903 0.745203 0.677663 0.140105
C30   C     C_R   0.192359 0.803974 0.776179 -0.158100
H12   H     H_    0.073519 0.854518 0.791914 0.124112
C31   C     C_R   0.354066 0.808754 0.818502 -0.104971
C32   C     C_R   0.504756 0.741920 0.794973 0.101234
C33   C     C_3   0.713936 0.763832 0.790879 -0.397940
C34   C     C_3   0.711316 0.695230 0.720334 -0.406898
H13   H     H_    0.799801 0.733286 0.827928 0.168913
H14   H     H_    0.741671 0.844601 0.790929 0.176538
H15   H     H_    0.795148 0.624756 0.716513 0.162476
H16   H     H_    0.737655 0.736045 0.679435 0.183987
C35   C     C_R   0.473975 0.881802 0.385992 -0.113421
H17   H     H_    0.514117 0.004569 0.302857 0.165227
H18   H     H_    0.529448 0.956693 0.408909 0.160906
C36   C     C_R   0.362015 0.716888 0.396562 -0.153977
C37   C     C_R   0.327300 0.683297 0.068838 -0.176859
C38   C     C_R   0.327699 0.606458 0.103850 -0.098104
C39   C     C_R   0.347135 0.629353 0.174149 -0.127842
C40   C     C_R   0.359538 0.730808 0.211770 0.070887
C41   C     C_R   0.379134 0.807995 0.174872 0.065219
C42   C     C_R   0.368626 0.757614 0.284408 0.029503
C43   C     C_R   0.436158 0.856026 0.316301 0.085612
C44   C     C_R   0.464880 0.929073 0.278587 -0.136745
C45   C     C_R   0.428088 0.906927 0.209544 -0.191284
C46   C     C_R   0.312125 0.692262 0.327057 -0.096649
C47   C     C_R   0.445706 0.811781 0.426137 -0.042022
C48   C     C_R   0.356446 0.783668 0.103527 -0.072769
H19   H     H_    0.311532 0.664139 0.014180 0.103316
H20   H     H_    0.363127 0.565985 0.197410 0.125211
H21   H     H_    0.315946 0.528352 0.076255 0.141410
H22   H     H_    0.447340 0.967193 0.183131 0.115722
O11   O     O_R   0.203450 0.916320 0.913910 -0.547354
O12   O     O_R   0.535520 0.888300 0.047620 -0.543308
O13   O     O_R   0.710860 0.083650 0.086100 -0.535168
C49   C     C_R   0.366446 0.861479 0.064086 0.682237
O14   O     O_R   0.532860 0.904250 0.912040 -0.542680
O15   O     O_R   0.708190 0.099710 0.949550 -0.528933
C50   C     C_R   0.364028 0.881769 0.885071 0.689647
O16   O     O_R   0.206120 0.900260 0.050460 -0.539803
O17   O     O_3   0.375280 0.064080 0.012470 -0.363687
V3    V     V_3+5 0.648180 0.988110 0.997690 1.443170
O18   O     O_R   0.038220 0.111740 0.952370 -0.543599
C51   C     C_R   0.869411 0.136743 0.934216 0.704531
O19   O     O_R   0.040880 0.095790 0.087940 -0.548674
C52   C     C_R   0.872720 0.117021 0.115242 0.729872
V4    V     V_3+5 0.148800 0.011950 0.002300 1.425952
O20   O     O_3   0.871820 0.935920 0.987530 -0.375913
C53   C     C_2   0.120908 0.208469 0.353102 0.340098
H23   H     H_    0.097994 0.241281 0.406404 0.058508
O21   O     O_2   0.249988 0.147151 0.337769 -0.556988
C54   C     C_2   0.441104 0.308612 0.140501 0.404469
H24   H     H_    0.289137 0.326156 0.140064 0.056858
O22   O     O_2   0.545741 0.327772 0.096689 -0.549629
C55   C     C_1   0.182883 0.009263 0.700613 0.299407
N1    N     N_1   0.298779 0.948844 0.681440 -0.328961
C56   C     C_2   0.497626 0.840019 0.499394 0.454973
H25   H     H_    0.466641 0.789207 0.532336 0.029373
O23   O     O_2   0.575238 0.921050 0.524153 -0.523462
C57   C     C_1   0.184664 0.606249 0.303288 0.283557
N2    N     N_1   0.082374 0.537793 0.284756 -0.369388
C58   C     C_1   0.031842 0.020567 0.572546 0.383688
N3    N     N_1   0.072350 0.940738 0.541827 -0.333566

loop_
_geom_bond_atom_site_label_1
_geom_bond_atom_site_label_2
_ccdc_geom_bond_type
C34   H16   S    
C31   C32   A    
C35   H18   S    
O18   C51   A    
C43   C44   A    
O19   C52   A    
C42   C46   A    
V4    O20   S    
V3    O20   S    
C21   C22   A    
C30   H12   S    
C13   C14   A    
C38   H21   S    
C8    C9    A    
O12   C49   A    
C16   H2    S    
O5    C3    A    
C20   C21   A    
O13   C52   A    
C33   H13   S    
C14   C55   S    
V2    O10   S    
C32   C33   S    
C22   C23   A    
C57   N2    T    
C3    C23   S    
O8    V2    S    
O15   V3    S    
C38   C39   A    
C10   C11   A    
C22   C53   S    
C40   C41   A    
H1    C17   S    
O7    V1    S    
O16   V4    S    
C25   H9    S    
C1    O6    A    
C48   C49   S    
C34   H15   S    
O14   V3    S    
C5    C17   A    
C56   O23   D    
C39   C40   A    
C37   C48   A    
O11   C50   A    
C58   N3    T    
O13   V3    S    
C25   H8    S    
C30   C31   A    
C12   C16   A    
C9    H4    S    
O15   C51   A    
C44   C45   A    
C29   H11   S    
C47   C56   S    
C37   H19   S    
C49   O16   A    
O17   V3    S    
O4    C2    A    
C33   H14   S    
C35   C43   A    
C12   C13   A    
C27   C34   S    
C37   C38   A    
C1    C28   S    
C29   C30   A    
C19   C24   A    
O2    C1    A    
C24   C25   S    
C19   C20   A    
C53   H23   S    
C56   H25   S    
C36   C46   A    
C28   C29   A    
O17   V4    S    
C54   O22   D    
O3    C4    A    
O1    V2    S    
C7    H3    S    
C53   O21   D    
O6    V2    S    
O14   C50   A    
C23   C24   A    
C5    C13   A    
C19   C26   S    
O2    V1    S    
C5    C58   S    
O18   V4    S    
C21   H7    S    
C25   C26   S    
C35   C47   A    
C26   H10   S    
C36   C47   A    
O1    C2    A    
C4    C6    S    
C11   C15   A    
C42   C43   A    
O5    V1    S    
O8    C3    A    
O19   V4    S    
C45   H22   S    
C8    H5    S    
C18   C51   S    
C55   N1    T    
O9    V2    S    
O7    V2    S    
C11   C18   A    
O4    V1    S    
C31   C50   S    
C27   C32   A    
V1    O10   S    
C2    C36   S    
C41   C45   A    
C33   C34   S    
C10   C12   A    
C54   H24   S    
C26   C54   S    
C7    C8    A    
C15   H6    S    
C46   C57   S    
C27   C28   A    
O11   V4    S    
C20   C52   S    
C14   C15   A    
O3    V1    S    
H17   C44   S    
C9    C10   A    
C39   H20   S    
C40   C42   A    
O12   V3    S    
O9    C4    A    
C6    C17   A    
C41   C48   A    
C7    C18   A    
C6    C16   A    
