data_mof_unit_9827.cif
_audit_creation_date              2012-12-11T15:39:13-0500
_audit_creation_method            fapswitch 2.2
_symmetry_space_group_name_H-M    P1
_symmetry_Int_Tables_number       1
_space_group_crystal_system       triclinic
_cell_length_a                    14.297471
_cell_length_b                    14.751536
_cell_length_c                    33.263133
_cell_angle_alpha                 97.576639
_cell_angle_beta                  90.347252
_cell_angle_gamma                 118.810858
_cell_volume                      6073.83837182

loop_
_atom_site_label
_atom_site_type_symbol
_atom_type_description
_atom_site_fract_x
_atom_site_fract_y
_atom_site_fract_z
_atom_type_partial_charge
C1    C     C_R   0.617257 0.909490 0.437193 0.543505
C2    C     C_R   0.736504 0.384048 0.179997 0.071859
C3    C     C_R   0.721584 0.888394 0.653212 -0.124523
C4    C     C_R   0.631274 0.802643 0.664074 0.033854
C5    C     C_R   0.631740 0.859211 0.586623 -0.020570
C6    C     C_R   0.051009 0.780425 0.064515 0.591013
C7    C     C_R   0.743544 0.485739 0.065807 0.548625
C8    C     C_R   0.742954 0.789426 0.066549 0.578402
C9    C     C_R   0.021228 0.732351 0.947027 0.557762
C10   C     C_R   0.712146 0.436522 0.949431 0.575400
C11   C     C_R   0.709797 0.740830 0.950572 0.571634
C12   C     C_R   0.802304 0.371349 0.151042 0.267665
C13   C     C_R   0.800594 0.399958 0.112708 -0.099883
C14   C     C_R   0.700348 0.264431 0.231513 0.276151
C15   C     C_R   0.693029 0.250184 0.272429 0.286251
C16   C     C_R   0.724898 0.337666 0.303000 0.068726
C17   C     C_R   0.773763 0.438766 0.293186 -0.091248
C18   C     C_R   0.784171 0.452982 0.252749 -0.146224
C19   C     C_R   0.744504 0.366252 0.221804 0.030669
C20   C     C_R   0.590229 0.288826 0.353550 0.268454
C21   C     C_R   0.593323 0.204435 0.455896 0.585907
C22   C     C_R   0.558678 0.262983 0.392107 0.175140
C23   C     C_R   0.740803 0.301148 0.412052 0.240607
C24   C     C_R   0.773359 0.335808 0.374616 0.183517
C25   C     C_R   0.696642 0.322313 0.344688 -0.015073
C26   C     C_R   0.631951 0.261364 0.420667 -0.048967
C27   C     C_R   0.253730 0.884754 0.392440 -0.049905
C28   C     C_R   0.203048 0.942502 0.383214 0.273837
C29   C     C_R   0.191178 0.956001 0.342661 0.228048
C30   C     C_R   0.228886 0.911342 0.311370 -0.027035
C31   C     C_R   0.274055 0.849565 0.320402 0.202847
C32   C     C_R   0.295594 0.893237 0.434391 0.579614
C33   C     C_R   0.285690 0.836322 0.360508 -0.136270
C34   C     C_R   0.135904 0.787094 0.173273 0.250510
C35   C     C_R   0.109361 0.754861 0.131443 0.213916
C36   C     C_R   0.148025 0.931529 0.123329 0.226523
C37   C     C_R   0.182539 0.964942 0.165224 0.219909
C38   C     C_R   0.174277 0.891838 0.190092 -0.046092
C39   C     C_1   0.200024 0.917663 0.233504 0.119536
C40   C     C_1   0.215197 0.921613 0.269503 0.102779
C41   C     C_R   0.107497 0.824877 0.106219 -0.053611
C42   C     C_R   0.639673 0.873805 0.396518 -0.022679
C43   C     C_R   0.614022 0.903934 0.551491 0.562192
C44   C     C_R   0.559201 0.785570 0.370613 0.249644
C45   C     C_R   0.572766 0.771189 0.329089 -0.102134
C46   C     C_R   0.667035 0.840243 0.313507 -0.019885
C47   C     C_R   0.751702 0.920682 0.339763 0.218889
C48   C     C_R   0.737872 0.936878 0.381043 -0.134408
C49   C     C_R   0.790186 0.895482 0.178242 0.234102
C50   C     C_R   0.803717 0.893618 0.136447 0.208717
C51   C     C_R   0.615752 0.761112 0.121438 0.192484
C52   C     C_R   0.602037 0.764687 0.163305 0.262945
C53   C     C_R   0.689700 0.831171 0.191501 -0.031517
C54   C     C_R   0.588616 0.198443 0.571202 0.558562
C55   C     C_1   0.678441 0.831584 0.234320 0.093492
C56   C     C_1   0.672469 0.833589 0.270348 0.057043
C57   C     C_R   0.718674 0.819694 0.107837 -0.055266
C58   C     C_R   0.617537 0.246167 0.614673 -0.061229
C59   C     C_R   0.538141 0.247721 0.639773 0.269579
C60   C     C_R   0.557326 0.265913 0.682145 0.188229
C61   C     C_R   0.657521 0.290430 0.699858 -0.011480
C62   C     C_R   0.739972 0.299627 0.675111 0.206491
C63   C     C_R   0.719361 0.276410 0.632752 -0.151180
C64   C     C_R   0.773566 0.353092 0.846258 -0.127442
C65   C     C_R   0.288036 0.885877 0.548465 0.573557
C66   C     C_R   0.780387 0.380150 0.888228 -0.158431
C67   C     C_R   0.591410 0.329934 0.885403 0.256682
C68   C     C_R   0.586129 0.307619 0.842664 0.301460
C69   C     C_R   0.678124 0.320753 0.823315 0.007295
C70   C     C_1   0.676883 0.309062 0.779794 0.084705
C71   C     C_1   0.671993 0.301337 0.743341 0.111590
C72   C     C_R   0.691463 0.375001 0.908165 -0.013216
C73   C     C_R   0.067158 0.758533 0.907697 -0.022342
C74   C     C_R   0.068583 0.845111 0.893669 -0.167004
C75   C     C_R   0.083802 0.859375 0.853523 -0.121866
C76   C     C_R   0.734623 0.441602 0.103379 -0.057404
C77   C     C_R   0.101507 0.789768 0.826441 0.067565
C78   C     C_R   0.110726 0.708128 0.840561 0.288002
C79   C     C_R   0.094765 0.692903 0.881484 0.287542
C80   C     C_R   0.189531 0.890385 0.770796 0.215357
C81   C     C_R   0.195437 0.900111 0.729342 0.242888
C82   C     C_R   0.110474 0.826258 0.700908 -0.005940
C83   C     C_R   0.019814 0.743686 0.714123 0.280147
C84   C     C_R   0.017304 0.730570 0.755161 0.256504
C85   C     C_R   0.104364 0.801645 0.783146 -0.015584
C86   C     C_R   0.145061 0.916263 0.639582 0.256285
C87   C     C_R   0.666009 0.449515 0.131768 -0.124442
C88   C     C_R   0.192709 0.931608 0.602851 -0.130682
C89   C     C_R   0.181984 0.760668 0.596870 0.235372
C90   C     C_R   0.141705 0.748491 0.635206 0.265484
C91   C     C_R   0.125983 0.827865 0.657210 0.043545
C92   C     C_R   0.217435 0.857344 0.582275 -0.077874
C93   C     C_R   0.658068 0.750524 0.913834 -0.074704
C94   C     C_R   0.577492 0.661188 0.888708 0.218996
C95   C     C_R   0.552843 0.668002 0.848623 0.227313
C96   C     C_R   0.610961 0.763502 0.833416 -0.014414
C97   C     C_R   0.682418 0.854610 0.859908 0.254271
C98   C     C_R   0.665713 0.420007 0.169830 0.224030
C99   C     C_R   0.701043 0.849190 0.900516 0.223965
C100  C     C_R   0.571066 0.829939 0.773980 0.302445
C101  C     C_R   0.585667 0.846372 0.733141 0.249347
C102  C     C_R   0.621469 0.788067 0.707038 0.050769
C103  C     C_R   0.645198 0.715408 0.721465 0.248638
C104  C     C_R   0.641417 0.708647 0.763293 -0.128477
C105  C     C_R   0.605786 0.766201 0.789362 0.005623
C106  C     C_R   0.546018 0.736989 0.635059 0.309926
C107  C     C_R   0.548951 0.761518 0.595495 0.233393
C108  C     C_R   0.721324 0.919944 0.615149 0.220819
Cr1   Cr    Cr6+3 0.424820 0.846020 0.489780 1.118180
Cr2   Cr    Cr6+3 0.657880 0.078580 0.505700 1.055314
Cr3   Cr    Cr6+3 0.417280 0.075360 0.504550 1.130533
Cr4   Cr    Cr6+3 0.903360 0.812540 0.006510 1.108434
Cr5   Cr    Cr6+3 0.914630 0.587050 0.006280 1.050938
Cr6   Cr    Cr6+3 0.673560 0.582680 0.008540 1.112977
H1    H     H_    0.615522 0.482650 0.125199 0.151584
H2    H     H_    0.325908 0.793012 0.366903 0.218973
H3    H     H_    0.852292 0.391457 0.090610 0.150470
H4    H     H_    0.802141 0.002589 0.400515 0.173316
H5    H     H_    0.507737 0.708291 0.308827 0.173983
H6    H     H_    0.858075 0.412200 0.904618 0.189174
H7    H     H_    0.844599 0.363110 0.831492 0.197138
H8    H     H_    0.781736 0.278053 0.614050 0.175490
H9    H     H_    0.050503 0.898804 0.913013 0.178716
H10   H     H_    0.076269 0.922211 0.843106 0.150308
H11   H     H_    0.214516 0.004033 0.591335 0.204443
H12   H     H_    0.789397 0.934523 0.675425 0.152287
H13   H     H_    0.668752 0.660824 0.776007 0.165177
H14   H     H_    0.798644 0.506031 0.316682 0.162361
H15   H     H_    0.816976 0.531442 0.245359 0.118871
O1    O     O_R   0.318160 0.824460 0.443680 -0.486262
O2    O     O_R   0.645130 0.163230 0.552140 -0.505212
O3    O     O_R   0.498360 0.178430 0.555780 -0.463675
O4    O     O_R   0.328690 0.978040 0.538950 -0.497378
O5    O     O_3   0.499990 0.999990 0.500010 -0.293408
O6    O     O_R   0.828710 0.851830 0.052170 -0.466463
O7    O     O_R   0.005980 0.823990 0.047210 -0.440421
O8    O     O_R   0.031900 0.688850 0.050170 -0.478104
O9    O     O_R   0.830940 0.518420 0.048680 -0.491904
O10   O     O_R   0.668160 0.499860 0.053480 -0.496302
O11   O     O_R   0.689170 0.693840 0.050110 -0.467206
O12   O     O_R   0.525040 0.857250 0.449830 -0.458997
O13   O     O_R   0.803860 0.812940 0.962540 -0.467365
O14   O     O_R   0.982950 0.787950 0.964120 -0.505799
O15   O     O_R   0.007050 0.649970 0.960540 -0.476031
O16   O     O_R   0.807910 0.482370 0.965590 -0.517656
O17   O     O_R   0.643310 0.460980 0.963840 -0.426379
O18   O     O_R   0.666140 0.657800 0.967020 -0.461872
O19   O     O_3   0.830520 0.660760 0.007110 -0.285785
O20   O     O_R   0.684760 0.998800 0.456360 -0.542985
O21   O     O_R   0.647540 0.166310 0.470260 -0.482425
O22   O     O_R   0.500960 0.181750 0.467450 -0.444354
O23   O     O_R   0.331100 0.981120 0.457080 -0.442814
O24   O     O_R   0.315560 0.821140 0.532010 -0.424731
O25   O     O_R   0.522630 0.854180 0.531710 -0.467442
O26   O     O_R   0.682160 0.995480 0.544690 -0.461667
Cl1   Cl    Cl    0.425494 0.230448 0.402181 -0.479290
O27   O     O_3   0.863358 0.325346 0.159145 -0.540640
C109  C     C_3   0.967718 0.404641 0.173431 -0.100254
H16   H     H_    0.018784 0.367904 0.176323 0.167299
H17   H     H_    0.967894 0.444840 0.204126 0.132718
H18   H     H_    0.004127 0.462119 0.151958 0.146771
O28   O     O_3   0.815676 0.309833 0.441180 -0.505370
C110  C     C_3   0.846367 0.232580 0.429773 0.001517
H19   H     H_    0.783400 0.160786 0.410301 0.096385
H20   H     H_    0.863466 0.208061 0.457791 0.158229
H21   H     H_    0.921358 0.265622 0.414112 0.202645
O29   O     O_3   0.073291 0.650454 0.116499 -0.553196
C111  C     C_3   0.162936 0.637049 0.108295 -0.049580
H22   H     H_    0.213090 0.652331 0.136704 0.191744
H23   H     H_    0.212242 0.687750 0.086179 0.145848
H24   H     H_    0.134049 0.554535 0.094408 0.132399
O30   O     O_3   0.126215 0.714810 0.197914 -0.503536
C112  C     C_3   0.021743 0.668877 0.211041 -0.097576
H25   H     H_    0.961575 0.617216 0.185371 0.126874
H26   H     H_    0.000848 0.728522 0.225605 0.087204
H27   H     H_    0.017732 0.620259 0.234386 0.157467
Cl2   Cl    Cl    0.320918 0.790321 0.282188 -0.521505
Cl3   Cl    Cl    0.153559 0.997743 0.422088 -0.427108
Cl4   Cl    Cl    0.231977 0.097123 0.186934 -0.550269
Cl5   Cl    Cl    0.158747 0.024768 0.092729 -0.488542
Cl6   Cl    Cl    0.131242 0.030832 0.331151 -0.435234
O31   O     O_3   0.904346 0.955887 0.124228 -0.509220
C113  C     C_3   0.914281 0.054393 0.120865 0.003195
H28   H     H_    0.909167 0.094900 0.150786 0.178499
H29   H     H_    0.852920 0.047143 0.097984 0.115736
H30   H     H_    0.994131 0.104246 0.110358 0.189263
O32   O     O_3   0.875892 0.962193 0.206178 -0.504313
C114  C     C_3   0.932712 0.909936 0.214619 -0.024584
H31   H     H_    0.961031 0.884237 0.186556 0.120228
H32   H     H_    0.883273 0.841617 0.230157 0.101378
H33   H     H_    0.004345 0.964938 0.235473 0.221211
Cl7   Cl    Cl    0.872964 0.007546 0.321362 -0.517130
O33   O     O_3   0.462322 0.719405 0.384464 -0.544930
C115  C     C_3   0.469634 0.634916 0.396627 -0.063777
H34   H     H_    0.483679 0.588610 0.370501 0.141552
H35   H     H_    0.533431 0.662249 0.421756 0.107156
H36   H     H_    0.392467 0.582066 0.408261 0.173568
O34   O     O_3   0.501987 0.704936 0.176637 -0.494921
C116  C     C_3   0.490795 0.606790 0.181741 -0.064276
H37   H     H_    0.551642 0.615051 0.205070 0.122144
H38   H     H_    0.495499 0.563412 0.152502 0.152076
H39   H     H_    0.410723 0.558943 0.192520 0.167754
Cl8   Cl    Cl    0.502165 0.682748 0.086692 -0.578701
Cl9   Cl    Cl    0.910112 0.394825 0.364936 -0.554776
Cl10  Cl    Cl    0.868142 0.334695 0.696387 -0.529969
O35   O     O_3   0.436764 0.218873 0.623410 -0.486736
C117  C     C_3   0.434010 0.310396 0.617338 -0.055618
H40   H     H_    0.495155 0.355142 0.596724 0.099071
H41   H     H_    0.445093 0.361163 0.646771 0.124902
H42   H     H_    0.354177 0.287492 0.602769 0.163015
O36   O     O_3   0.490629 0.271373 0.819701 -0.566007
C118  C     C_3   0.479307 0.358080 0.812868 -0.034622
H43   H     H_    0.545481 0.411184 0.795814 0.151557
H44   H     H_    0.474769 0.402233 0.841828 0.219270
H45   H     H_    0.403016 0.329105 0.794218 0.184914
Cl11  Cl    Cl    0.471954 0.300588 0.909128 -0.559438
Cl12  Cl    Cl    0.451429 0.251222 0.712565 -0.576536
O37   O     O_3   0.096736 0.608501 0.894373 -0.513821
C119  C     C_3   0.200090 0.643256 0.912544 -0.085500
H46   H     H_    0.218799 0.702327 0.940216 0.115305
H47   H     H_    0.262397 0.675818 0.890703 0.117046
H48   H     H_    0.203016 0.575344 0.922095 0.142427
O38   O     O_3   0.115116 0.656973 0.650660 -0.471496
C120  C     C_3   0.206156 0.667241 0.672073 -0.027536
H49   H     H_    0.281363 0.708180 0.656737 0.155051
H50   H     H_    0.193469 0.587763 0.674242 0.205038
H51   H     H_    0.215562 0.707751 0.703606 0.094470
O39   O     O_3   0.641170 0.150060 0.282184 -0.571041
C121  C     C_3   0.718153 0.119142 0.289149 -0.040986
H52   H     H_    0.776408 0.170676 0.315346 0.155489
H53   H     H_    0.760853 0.117060 0.261460 0.199360
H54   H     H_    0.676128 0.038785 0.296842 0.170060
O40   O     O_3   0.282087 0.985746 0.717317 -0.493900
C122  C     C_3   0.358243 0.958135 0.701859 -0.040016
H55   H     H_    0.353118 0.950244 0.668190 0.126102
H56   H     H_    0.350761 0.885032 0.710786 0.085953
H57   H     H_    0.439187 0.022809 0.713251 0.188280
O41   O     O_3   0.270874 0.962940 0.799367 -0.582085
C123  C     C_3   0.269014 0.058644 0.804346 -0.017304
H58   H     H_    0.186552 0.048479 0.802403 0.107157
H59   H     H_    0.316506 0.107597 0.781660 0.248885
H60   H     H_    0.306806 0.101969 0.835020 0.200247
Cl13  Cl    Cl    0.909503 0.656257 0.679148 -0.424120
Cl14  Cl    Cl    0.903480 0.626495 0.771661 -0.513813
Cl15  Cl    Cl    0.117418 0.012991 0.664279 -0.477045
Cl16  Cl    Cl    0.139418 0.622986 0.807151 -0.581108
Cl17  Cl    Cl    0.188314 0.652717 0.569338 -0.442364
O42   O     O_3   0.531041 0.564260 0.901351 -0.510718
C124  C     C_3   0.438256 0.549751 0.920600 -0.056040
H61   H     H_    0.376324 0.544584 0.898653 0.107970
H62   H     H_    0.456701 0.612931 0.946737 0.102565
H63   H     H_    0.403982 0.474603 0.932762 0.193441
Cl18  Cl    Cl    0.644514 0.153788 0.193088 -0.519092
O43   O     O_3   0.772261 0.940132 0.925677 -0.491169
C125  C     C_3   0.712850 0.974515 0.950767 -0.064538
H64   H     H_    0.665821 0.916759 0.971071 0.098364
H65   H     H_    0.659055 0.991073 0.932367 0.144310
H66   H     H_    0.769481 0.048610 0.970438 0.156041
O44   O     O_3   0.560945 0.915826 0.717881 -0.608549
C126  C     C_3   0.643659 0.018983 0.731293 -0.099541
H67   H     H_    0.724596 0.028136 0.726467 0.132483
H68   H     H_    0.638863 0.044301 0.763822 0.201912
H69   H     H_    0.633656 0.072411 0.713340 0.123658
O45   O     O_3   0.532929 0.882991 0.800446 -0.545238
C127  C     C_3   0.425193 0.851289 0.788804 -0.059174
H70   H     H_    0.383657 0.778180 0.766153 0.102561
H71   H     H_    0.422140 0.916229 0.776698 0.197982
H72   H     H_    0.379674 0.837318 0.816314 0.171421
O46   O     O_3   0.480871 0.577209 0.823480 -0.586579
C128  C     C_3   0.387718 0.582705 0.813539 -0.086978
H73   H     H_    0.397343 0.621062 0.786177 0.140393
H74   H     H_    0.364856 0.623303 0.839037 0.120776
H75   H     H_    0.320050 0.501748 0.805904 0.177540
O47   O     O_3   0.681456 0.660571 0.694671 -0.519706
C129  C     C_3   0.637763 0.555293 0.700982 -0.058096
H76   H     H_    0.551529 0.519753 0.706949 0.105351
H77   H     H_    0.684844 0.548704 0.725986 0.194773
H78   H     H_    0.643528 0.508898 0.672968 0.157621
O48   O     O_3   0.453530 0.658176 0.647392 -0.550717
C130  C     C_3   0.443228 0.559512 0.632457 -0.093065
H79   H     H_    0.521312 0.560625 0.629086 0.108286
H80   H     H_    0.393610 0.526933 0.603049 0.174517
H81   H     H_    0.400026 0.505440 0.654309 0.134560
O49   O     O_3   0.463270 0.695086 0.567537 -0.496725
C131  C     C_3   0.497119 0.640514 0.538418 -0.081726
H82   H     H_    0.529808 0.596692 0.552912 0.092249
H83   H     H_    0.557674 0.693927 0.519707 0.113168
H84   H     H_    0.426839 0.582592 0.517520 0.161819
Cl19  Cl    Cl    0.759502 0.975563 0.842250 -0.517888
O50   O     O_3   0.602787 0.435049 0.198444 -0.600831
C132  C     C_3   0.499437 0.347195 0.192144 -0.067483
H85   H     H_    0.501514 0.274022 0.195448 0.187021
H86   H     H_    0.460360 0.339365 0.161882 0.152727
H87   H     H_    0.449483 0.357950 0.215661 0.177296
O51   O     O_3   0.808635 0.008419 0.605080 -0.516925
C133  C     C_3   0.827586 0.097590 0.632923 -0.040708
H88   H     H_    0.873198 0.103437 0.661178 0.160047
H89   H     H_    0.752106 0.098616 0.640277 0.105300
H90   H     H_    0.877598 0.168294 0.618906 0.182668
O52   O     O_3   0.519086 0.289130 0.325100 -0.530615
C134  C     C_3   0.447657 0.185813 0.306044 -0.003609
H91   H     H_    0.364628 0.172806 0.307121 0.206074
H92   H     H_    0.451344 0.122549 0.319913 0.139629
H93   H     H_    0.463534 0.177505 0.273529 0.170955

loop_
_geom_bond_atom_site_label_1
_geom_bond_atom_site_label_2
_ccdc_geom_bond_type
C65   C92   S    
C115  H35   S    
C21   C26   S    
C125  H65   S    
C117  H42   S    
C35   C41   A    
C101  C102  A    
C90   O38   S    
C24   Cl9   S    
C73   C74   A    
Cr4   O13   S    
C95   C96   A    
C36   Cl5   S    
C130  H81   S    
C55   C56   T    
Cr2   O20   S    
C2    C12   A    
C120  H49   S    
C32   O1    A    
C81   C82   A    
C9    O14   A    
C3    H12   S    
Cr5   O9    S    
C22   Cl1   S    
C77   C78   A    
O42   C124  S    
C2    C98   A    
C54   O2    A    
C110  H20   S    
C107  O49   S    
C100  C105  A    
C80   C85   A    
C29   Cl6   S    
C31   Cl2   S    
C114  H33   S    
Cr4   O14   S    
C28   C29   A    
C98   O50   S    
C37   C38   A    
C130  H80   S    
Cr6   O18   S    
C34   C35   A    
C121  H54   S    
C10   O16   A    
C86   C91   A    
C113  H29   S    
C54   C58   S    
C30   C31   A    
C86   C88   A    
C112  H27   S    
C115  H36   S    
C20   C25   A    
Cr3   O5    S    
C80   O41   S    
C64   H7    S    
C83   Cl13  S    
C89   Cl17  S    
C16   C25   S    
C134  H91   S    
C18   C19   A    
C124  H61   S    
C131  H82   S    
C114  H32   S    
O47   C129  S    
C23   C26   A    
Cr5   O16   S    
C47   Cl7   S    
O31   C113  S    
C104  C105  A    
C6    O7    A    
Cr2   O26   S    
C103  C104  A    
C109  H18   S    
O30   C112  S    
C46   C47   A    
C116  H37   S    
C108  O51   S    
C111  H24   S    
C66   C72   A    
C123  H58   S    
C16   C17   A    
C124  H63   S    
C6    C41   S    
C4    C102  S    
O51   C133  S    
C116  H39   S    
C35   O29   S    
O48   C130  S    
C31   C33   A    
C1    O20   A    
O34   C116  S    
C51   C57   A    
Cr6   O11   S    
C12   O27   S    
C43   O25   A    
Cr1   O24   S    
C127  H70   S    
C93   C99   A    
C62   Cl10  S    
C87   H1    S    
O33   C115  S    
O44   C126  S    
C134  H92   S    
C23   O28   S    
C11   C93   S    
C132  H85   S    
C111  H23   S    
C74   H9    S    
C2    C19   S    
C125  H66   S    
C77   C85   S    
C59   C60   A    
C132  H87   S    
C133  H88   S    
C66   H6    S    
O46   C128  S    
Cr3   O23   S    
C8    O6    A    
O27   C109  S    
C128  H75   S    
C36   C41   A    
C61   C62   A    
C122  H56   S    
Cr4   O7    S    
C126  H69   S    
C43   O26   A    
O39   C121  S    
C97   C99   A    
C9    O15   A    
C51   Cl8   S    
C95   O46   S    
C117  H40   S    
C53   C55   S    
C73   C79   A    
C37   Cl4   S    
C124  H62   S    
C74   C75   A    
C51   C52   A    
C47   C48   A    
C88   C92   A    
C67   C72   A    
C129  H78   S    
C1    O12   A    
C84   C85   A    
Cr6   O17   S    
O38   C120  S    
C84   Cl14  S    
C120  H50   S    
C113  H30   S    
O29   C111  S    
O35   C117  S    
Cr3   O4    S    
C79   O37   S    
C48   H4    S    
C133  H90   S    
C58   C59   A    
C64   C69   A    
C4    C106  A    
C11   O18   A    
C27   C33   A    
C82   C91   S    
C75   H10   S    
C67   Cl11  S    
C60   C61   A    
C122  H57   S    
C34   C38   A    
C81   O40   S    
C67   C68   A    
C114  H31   S    
C113  H28   S    
Cr2   O2    S    
O43   C125  S    
C8    C57   S    
C119  H47   S    
C127  H71   S    
Cr3   O3    S    
C13   C76   A    
C83   C84   A    
C32   O23   A    
C118  H45   S    
C29   C30   A    
C50   O31   S    
C96   C97   A    
C110  H21   S    
C62   C63   A    
C14   C15   A    
C17   C18   A    
C44   O33   S    
C30   C40   S    
C49   O32   S    
C123  H59   S    
C93   C94   A    
C42   C48   A    
Cr6   O10   S    
C24   C25   A    
C89   C92   A    
Cr1   O25   S    
C75   C77   A    
C76   C87   A    
C127  H72   S    
C45   H5    S    
C70   C71   T    
C112  H26   S    
C10   O17   A    
C59   O35   S    
C126  H68   S    
C111  H22   S    
C129  H76   S    
C118  H44   S    
C82   C83   A    
C86   Cl15  S    
C22   C26   A    
C109  H16   S    
C128  H74   S    
Cr2   O5    S    
C52   O34   S    
C122  H55   S    
Cr4   O6    S    
C90   C91   A    
C3    C4    A    
C120  H51   S    
C39   C40   T    
C63   H8    S    
C34   O30   S    
O52   C134  S    
Cr5   O19   S    
C96   C105  S    
C117  H41   S    
O28   C110  S    
C5    C107  A    
C134  H93   S    
C65   O24   A    
C58   C63   A    
C119  H46   S    
O41   C123  S    
C36   C37   A    
C33   H2    S    
C132  H86   S    
Cr1   O5    S    
C78   C79   A    
C50   C57   A    
C14   C19   A    
C9    C73   S    
C87   C98   A    
C100  O45   S    
C44   C45   A    
C103  O47   S    
C20   C22   A    
C80   C81   A    
Cr2   O21   S    
Cr3   O22   S    
C7    O9    A    
C13   H3    S    
C14   Cl18  S    
C17   H14   S    
C7    C76   S    
C131  H84   S    
C3    C108  A    
C99   O43   S    
C54   O3    A    
C121  H52   S    
Cr5   O15   S    
C15   O39   S    
C8    O11   A    
Cr5   O8    S    
C129  H77   S    
C6    O8    A    
C52   C53   A    
O45   C127  S    
C42   C44   A    
Cr6   O19   S    
C130  H79   S    
C121  H53   S    
C60   Cl12  S    
C126  H67   S    
C119  H48   S    
C7    O10   A    
C109  H17   S    
C21   O21   A    
O37   C119  S    
C38   C39   S    
C104  H13   S    
C94   O42   S    
C49   C53   A    
C15   C16   A    
C101  O44   S    
C61   C71   S    
C133  H89   S    
C100  C101  A    
C20   O52   S    
C115  H34   S    
C123  H60   S    
C97   Cl19  S    
C21   O22   A    
C5    C43   S    
C102  C103  A    
C68   C69   A    
C11   O13   A    
C69   C70   S    
C110  H19   S    
O49   C131  S    
C27   C32   S    
C23   C24   A    
C112  H25   S    
O36   C118  S    
Cr4   O19   S    
C1    C42   S    
O32   C114  S    
C118  H43   S    
C88   H11   S    
C131  H83   S    
C49   C50   A    
C106  C107  A    
C46   C56   S    
Cr1   O1    S    
C116  H38   S    
C128  H73   S    
O50   C132  S    
C18   H15   S    
Cr1   O12   S    
C106  O48   S    
C78   Cl16  S    
C12   C13   A    
C89   C90   A    
C68   O36   S    
C28   Cl3   S    
C94   C95   A    
C65   O4    A    
C125  H64   S    
O40   C122  S    
C64   C66   A    
C45   C46   A    
C27   C28   A    
C5    C108  A    
C10   C72   S    
