data_mof_unit_25968.cif
_audit_creation_date              2012-12-10T17:31:25-0500
_audit_creation_method            fapswitch 2.2
_symmetry_space_group_name_H-M    P1
_symmetry_Int_Tables_number       1
_space_group_crystal_system       triclinic
_cell_length_a                    18.701582
_cell_length_b                    18.676647
_cell_length_c                    12.441364
_cell_angle_alpha                 90.893069
_cell_angle_beta                  130.233133
_cell_angle_gamma                 89.355305
_cell_volume                      3317.08812279

loop_
_atom_site_label
_atom_site_type_symbol
_atom_type_description
_atom_site_fract_x
_atom_site_fract_y
_atom_site_fract_z
_atom_type_partial_charge
C1    C     C_R   0.612042 0.897489 0.651453 0.761146
C2    C     C_R   0.613617 0.101103 0.654051 0.768529
C3    C     C_R   0.112042 0.397489 0.651453 0.761146
C4    C     C_R   0.113617 0.601103 0.654051 0.768529
C5    C     C_R   0.236270 0.785866 0.018216 0.073679
C6    C     C_R   0.239395 0.221939 0.028954 0.065584
C7    C     C_R   0.736270 0.285866 0.018216 0.073679
C8    C     C_R   0.739395 0.721939 0.028954 0.065584
C9    C     C_R   0.645934 0.293743 0.976293 0.133230
C10   C     C_R   0.657128 0.730500 0.011391 0.126371
C11   C     C_R   0.145934 0.793743 0.976293 0.133231
C12   C     C_R   0.157128 0.230500 0.011390 0.126371
C13   C     C_R   0.568066 0.264218 0.848975 -0.242303
C14   C     C_R   0.578195 0.763055 0.891634 -0.236401
C15   C     C_R   0.068066 0.764218 0.848975 -0.242303
C16   C     C_R   0.078194 0.263055 0.891634 -0.236401
C17   C     C_R   0.579485 0.222195 0.768288 -0.214708
C18   C     C_R   0.582125 0.792957 0.794757 -0.199073
C19   C     C_R   0.079485 0.722195 0.768288 -0.214708
C20   C     C_R   0.082125 0.292957 0.794757 -0.199074
C21   C     C_R   0.312562 0.816064 0.147318 -0.286167
C22   C     C_R   0.314263 0.183501 0.146279 -0.292665
C23   C     C_R   0.812562 0.316064 0.147318 -0.286167
C24   C     C_R   0.814263 0.683501 0.146279 -0.292666
C25   C     C_R   0.209876 0.864351 0.187222 0.158735
C26   C     C_R   0.228125 0.167770 0.229507 0.154855
C27   C     C_R   0.709876 0.364352 0.187222 0.158735
C28   C     C_R   0.728125 0.667771 0.229507 0.154854
C29   C     C_R   0.683309 0.157017 0.744482 -0.092449
C30   C     C_R   0.676541 0.837343 0.735597 -0.104084
C31   C     C_R   0.183309 0.657017 0.744482 -0.092449
C32   C     C_R   0.176541 0.337343 0.735597 -0.104084
C33   C     C_R   0.670776 0.945508 0.276343 -0.290104
C34   C     C_R   0.170776 0.445508 0.276343 -0.290104
C35   C     C_R   0.342015 0.012468 0.625148 0.075985
C36   C     C_R   0.842015 0.512468 0.625148 0.075987
C37   C     C_R   0.305478 0.021756 0.692686 -0.267536
C38   C     C_R   0.805478 0.521756 0.692686 -0.267535
C39   C     C_R   0.382813 0.099490 0.342059 0.777738
C40   C     C_R   0.380642 0.903375 0.338171 0.788448
C41   C     C_R   0.882813 0.599490 0.342059 0.777738
C42   C     C_R   0.880641 0.403375 0.338171 0.788448
C43   C     C_R   0.363045 0.015726 0.838013 -0.174472
C44   C     C_R   0.863045 0.515726 0.838013 -0.174471
C45   C     C_R   0.457497 0.996777 0.917213 -0.022771
C46   C     C_R   0.957497 0.496777 0.917213 -0.022771
C47   C     C_R   0.493955 0.989236 0.844164 0.248551
C48   C     C_R   0.993955 0.489236 0.844164 0.248551
C49   C     C_R   0.517961 0.985120 0.067040 -0.037354
C50   C     C_R   0.017961 0.485119 0.067040 -0.037354
C51   C     C_R   0.603370 0.949821 0.130621 0.086766
C52   C     C_R   0.103370 0.449821 0.130620 0.086767
C53   C     C_R   0.626899 0.927138 0.050347 -0.266869
C54   C     C_R   0.126899 0.427138 0.050347 -0.266869
C55   C     C_R   0.589518 0.964763 0.928065 0.172159
C56   C     C_R   0.089518 0.464763 0.928065 0.172158
C57   C     C_R   0.498605 0.005381 0.157607 -0.010856
C58   C     C_R   0.998605 0.505381 0.157607 -0.010856
C59   C     C_R   0.654546 0.976583 0.361302 0.376482
C60   C     C_R   0.154546 0.476583 0.361302 0.376482
C61   C     C_R   0.633882 0.331405 0.061546 -0.227438
C62   C     C_R   0.653400 0.705765 0.112654 -0.230199
C63   C     C_R   0.133882 0.831404 0.061546 -0.227438
C64   C     C_R   0.153400 0.205764 0.112654 -0.230199
C65   C     C_R   0.300504 0.857875 0.228805 -0.082193
C66   C     C_R   0.308349 0.152500 0.242627 -0.085466
C67   C     C_R   0.800504 0.357875 0.228805 -0.082194
C68   C     C_R   0.808350 0.652500 0.242627 -0.085464
C69   C     C_R   0.769826 0.153143 0.775461 -0.198935
C70   C     C_R   0.754518 0.827023 0.744460 -0.199999
C71   C     C_R   0.269826 0.653143 0.775461 -0.198934
C72   C     C_R   0.254518 0.327024 0.744460 -0.200000
C73   C     C_R   0.343383 0.697048 0.878760 -0.155721
C74   C     C_R   0.324997 0.279536 0.840803 -0.152049
C75   C     C_R   0.843383 0.197047 0.878760 -0.155721
C76   C     C_R   0.824997 0.779536 0.840802 -0.152049
C77   C     C_R   0.333465 0.742336 0.958219 -0.188261
C78   C     C_R   0.321377 0.244139 0.934722 -0.183487
C79   C     C_R   0.833465 0.242336 0.958219 -0.188262
C80   C     C_R   0.821377 0.744139 0.934722 -0.183487
C81   C     C_R   0.747398 0.246518 0.931193 0.085525
C82   C     C_R   0.743702 0.752876 0.929145 0.084708
C83   C     C_R   0.247398 0.746518 0.931193 0.085525
C84   C     C_R   0.243702 0.252876 0.929145 0.084708
C85   C     C_R   0.669290 0.208680 0.813165 0.083342
C86   C     C_R   0.666862 0.794873 0.819083 0.081136
C87   C     C_R   0.169290 0.708680 0.813165 0.083342
C88   C     C_R   0.166862 0.294873 0.819083 0.081136
Cu1   Cu    Cu3+1 0.526340 1.000000 0.421010 0.920254
Cu2   Cu    Cu3+1 0.026340 0.500000 0.421010 0.920254
Cu3   Cu    Cu3+1 0.473640 1.000000 0.578990 0.911004
Cu4   Cu    Cu3+1 0.973640 0.500000 0.578990 0.911004
H1    H     H_    0.693107 0.899203 0.103591 0.152059
H2    H     H_    0.193107 0.399203 0.103591 0.152058
H3    H     H_    0.739279 0.923101 0.324676 0.141777
H4    H     H_    0.239279 0.423101 0.324676 0.141777
H5    H     H_    0.430422 0.025194 0.114417 0.129354
H6    H     H_    0.930422 0.525194 0.114417 0.129354
H7    H     H_    0.295773 0.014342 0.513247 0.127091
H8    H     H_    0.795773 0.514342 0.513247 0.127091
H9    H     H_    0.331277 0.022310 0.885461 0.138969
H10   H     H_    0.831277 0.522311 0.885461 0.138969
H11   H     H_    0.231602 0.033022 0.631375 0.145664
H12   H     H_    0.731602 0.533022 0.631375 0.145663
H13   H     H_    0.498208 0.272126 0.813104 0.137101
H14   H     H_    0.513128 0.766112 0.873226 0.144320
H15   H     H_    0.998208 0.772126 0.813104 0.137101
H16   H     H_    0.013128 0.266112 0.873226 0.144320
H17   H     H_    0.564289 0.336309 0.028397 0.129708
H18   H     H_    0.590758 0.715605 0.099246 0.125544
H19   H     H_    0.064289 0.836309 0.028397 0.129708
H20   H     H_    0.090758 0.215604 0.099245 0.125544
H21   H     H_    0.383109 0.808918 0.186705 0.154363
H22   H     H_    0.378266 0.175900 0.164142 0.160834
H23   H     H_    0.883109 0.308918 0.186705 0.154363
H24   H     H_    0.878266 0.675900 0.164142 0.160834
H25   H     H_    0.781631 0.114420 0.722919 0.155641
H26   H     H_    0.762450 0.857058 0.679421 0.139935
H27   H     H_    0.281631 0.614420 0.722918 0.155641
H28   H     H_    0.262450 0.357059 0.679421 0.139935
H29   H     H_    0.393785 0.774137 0.038138 0.130970
H30   H     H_    0.379894 0.209713 0.008648 0.127166
H31   H     H_    0.893785 0.274137 0.038139 0.130970
H32   H     H_    0.879894 0.709713 0.008648 0.127165
H33   H     H_    0.409716 0.693859 0.901238 0.129992
H34   H     H_    0.384738 0.272055 0.846367 0.130488
H35   H     H_    0.909716 0.193859 0.901238 0.129992
H36   H     H_    0.884738 0.772055 0.846367 0.130488
H37   H     H_    0.517432 0.199775 0.671020 0.158146
H38   H     H_    0.517526 0.814260 0.700442 0.174562
H39   H     H_    0.017432 0.699775 0.671020 0.158146
H40   H     H_    0.017525 0.314260 0.700441 0.174562
N1    N     N_R   0.566260 0.000000 0.302220 -0.194108
N2    N     N_R   0.066260 0.500000 0.302220 -0.194108
N3    N     N_R   0.434410 0.000000 0.697680 -0.199150
N4    N     N_R   0.934410 0.500000 0.697680 -0.199151
O1    O     O_R   0.608610 0.924520 0.551740 -0.593365
O2    O     O_R   0.608610 0.075480 0.551740 -0.582654
O3    O     O_R   0.108610 0.424520 0.551740 -0.593365
O4    O     O_R   0.108610 0.575480 0.551740 -0.582654
O5    O     O_R   0.564110 0.924510 0.685150 -0.592822
O6    O     O_R   0.564110 0.075490 0.685150 -0.575978
O7    O     O_R   0.064110 0.424510 0.685150 -0.592822
O8    O     O_R   0.064110 0.575490 0.685150 -0.575978
O9    O     O_R   0.435880 0.075470 0.314850 -0.582250
O10   O     O_R   0.435880 0.924530 0.314850 -0.572540
O11   O     O_R   0.935880 0.575470 0.314850 -0.582251
O12   O     O_R   0.935880 0.424530 0.314850 -0.572539
O13   O     O_R   0.391380 0.075460 0.448260 -0.585780
O14   O     O_R   0.391380 0.924540 0.448260 -0.583390
O15   O     O_R   0.891380 0.575460 0.448260 -0.585781
O16   O     O_R   0.891380 0.424540 0.448260 -0.583390
C89   C     C_3   0.189619 0.908136 0.267992 -0.411141
C90   C     C_3   0.212041 0.865786 0.390657 -0.787940
H41   H     H_    0.168428 0.816615 0.350528 0.245233
H42   H     H_    0.286965 0.850073 0.465694 0.264568
H43   H     H_    0.196032 0.898939 0.447647 0.228836
H44   H     H_    0.228038 0.959401 0.303614 0.190056
H45   H     H_    0.114326 0.923380 0.198363 0.187523
C91   C     C_3   0.215697 0.142876 0.331126 -0.393012
C92   C     C_3   0.276086 0.185937 0.468894 -0.790316
H46   H     H_    0.266887 0.164895 0.542237 0.238851
H47   H     H_    0.254154 0.243050 0.448027 0.238208
H48   H     H_    0.351233 0.182936 0.520436 0.256157
H49   H     H_    0.141739 0.148880 0.286150 0.185706
H50   H     H_    0.228957 0.085163 0.346102 0.184733
C93   C     C_3   0.689619 0.408136 0.267992 -0.411142
C94   C     C_3   0.712040 0.365787 0.390656 -0.787939
H51   H     H_    0.668428 0.316616 0.350528 0.245232
H52   H     H_    0.786964 0.350074 0.465693 0.264568
H53   H     H_    0.696031 0.398940 0.447646 0.228836
H54   H     H_    0.728039 0.459401 0.303614 0.190057
H55   H     H_    0.614326 0.423380 0.198362 0.187523
C95   C     C_3   0.715697 0.642877 0.331127 -0.393010
C96   C     C_3   0.776087 0.685937 0.468895 -0.790323
H56   H     H_    0.766882 0.664898 0.542234 0.238851
H57   H     H_    0.754159 0.743051 0.448027 0.238209
H58   H     H_    0.851233 0.682932 0.520441 0.256160
H59   H     H_    0.641739 0.648880 0.286151 0.185706
H60   H     H_    0.728957 0.585163 0.346103 0.184733
C97   C     C_3   0.668079 0.005481 0.949066 -0.330417
C98   C     C_3   0.677701 0.080859 0.006313 -0.807781
H61   H     H_    0.611533 0.111160 0.932772 0.272817
H62   H     H_    0.694344 0.078190 0.109551 0.245165
H63   H     H_    0.735831 0.109191 0.022513 0.241241
H64   H     H_    0.737161 0.979138 0.028973 0.163258
H65   H     H_    0.666856 0.004428 0.860585 0.228443
C99   C     C_3   0.168079 0.505481 0.949066 -0.330415
C100  C     C_3   0.177701 0.580859 0.006313 -0.807781
H66   H     H_    0.111533 0.611160 0.932772 0.272817
H67   H     H_    0.194344 0.578190 0.109551 0.245165
H68   H     H_    0.235831 0.609191 0.022513 0.241241
H69   H     H_    0.237161 0.479138 0.028973 0.163257
H70   H     H_    0.166856 0.504428 0.860585 0.228443
C101  C     C_3   0.738140 0.985523 0.515697 -0.394547
C102  C     C_3   0.803494 0.043715 0.537898 -0.898422
H71   H     H_    0.765987 0.095825 0.498544 0.262941
H72   H     H_    0.864523 0.049417 0.651943 0.241510
H73   H     H_    0.830041 0.029676 0.482111 0.256538
H74   H     H_    0.718919 0.000125 0.579719 0.248713
H75   H     H_    0.777514 0.934321 0.556712 0.168767
C103  C     C_3   0.238140 0.485523 0.515697 -0.394547
C104  C     C_3   0.303494 0.543715 0.537898 -0.898422
H76   H     H_    0.265987 0.595825 0.498544 0.262941
H77   H     H_    0.364523 0.549417 0.651943 0.241510
H78   H     H_    0.330041 0.529675 0.482111 0.256539
H79   H     H_    0.218919 0.500125 0.579719 0.248713
H80   H     H_    0.277514 0.434321 0.556712 0.168767

loop_
_geom_bond_atom_site_label_1
_geom_bond_atom_site_label_2
_ccdc_geom_bond_type
C83   C87   A    
C104  H76   S    
C89   H45   S    
C60   N2    A    
C72   C74   A    
C14   C18   A    
C53   C55   A    
C58   H6    S    
C61   H17   S    
Cu3   N3    S    
C92   H46   S    
C97   H65   S    
C32   C72   A    
Cu4   N4    S    
C97   C98   S    
C58   N2    A    
Cu1   O9    S    
C104  H77   S    
C40   O14   A    
C18   C86   A    
C2    C29   S    
C9    C61   A    
C28   C68   A    
C34   H4    S    
C5    C11   A    
C11   C63   A    
C6    C12   A    
C40   C65   S    
Cu2   N2    S    
C73   H33   S    
C64   H20   S    
C77   C83   A    
C23   C67   A    
C6    C22   A    
C36   N4    A    
C71   C73   A    
C49   C57   A    
C96   H57   S    
C48   C56   A    
C25   C63   A    
C15   H15   S    
C89   H44   S    
C100  H67   S    
Cu4   O7    S    
C9    C13   A    
C95   C96   S    
C22   C66   A    
C38   H12   S    
C27   C61   A    
C30   C70   A    
C98   H61   S    
C11   C15   A    
C94   H53   S    
C12   C16   A    
C44   C46   A    
C49   C51   A    
C62   H18   S    
Cu4   O16   S    
C50   C52   A    
C26   C91   S    
C91   H50   S    
C30   C86   A    
C42   O16   A    
C90   H42   S    
C4    C31   S    
C93   H55   S    
Cu3   O6    S    
C21   C65   A    
C94   H52   S    
C99   H70   S    
C33   C59   A    
C103  H80   S    
C34   C60   A    
C57   N1    A    
C10   C62   A    
C20   H40   S    
C102  H73   S    
C35   H7    S    
C33   H3    S    
C28   C62   A    
C92   H47   S    
C52   C54   A    
Cu2   O3    S    
C41   C68   S    
C54   C56   A    
C45   C47   A    
C19   H39   S    
Cu1   O10   S    
C104  H78   S    
C46   C48   A    
Cu1   N1    S    
C103  C104  S    
C25   C89   S    
C2    O2    A    
C56   C99   S    
C6    C84   A    
C90   H43   S    
C21   H21   S    
C10   C14   A    
C35   N3    A    
C93   C94   S    
C79   C81   A    
C77   H29   S    
C44   H10   S    
C96   H58   S    
C59   C101  S    
C17   C85   A    
C82   C86   A    
C24   C68   A    
C79   H31   S    
C59   N1    A    
C101  C102  S    
C99   C100  S    
C51   C53   A    
C98   H63   S    
C26   C66   A    
C37   C43   A    
C100  H68   S    
C15   C19   A    
C43   H9    S    
C26   C64   A    
C38   C44   A    
Cu2   O11   S    
C4    O4    A    
C78   H30   S    
Cu2   Cu4   S    
C96   H56   S    
C41   O11   A    
C45   C49   A    
C16   C20   A    
C57   H5    S    
C39   O9    A    
Cu4   O15   S    
C55   C97   S    
C50   C58   A    
C3    O7    A    
C3    C32   S    
C36   H8    S    
C91   H49   S    
C43   C45   A    
Cu1   O2    S    
C90   H41   S    
C101  H75   S    
C13   H13   S    
C94   H51   S    
C7    C81   A    
C99   H69   S    
C24   H24   S    
Cu1   O1    S    
C72   H28   S    
C70   C76   A    
C42   C67   S    
C2    O6    A    
C39   C66   S    
C8    C82   A    
C18   H38   S    
C31   C87   A    
C3    O3    A    
Cu2   O12   S    
C95   H60   S    
C92   H48   S    
C1    O1    A    
C35   C37   A    
C47   C55   A    
C101  H74   S    
C80   H32   S    
C60   C103  S    
C7    C9    A    
C12   C64   A    
C46   C50   A    
C53   H1    S    
C47   N3    A    
C29   C85   A    
C48   N4    A    
C76   C80   A    
C102  H71   S    
C4    O8    A    
Cu3   O14   S    
C37   H11   S    
C97   H64   S    
C5    C83   A    
C93   H54   S    
C41   O15   A    
C71   H27   S    
C33   C51   A    
C39   O13   A    
C22   H22   S    
C34   C52   A    
C40   O10   A    
C103  H79   S    
C91   C92   S    
C36   C38   A    
C19   C87   A    
C69   H25   S    
C28   C95   S    
C1    O5    A    
C74   H34   S    
C84   C88   A    
C70   H26   S    
C7    C23   A    
C20   C88   A    
C31   C71   A    
C1    C30   S    
C8    C24   A    
C80   C82   A    
C69   C75   A    
C75   H35   S    
C63   H19   S    
C100  H66   S    
Cu4   O8    S    
C98   H62   S    
C54   H2    S    
C102  H72   S    
C27   C67   A    
C42   O12   A    
C16   H16   S    
C23   H23   S    
C13   C17   A    
C78   C84   A    
C14   H14   S    
C5    C21   A    
C8    C10   A    
Cu1   Cu3   S    
C74   C78   A    
Cu3   O13   S    
C25   C65   A    
C73   C77   A    
C29   C69   A    
Cu2   O4    S    
C89   C90   S    
C75   C79   A    
C95   H59   S    
C17   H37   S    
C81   C85   A    
C27   C93   S    
Cu3   O5    S    
C76   H36   S    
C32   C88   A    
