data_mof_unit_9095.cif
_audit_creation_date              2013-03-05T15:57:25-0500
_audit_creation_method            fapswitch 2.2
_symmetry_space_group_name_H-M    P1
_symmetry_Int_Tables_number       1
_space_group_crystal_system       triclinic
_cell_length_a                    12.921313
_cell_length_b                    13.05214
_cell_length_c                    15.299152
_cell_angle_alpha                 116.58983
_cell_angle_beta                  63.887864
_cell_angle_gamma                 97.053073
_cell_volume                      2062.94884915

loop_
_atom_site_label
_atom_site_type_symbol
_atom_site_description
_atom_site_fract_x
_atom_site_fract_y
_atom_site_fract_z
_atom_type_partial_charge
C1    C     C_R   0.000067 0.832715 0.055517 -0.192090
H1    H     H_    0.029328 0.893934 0.113982 0.141931
N1    N     N_R   0.037320 0.720000 0.995830 -0.064748
C2    C     C_R   0.679196 0.470386 0.219292 -0.125853
H2    H     H_    0.611941 0.451011 0.192845 0.118228
N2    N     N_R   0.790770 0.446140 0.151990 -0.045687
C3    C     C_R   0.755150 0.518216 0.892530 -0.083631
H3    H     H_    0.778309 0.540062 0.826583 0.168707
N3    N     N_R   0.824900 0.517970 0.936430 -0.062017
C4    C     C_R   0.020350 0.700066 0.301050 -0.100086
H4    H     H_    0.994342 0.670037 0.362418 0.114462
N4    N     N_R   0.003190 0.648180 0.211390 -0.038626
C5    C     C_R   0.675840 0.421982 0.990732 -0.171227
H5    H     H_    0.629111 0.359371 0.017844 0.106315
N5    N     N_R   0.774330 0.457010 0.995830 -0.053686
C6    C     C_R   0.104731 0.794237 0.201787 -0.139506
H6    H     H_    0.158159 0.850791 0.169225 0.117594
N6    N     N_R   0.053760 0.709130 0.151980 -0.047095
C7    C     C_R   0.781233 0.543314 0.316635 -0.097894
H7    H     H_    0.809658 0.579779 0.380010 0.120261
N7    N     N_R   0.853840 0.498830 0.211390 -0.037623
C8    C     C_R   0.905246 0.750283 0.953469 0.343620
N8    N     N_R   0.974250 0.667320 0.936430 -0.090121
C9    C     C_R   0.914523 0.854554 0.032405 -0.002943
C10   C     C_R   0.668656 0.528729 0.324759 0.035063
C11   C     C_R   0.661622 0.459801 0.926347 0.141033
C12   C     C_R   0.088226 0.788953 0.293733 0.018783
C13   C     C_R   0.338130 0.513887 0.947392 -0.098442
H8    H     H_    0.395974 0.551382 0.895574 0.095684
N9    N     N_R   0.225670 0.542990 0.004170 -0.050034
C14   C     C_R   0.966533 0.179040 0.779160 -0.138876
H9    H     H_    0.930156 0.109353 0.799498 0.105828
N10   N     N_R   0.946240 0.290870 0.848020 -0.037024
C15   C     C_R   0.190313 0.514622 0.699248 -0.126972
H10   H     H_    0.143894 0.496438 0.651663 0.132039
N11   N     N_R   0.146160 0.501170 0.788610 -0.046234
C16   C     C_R   0.046299 0.256667 0.092356 0.306179
N12   N     N_R   0.025750 0.332680 0.063570 -0.085588
C17   C     C_R   0.951869 0.171536 0.992529 -0.225847
H11   H     H_    0.897803 0.113502 0.958804 0.134816
N13   N     N_R   0.962680 0.280000 0.004170 -0.060804
C18   C     C_R   0.293530 0.601405 0.791441 -0.148342
H12   H     H_    0.348548 0.660569 0.822949 0.098150
N14   N     N_R   0.209230 0.553860 0.848010 -0.044446
C19   C     C_R   0.260129 0.413619 0.043728 -0.142088
H13   H     H_    0.251537 0.356749 0.079670 0.141353
N15   N     N_R   0.175100 0.482030 0.063570 -0.031849
C20   C     C_R   0.051200 0.280837 0.684244 -0.108286
H14   H     H_    0.093520 0.305518 0.618804 0.098849
N16   N     N_R   0.996810 0.351820 0.788610 -0.042377
Ni1   Ni    Ni4+2 0.130310 0.630310 0.000000 0.205375
Ni2   Ni    Ni4+2 0.869690 0.369690 0.000000 0.206569
Ni3   Ni    Ni4+2 0.985660 0.509480 0.863750 0.248999
Ni4   Ni    Ni4+2 0.014340 0.490520 0.136250 0.274305
C21   C     C_R   0.362410 0.431288 0.970084 0.121318
C22   C     C_R   0.034217 0.171887 0.676828 0.050412
C23   C     C_R   0.281783 0.579633 0.698435 0.084248
C24   C     C_R   0.004557 0.152617 0.046589 0.033393
H15   H     H_    0.583479 0.648297 0.191075 0.117942
C25   C     C_R   0.400745 0.641784 0.235794 -0.110302
H16   H     H_    0.409755 0.552468 0.178699 0.116348
C26   C     C_R   0.291170 0.702786 0.302098 -0.136851
H17   H     H_    0.217125 0.656312 0.298382 0.133873
C27   C     C_R   0.279038 0.821417 0.371313 0.118096
C28   C     C_R   0.379613 0.874676 0.376334 -0.147760
H18   H     H_    0.375092 0.965943 0.426738 0.114478
C29   C     C_R   0.488243 0.812001 0.313151 -0.110737
H19   H     H_    0.564568 0.854277 0.317477 0.111084
C30   C     C_R   0.498967 0.695933 0.241972 -0.073305
C31   C     C_R   0.140730 0.987430 0.533496 -0.268648
H20   H     H_    0.191577 0.995708 0.576511 0.134842
C32   C     C_R   0.053210 0.073630 0.577530 0.062716
C33   C     C_R   0.992871 0.072334 0.520226 0.001137
C34   C     C_R   0.014005 0.978891 0.423367 -0.235048
H21   H     H_    0.963553 0.974489 0.380846 0.134903
C35   C     C_R   0.092827 0.887552 0.383620 0.084787
C36   C     C_R   0.166244 0.894225 0.431879 0.013185
C37   C     C_R   0.792113 0.166903 0.646161 -0.149677
H22   H     H_    0.779942 0.116639 0.689652 0.114141
C38   C     C_R   0.697126 0.231589 0.669417 -0.100890
H23   H     H_    0.612667 0.229460 0.729351 0.132161
C39   C     C_R   0.710489 0.296478 0.613698 -0.109913
H24   H     H_    0.636782 0.347501 0.632840 0.105260
C40   C     C_R   0.818564 0.293563 0.531796 -0.097903
H25   H     H_    0.828576 0.342254 0.487349 0.125140
C41   C     C_R   0.912507 0.223980 0.504350 -0.166406
H26   H     H_    0.994282 0.216515 0.436567 0.144155
C42   C     C_R   0.899866 0.160511 0.561620 0.118311
H27   H     H_    0.875668 0.920140 0.604034 0.121324
C43   C     C_R   0.777318 0.781321 0.624019 -0.119285
H28   H     H_    0.815044 0.772590 0.671304 0.170502
C44   C     C_R   0.693487 0.709988 0.602134 -0.179624
H29   H     H_    0.666537 0.646198 0.633028 0.124845
C45   C     C_R   0.644196 0.721452 0.540933 0.122513
C46   C     C_R   0.678652 0.805263 0.502827 -0.146980
H30   H     H_    0.639671 0.816350 0.457380 0.111311
C47   C     C_R   0.761692 0.876968 0.525748 -0.100242
H31   H     H_    0.785443 0.942852 0.497976 0.121801
C48   C     C_R   0.811483 0.864718 0.585835 -0.126216
C49   C     C_R   0.449256 0.671258 0.618788 -0.250314
H32   H     H_    0.447982 0.726956 0.697246 0.136571
C50   C     C_R   0.353812 0.613347 0.612259 0.046532
C51   C     C_R   0.350311 0.554436 0.511266 -0.026964
C52   C     C_R   0.455595 0.511719 0.418488 -0.027069
C53   C     C_R   0.557611 0.564886 0.423837 -0.004300
C54   C     C_R   0.549564 0.652532 0.525235 0.021397
C55   C     C_R   0.186409 0.460285 0.464430 -0.228576
H33   H     H_    0.222772 0.376351 0.440642 0.139917
C56   C     C_R   0.082050 0.469366 0.460669 0.005953
H34   H     H_    0.040755 0.392936 0.431009 0.150454
C57   C     C_R   0.030820 0.576951 0.495043 -0.036851
H35   H     H_    0.950024 0.583132 0.491716 0.105042
C58   C     C_R   0.083740 0.676182 0.533809 -0.102455
H36   H     H_    0.044036 0.759630 0.560502 0.113329
C59   C     C_R   0.188059 0.667759 0.538085 -0.095817
H37   H     H_    0.228141 0.745531 0.568291 0.114020
C60   C     C_R   0.240789 0.559683 0.502966 0.103043
C61   C     C_2   0.476304 0.390950 0.942706 -0.242230
H38   H     H_    0.480639 0.341471 0.982220 0.129143
C62   C     C_2   0.567197 0.440366 0.896923 -0.184411
H39   H     H_    0.564787 0.485670 0.853265 0.132566
C63   C     C_2   0.840366 0.963055 0.087969 -0.142985
H40   H     H_    0.794311 0.978015 0.049686 0.176040
C64   C     C_2   0.822198 0.042123 0.187830 -0.169237
H41   H     H_    0.862535 0.032225 0.232940 0.152623
N17   N     N_R   0.070930 0.289327 0.183278 0.210170
O1    O     O_R   0.062834 0.397583 0.249092 -0.481434
O2    O     O_R   0.089643 0.211437 0.207039 -0.457450
C65   C     C_R   0.461152 0.395234 0.331326 0.115304
C66   C     C_R   0.520187 0.301278 0.317124 -0.134351
C67   C     C_R   0.528802 0.191681 0.234377 -0.113209
C68   C     C_R   0.478207 0.174720 0.165410 -0.087774
C69   C     C_R   0.418670 0.267250 0.179229 -0.097654
C70   C     C_R   0.410187 0.376958 0.261653 -0.189502
H42   H     H_    0.560041 0.313219 0.369846 0.116721
H43   H     H_    0.574757 0.119888 0.223698 0.127892
H44   H     H_    0.484902 0.089822 0.101439 0.122707
H45   H     H_    0.378968 0.254000 0.126159 0.126561
H46   H     H_    0.363247 0.447300 0.271786 0.138864
N18   N     N_R   0.853253 0.736951 0.884105 0.208412
O3    O     O_R   0.754507 0.793022 0.922750 -0.456786
O4    O     O_R   0.911180 0.678041 0.779681 -0.462430

loop_
_geom_bond_atom_site_label_1
_geom_bond_atom_site_label_2
_geom_bond_distance
_ccdc_geom_bond_type
C4    C12   1.381194 A    
N9    Ni1   1.816709 S    
N17   O1    1.300479 A    
C27   C36   1.499639 S    
N1    N8    1.384815 A    
C46   H30   1.083660 S    
C47   H31   1.077815 S    
C10   C53   1.480056 S    
C3    H3    1.076857 S    
C17   N13   1.342765 A    
C19   H13   1.075681 S    
N10   Ni2   1.878075 S    
C23   C50   1.461748 S    
C26   H17   1.077525 S    
C3    C11   1.373300 A    
C34   C35   1.390110 A    
H27   C48   1.079002 S    
C13   H8    1.078210 S    
C7    N7    1.333052 A    
C11   C62   1.435581 S    
C15   H10   1.068095 S    
C56   C57   1.395475 A    
N7    Ni4   1.865276 S    
C41   C42   1.403996 A    
C59   H37   1.083440 S    
C8    N18   1.428763 S    
C25   C26   1.398978 A    
C1    H1    1.079432 S    
C33   C34   1.365889 A    
C61   H38   1.083452 S    
C49   H32   1.083482 S    
C26   C27   1.410350 A    
N11   Ni3   1.865275 S    
N10   N16   1.372157 A    
C50   C51   1.403583 A    
C58   H36   1.082077 S    
C66   H42   1.083277 S    
C6    H6    1.082105 S    
C59   C60   1.406441 A    
C15   C23   1.366487 A    
C55   H33   1.082751 S    
C14   N10   1.335426 A    
C31   H20   1.084398 S    
C14   C22   1.381525 A    
N13   Ni2   1.816034 S    
C15   N11   1.314965 A    
C16   C24   1.388112 A    
C6    C12   1.359478 A    
C20   N16   1.322719 A    
C69   H45   1.082330 S    
C5    H5    1.079923 S    
C31   C36   1.399939 A    
C55   C56   1.396192 A    
C51   C60   1.487711 S    
C18   N14   1.343714 A    
C18   C23   1.395008 A    
C44   C45   1.406589 A    
C52   C53   1.430145 A    
C47   C48   1.400715 A    
C13   C21   1.376685 A    
N6    Ni1   1.878074 S    
N8    Ni3   1.839008 S    
C35   C36   1.411124 A    
C19   N15   1.342103 A    
N16   Ni3   1.840151 S    
C34   H21   1.087254 S    
C29   H19   1.082868 S    
N9    N15   1.372154 A    
N18   O3    1.300408 A    
N12   N13   1.384814 A    
C2    N2    1.323802 A    
C67   H43   1.082386 S    
C70   H46   1.077678 S    
N1    Ni1   1.816034 S    
C41   H26   1.082444 S    
C32   C33   1.400686 A    
C28   C29   1.397693 A    
C68   H44   1.082300 S    
C17   C24   1.388621 A    
C25   H16   1.080644 S    
C29   C30   1.393551 A    
C33   C42   1.478869 S    
C16   N12   1.344452 A    
C43   C44   1.394572 A    
C14   H9    1.079204 S    
N12   Ni4   1.839008 S    
C9    C63   1.478132 S    
C57   C58   1.395933 A    
N5    Ni2   1.816709 S    
C40   H25   1.082706 S    
C4    N4    1.337404 A    
H15   C30   1.081771 S    
N15   Ni4   1.864568 S    
N14   Ni1   1.878332 S    
C38   C39   1.398088 A    
C20   H14   1.081063 S    
C49   C50   1.383549 A    
C39   H24   1.082569 S    
C39   C40   1.397048 A    
C52   C65   1.490801 S    
C5    N5    1.321832 A    
C69   C70   1.397507 A    
C8    C9    1.393214 A    
C5    C11   1.365493 A    
N11   N14   1.384833 A    
N3    Ni3   1.864569 S    
C18   H12   1.080594 S    
C63   C64   1.336640 D    
C67   C68   1.397242 A    
C2    C10   1.390717 A    
C43   C48   1.394715 A    
C17   H11   1.079583 S    
C62   H39   1.083110 S    
C16   N17   1.429522 S    
C37   C42   1.401830 A    
C20   C22   1.372612 A    
C45   C54   1.468679 S    
N17   O2    1.301047 A    
C57   H35   1.081744 S    
C22   C32   1.420506 S    
C37   H22   1.082219 S    
N18   O4    1.301083 A    
C38   H23   1.080294 S    
C46   C47   1.393198 A    
C53   C54   1.422885 A    
C49   C54   1.385596 A    
N2    Ni2   1.878331 S    
C27   C28   1.412880 A    
C7    H7    1.076550 S    
C13   N9    1.318894 A    
C66   C67   1.398290 A    
C65   C66   1.406503 A    
C56   H34   1.078409 S    
N2    N7    1.384832 A    
C43   H28   1.082504 S    
C25   C30   1.394536 A    
C44   H29   1.083559 S    
C68   C69   1.396968 A    
C37   C38   1.395339 A    
N3    N5    1.372155 A    
C45   C46   1.399121 A    
C7    C10   1.400597 A    
C61   C62   1.334246 D    
C4    H4    1.080460 S    
C65   C70   1.406595 A    
C3    N3    1.341208 A    
C2    H2    1.070889 S    
C19   C21   1.384288 A    
C1    C9    1.392729 A    
C6    N6    1.323907 A    
C28   H18   1.082682 S    
N4    N6    1.372156 A    
C51   C52   1.397992 A    
C8    N8    1.347332 A    
C40   C41   1.398321 A    
C31   C32   1.400667 A    
C1    N1    1.346954 A    
C63   H40   1.083060 S    
C55   C60   1.407307 A    
N4    Ni4   1.840151 S    
C12   C35   1.421182 S    
C64   H41   1.085191 S    
C58   C59   1.397769 A    
C21   C61   1.438286 S    
