data_mof_unit_53584.cif
_audit_creation_date              2012-12-10T19:42:53-0500
_audit_creation_method            fapswitch 2.2
_symmetry_space_group_name_H-M    P1
_symmetry_Int_Tables_number       1
_space_group_crystal_system       triclinic
_cell_length_a                    10.830331
_cell_length_b                    12.995963
_cell_length_c                    11.669885
_cell_angle_alpha                 99.934693
_cell_angle_beta                  94.172015
_cell_angle_gamma                 90.637518
_cell_volume                      1613.15720523

loop_
_atom_site_label
_atom_site_type_symbol
_atom_type_description
_atom_site_fract_x
_atom_site_fract_y
_atom_site_fract_z
_atom_type_partial_charge
C1    C     C_R   0.498257 0.299022 0.478557 0.813241
C2    C     C_R   0.501749 0.700979 0.521443 0.813260
C3    C     C_R   0.871690 0.496673 0.500745 -0.066764
C4    C     C_R   0.128309 0.503334 0.499256 -0.066851
C5    C     C_R   0.945427 0.463658 0.592011 0.049914
C6    C     C_R   0.054571 0.536346 0.407989 0.049924
C7    C     C_R   0.502780 0.814417 0.533861 -0.058386
C8    C     C_R   0.497239 0.185583 0.466140 -0.058400
C9    C     C_R   0.487810 0.014662 0.343997 -0.197177
C10   C     C_R   0.512219 0.985338 0.656005 -0.197163
C11   C     C_R   0.488606 0.122848 0.355009 -0.166918
C12   C     C_R   0.511415 0.877152 0.644992 -0.166899
C13   C     C_R   0.504864 0.139511 0.566296 -0.266901
C14   C     C_R   0.495166 0.860490 0.433706 -0.266912
C15   C     C_R   0.504315 0.031451 0.556014 0.166639
C16   C     C_R   0.495717 0.968550 0.443989 0.166660
C17   C     C_R   0.395539 0.390149 0.020486 -0.139748
C18   C     C_R   0.604529 0.609826 0.979511 -0.139963
C19   C     C_R   0.406808 0.401898 0.143304 0.031229
C20   C     C_R   0.593237 0.598075 0.856687 0.031186
C21   C     C_R   0.539779 0.549822 0.158572 0.051742
C22   C     C_R   0.460207 0.450193 0.841432 0.051691
C23   C     C_R   0.262201 0.502022 0.499952 0.804943
C24   C     C_R   0.737798 0.497979 0.500048 0.804983
C25   C     C_R   0.537180 0.540386 0.035121 -0.038657
C26   C     C_R   0.462841 0.459619 0.964882 -0.038732
C27   C     C_R   0.212272 0.721964 0.247082 -0.121421
C28   C     C_R   0.787821 0.277979 0.752910 -0.121438
C29   C     C_R   0.159532 0.679383 0.334466 -0.136443
C30   C     C_R   0.840519 0.320586 0.665523 -0.136461
C31   C     C_R   0.107831 0.577595 0.310986 0.048488
C32   C     C_R   0.892170 0.422391 0.689003 0.048529
C33   C     C_R   0.109505 0.517413 0.197037 0.021997
C34   C     C_R   0.890478 0.482566 0.802953 0.021986
C35   C     C_R   0.162033 0.562694 0.110065 -0.111665
C36   C     C_R   0.838000 0.437260 0.889931 -0.111698
C37   C     C_R   0.213465 0.663757 0.135142 -0.125542
C38   C     C_R   0.786622 0.336178 0.864854 -0.125498
C39   C     C_R   0.926771 0.532479 0.409811 -0.173165
C40   C     C_R   0.073228 0.467534 0.590195 -0.173338
Cu1   Cu    Cu3+1 0.509250 0.507730 0.615930 0.962430
Cu2   Cu    Cu3+1 0.490750 0.492270 0.384070 0.962443
H1    H     H_    0.254627 0.696874 0.067478 0.143994
H2    H     H_    0.745496 0.303039 0.932522 0.144017
H3    H     H_    0.408547 0.387625 0.784827 0.164578
H4    H     H_    0.591391 0.612412 0.215186 0.164694
H5    H     H_    0.643843 0.650642 0.813492 0.159151
H6    H     H_    0.356234 0.349300 0.186484 0.158987
H7    H     H_    0.252225 0.800309 0.266205 0.135479
H8    H     H_    0.747909 0.199620 0.733788 0.135507
H9    H     H_    0.159529 0.725629 0.421114 0.132432
H10   H     H_    0.840537 0.274344 0.578874 0.132454
H11   H     H_    0.165188 0.519376 0.022374 0.195898
H12   H     H_    0.834836 0.480574 0.977622 0.195795
H13   H     H_    0.870291 0.559273 0.340616 0.172860
H14   H     H_    0.129707 0.440742 0.659392 0.172822
H15   H     H_    0.488859 0.812501 0.347582 0.153062
H16   H     H_    0.511174 0.187500 0.652420 0.153103
H17   H     H_    0.517572 0.842740 0.723341 0.174211
H18   H     H_    0.482443 0.157260 0.276660 0.174222
H19   H     H_    0.481062 0.967200 0.257649 0.151714
H20   H     H_    0.518967 0.032800 0.742353 0.151783
N1    N     N_R   0.523180 0.519350 0.790130 -0.195869
N2    N     N_R   0.476820 0.480650 0.209870 -0.195866
O1    O     O_R   0.506570 0.354460 0.582000 -0.594036
O2    O     O_R   0.493430 0.645540 0.418000 -0.594050
O3    O     O_R   0.490940 0.341410 0.386200 -0.590028
O4    O     O_R   0.509060 0.658590 0.613800 -0.590020
O5    O     O_R   0.327460 0.506540 0.597900 -0.580217
O6    O     O_R   0.672540 0.493460 0.402100 -0.580183
O7    O     O_R   0.311830 0.493480 0.402100 -0.575511
O8    O     O_R   0.688170 0.506520 0.597900 -0.575504
C41   C     C_2   0.309976 0.306858 0.955075 0.826108
O9    O     O_2   0.306486 0.221263 0.985005 -0.593480
O10   O     O_R   0.228814 0.327441 0.863374 -0.775545
H21   H     H_    0.173585 0.264958 0.827501 0.345674
C42   C     C_2   0.690224 0.693042 0.044891 0.826217
O11   O     O_2   0.694067 0.778540 0.014765 -0.593402
O12   O     O_R   0.771155 0.672471 0.136760 -0.775737
H22   H     H_    0.826537 0.734880 0.172562 0.345694
C43   C     C_2   0.061896 0.407197 0.166369 0.801793
O13   O     O_2   0.040304 0.356855 0.242281 -0.590266
O14   O     O_R   0.044217 0.359636 0.049279 -0.758097
H23   H     H_    0.012775 0.284594 0.039078 0.348433
C44   C     C_2   0.938014 0.592800 0.833610 0.801849
O15   O     O_2   0.959408 0.643190 0.757687 -0.590218
O16   O     O_R   0.955837 0.640327 0.950703 -0.758154
H24   H     H_    0.987174 0.715398 0.960896 0.348508

loop_
_geom_bond_atom_site_label_1
_geom_bond_atom_site_label_2
_ccdc_geom_bond_type
O16   H24   S    
C8    C13   A    
C35   H11   S    
C1    C8    S    
C41   O9    D    
C23   O5    A    
C2    C7    S    
C43   O13   D    
C24   O6    A    
C44   O15   D    
C9    H19   S    
C17   C26   A    
C35   C37   A    
C9    C16   A    
C2    O4    A    
C10   C15   A    
C8    C11   A    
C27   C29   A    
C15   C16   A    
Cu2   O6    S    
Cu1   Cu2   S    
C21   N2    A    
C30   H10   S    
C33   C35   A    
C22   N1    A    
C12   H17   S    
C28   H8    S    
C7    C14   A    
C39   H13   S    
C4    C40   A    
C40   H14   S    
C1    O1    A    
C31   C33   A    
C34   C36   A    
C5    C32   S    
C44   O16   S    
C6    C31   S    
C3    C39   A    
C17   C41   S    
C41   O10   S    
C3    C24   S    
C10   H20   S    
C18   C25   A    
C43   O14   S    
Cu1   O4    S    
C42   O12   S    
C7    C12   A    
C23   O7    A    
C4    C6    A    
C4    C23   S    
C19   H6    S    
Cu1   O1    S    
C13   H16   S    
C3    C5    A    
C25   C26   A    
C42   O11   D    
C34   C44   S    
C32   C34   A    
C37   H1    S    
O10   H21   S    
C38   H2    S    
O14   H23   S    
C28   C38   A    
C19   N2    A    
C9    C11   A    
C10   C12   A    
Cu1   O8    S    
C13   C15   A    
Cu2   O3    S    
C14   C16   A    
Cu1   N1    S    
C11   H18   S    
Cu2   N2    S    
C24   O8    A    
Cu1   O5    S    
C21   H4    S    
C29   H9    S    
C14   H15   S    
C21   C25   A    
C2    O2    A    
C1    O3    A    
C20   N1    A    
C36   C38   A    
C29   C31   A    
C30   C32   A    
C27   C37   A    
C18   C42   S    
C28   C30   A    
Cu2   O7    S    
C17   C19   A    
C18   C20   A    
C20   H5    S    
C36   H12   S    
O12   H22   S    
C22   H3    S    
C22   C26   A    
C5    C40   A    
Cu2   O2    S    
C6    C39   A    
C33   C43   S    
C27   H7    S    
