data_mof_unit_65031.cif
_audit_creation_date              2012-10-26T17:55:32-0400
_audit_creation_method            fapswitch 2.2
_symmetry_space_group_name_H-M    P1
_symmetry_Int_Tables_number       1
_space_group_crystal_system       triclinic
_cell_length_a                    38.680526
_cell_length_b                    21.745416
_cell_length_c                    21.689633
_cell_angle_alpha                 89.999623
_cell_angle_beta                  124.042083
_cell_angle_gamma                 89.998962
_cell_volume                      15117.1938058

loop_
_atom_site_label
_atom_site_type_symbol
_atom_type_description
_atom_site_fract_x
_atom_site_fract_y
_atom_site_fract_z
_atom_type_partial_charge
C1    C     C_R   0.999992 0.999984 0.118894 0.546034
C2    C     C_3   0.773788 0.033000 0.827343 -0.255413
C3    C     C_3   0.274889 0.528255 0.713239 -0.159433
C4    C     C_3   0.273917 0.027993 0.336715 -0.060141
C5    C     C_3   0.726086 0.027594 0.663092 -0.060118
C6    C     C_3   0.773916 0.527989 0.336720 -0.060145
C7    C     C_3   0.226083 0.527847 0.663211 -0.060128
C8    C     C_1   0.375294 0.998948 0.375635 0.020612
C9    C     C_1   0.624706 0.998947 0.624363 0.020549
C10   C     C_1   0.875294 0.498949 0.375636 0.020624
C11   C     C_1   0.124706 0.498947 0.624364 0.020600
C12   C     C_3   0.208505 0.996836 0.210831 0.032475
C13   C     C_3   0.726208 0.532639 0.172432 -0.255402
C14   C     C_3   0.791496 0.996835 0.789185 0.032469
C15   C     C_3   0.708505 0.496839 0.210832 0.032472
C16   C     C_3   0.291495 0.496839 0.789174 0.032473
C17   C     C_3   0.274150 0.928431 0.270507 -0.034527
C18   C     C_3   0.725855 0.928468 0.729954 -0.034465
C19   C     C_3   0.774150 0.428435 0.270502 -0.034517
C20   C     C_3   0.225854 0.428446 0.729664 -0.034501
C21   C     C_3   0.291494 0.995830 0.294895 0.047002
C22   C     C_3   0.708507 0.995817 0.705118 0.047027
C23   C     C_3   0.791494 0.495832 0.294897 0.047001
C24   C     C_3   0.273790 0.532770 0.827486 -0.255406
C25   C     C_3   0.208506 0.495826 0.705108 0.047014
C26   C     C_2   0.294061 0.879102 0.330537 0.265491
C27   C     C_2   0.705955 0.878880 0.670249 0.265424
C28   C     C_2   0.794059 0.379102 0.330528 0.265468
C29   C     C_2   0.205950 0.379020 0.669755 0.265456
C30   C     C_3   0.598340 0.821167 0.613550 -0.093501
C31   C     C_3   0.401655 0.821185 0.386536 -0.093778
C32   C     C_3   0.098353 0.321164 0.613393 -0.093668
C33   C     C_3   0.901642 0.321169 0.386631 -0.093778
C34   C     C_2   0.440087 0.184485 0.363859 0.221747
C35   C     C_1   0.337667 0.997718 0.338994 -0.040140
C36   C     C_2   0.559914 0.184479 0.636141 0.221749
C37   C     C_2   0.940087 0.684486 0.363859 0.221749
C38   C     C_2   0.059914 0.684479 0.636141 0.221751
C39   C     C_2   0.205589 0.887733 0.253025 0.204664
C40   C     C_2   0.794426 0.887432 0.747746 0.204713
C41   C     C_2   0.705587 0.387729 0.253008 0.204655
C42   C     C_2   0.294421 0.387622 0.747268 0.204687
C43   C     C_2   0.948312 0.815459 0.359932 0.223471
C44   C     C_2   0.051692 0.815453 0.640068 0.223478
C45   C     C_2   0.448311 0.315459 0.359932 0.223471
C46   C     C_1   0.662334 0.997713 0.661005 -0.040142
C47   C     C_2   0.551692 0.315453 0.640068 0.223474
C48   C     C_2   0.292400 0.003331 0.414575 0.305443
C49   C     C_2   0.707604 0.002554 0.585393 0.305408
C50   C     C_2   0.792399 0.503322 0.414578 0.305461
C51   C     C_2   0.207601 0.503047 0.585410 0.305425
C52   C     C_1   0.837667 0.497719 0.338996 -0.040139
C53   C     C_1   0.162334 0.497716 0.661004 -0.040141
C54   C     C_1   0.162375 0.998770 0.163404 -0.068110
C55   C     C_1   0.837625 0.998777 0.836605 -0.068103
C56   C     C_1   0.662375 0.498772 0.163404 -0.068107
C57   C     C_R   0.000008 0.999984 0.881106 0.546029
C58   C     C_1   0.337626 0.498776 0.836599 -0.068106
C59   C     C_1   0.124726 0.999712 0.125115 -0.019205
C60   C     C_1   0.875275 0.999718 0.874888 -0.019204
C61   C     C_1   0.624726 0.499713 0.125115 -0.019204
C62   C     C_1   0.375275 0.499717 0.874886 -0.019205
C63   C     C_R   0.973634 0.040094 0.191567 -0.127415
C64   C     C_R   0.026364 0.040095 0.808430 -0.127417
C65   C     C_R   0.473634 0.540095 0.191568 -0.127410
C66   C     C_R   0.526364 0.540095 0.808430 -0.127412
C67   C     C_R   0.973138 0.039357 0.255165 -0.129131
C68   C     C_R   0.499992 0.499984 0.118894 0.546039
C69   C     C_R   0.026860 0.039358 0.744832 -0.129134
C70   C     C_R   0.473138 0.539357 0.255166 -0.129125
C71   C     C_R   0.526860 0.539358 0.744832 -0.129129
C72   C     C_R   0.000034 0.999987 0.314079 0.045694
C73   C     C_R   0.999966 0.999987 0.685921 0.045688
C74   C     C_R   0.500034 0.499987 0.314079 0.045699
C75   C     C_R   0.499966 0.499987 0.685921 0.045690
C76   C     C_R   0.026872 0.960536 0.308805 -0.097977
C77   C     C_R   0.973130 0.960536 0.691197 -0.098009
C78   C     C_R   0.526871 0.460536 0.308804 -0.097973
C79   C     C_R   0.500008 0.499984 0.881106 0.546037
C80   C     C_R   0.473129 0.460536 0.691197 -0.097991
C81   C     C_R   0.026338 0.959769 0.244172 -0.122209
C82   C     C_R   0.973664 0.959769 0.755830 -0.122237
C83   C     C_R   0.526337 0.459769 0.244172 -0.122208
C84   C     C_R   0.473663 0.459770 0.755829 -0.122220
C85   C     C_R   0.079909 0.999976 0.079903 0.551284
C86   C     C_R   0.920091 0.999977 0.920097 0.551274
C87   C     C_R   0.579909 0.499976 0.079904 0.551286
C88   C     C_R   0.420091 0.499977 0.920097 0.551282
C89   C     C_R   0.999988 0.999944 0.185780 0.025662
C90   C     C_3   0.274613 0.033081 0.222034 -0.264343
C91   C     C_R   0.000012 0.999945 0.814220 0.025653
C92   C     C_R   0.499988 0.499944 0.185780 0.025663
C93   C     C_R   0.500011 0.499945 0.814220 0.025658
C94   C     C_R   0.500001 0.185856 0.500000 0.023506
C95   C     C_R   0.000001 0.685856 0.500000 0.023510
C96   C     C_R   0.499998 0.881391 0.499999 0.585358
C97   C     C_R   0.999999 0.381391 0.499999 0.585429
C98   C     C_R   0.420068 0.999914 0.420140 0.581436
C99   C     C_R   0.579932 0.999914 0.579860 0.581418
C100  C     C_R   0.920068 0.499914 0.420140 0.581464
C101  C     C_3   0.725382 0.033434 0.777729 -0.264335
C102  C     C_R   0.079932 0.499914 0.579860 0.581452
C103  C     C_R   0.500000 0.118953 0.500000 0.641605
C104  C     C_R   0.000000 0.618953 0.500000 0.641596
C105  C     C_R   0.000000 0.880920 0.500000 0.648204
C106  C     C_R   0.500000 0.380920 0.500000 0.648196
C107  C     C_R   0.000026 0.000012 0.380920 0.580172
C108  C     C_R   0.999974 0.000012 0.619080 0.580166
C109  C     C_R   0.500026 0.500012 0.380920 0.580165
C110  C     C_R   0.499974 0.500012 0.619080 0.580160
C111  C     C_R   0.999999 0.119199 0.499999 0.545863
C112  C     C_3   0.774614 0.533089 0.222041 -0.264347
C113  C     C_R   0.499999 0.619198 0.499999 0.545855
C114  C     C_R   0.533188 0.782609 0.560799 0.218063
C115  C     C_R   0.466799 0.782612 0.439207 0.218118
C116  C     C_R   0.033209 0.282611 0.560767 0.218069
C117  C     C_R   0.966785 0.282614 0.439235 0.218092
C118  C     C_R   0.032905 0.218435 0.560556 -0.124951
C119  C     C_R   0.967090 0.218438 0.439446 -0.124960
C120  C     C_R   0.532885 0.718433 0.560584 -0.124932
C121  C     C_R   0.467105 0.718436 0.439418 -0.124941
C122  C     C_3   0.224965 0.929131 0.223716 -0.066265
C123  C     C_3   0.225384 0.533213 0.777875 -0.264340
C124  C     C_3   0.775040 0.929154 0.776756 -0.066265
C125  C     C_3   0.724964 0.429134 0.223708 -0.066258
C126  C     C_3   0.275039 0.429142 0.776462 -0.066264
C127  C     C_R   0.999998 0.186284 0.500000 -0.066145
C128  C     C_R   0.499997 0.686282 0.499999 -0.066121
C129  C     C_R   0.499995 0.814637 0.500000 0.044231
C130  C     C_R   0.999998 0.314638 0.500000 0.044253
C131  C     C_R   0.471782 0.217787 0.433178 -0.045540
C132  C     C_R   0.528219 0.217784 0.566821 -0.045538
C133  C     C_R   0.971782 0.717787 0.433178 -0.045537
C134  C     C_3   0.226207 0.032629 0.172425 -0.255399
C135  C     C_R   0.028219 0.717784 0.566821 -0.045535
C136  C     C_R   0.973826 0.782125 0.432201 -0.047858
C137  C     C_R   0.026177 0.782122 0.567799 -0.047861
C138  C     C_R   0.473826 0.282125 0.432201 -0.047859
C139  C     C_R   0.526177 0.282122 0.567799 -0.047861
C140  C     C_R   0.000001 0.814036 0.500000 0.020038
C141  C     C_R   0.500001 0.314036 0.500000 0.020038
C142  C     C_3   0.225112 0.028401 0.286686 -0.159425
C143  C     C_3   0.774891 0.028002 0.713119 -0.159441
C144  C     C_3   0.725111 0.528395 0.286691 -0.159425
Cu1   Cu    Cu3+1 1.000000 0.938160 0.000000 0.960946
Cu2   Cu    Cu3+1 0.041320 0.999890 0.541290 0.989663
Cu3   Cu    Cu3+1 0.458680 0.499890 0.458710 0.989620
Cu4   Cu    Cu3+1 0.541320 0.499890 0.541290 0.989701
Cu5   Cu    Cu3+1 0.500000 0.438160 0.000000 0.960890
Cu6   Cu    Cu3+1 1.000000 0.061840 0.000000 0.960682
Cu7   Cu    Cu3+1 0.500000 0.561840 0.000000 0.960701
Cu8   Cu    Cu3+1 0.500000 0.000210 0.561820 1.030367
Cu9   Cu    Cu3+1 0.500000 0.000210 0.438180 1.030215
Cu10  Cu    Cu3+1 0.000000 0.500210 0.561820 1.030354
Cu11  Cu    Cu3+1 0.000000 0.500210 0.438180 1.030287
Cu12  Cu    Cu3+1 0.958680 0.999890 0.458710 0.989568
H1    H     H_    0.213919 0.909958 0.167900 0.056683
H2    H     H_    0.714132 0.081812 0.763896 0.137912
H3    H     H_    0.785858 0.581484 0.235556 0.137886
H4    H     H_    0.214137 0.581602 0.764245 0.137896
H5    H     H_    0.953035 0.071111 0.146469 0.125792
H6    H     H_    0.046961 0.071113 0.853526 0.125797
H7    H     H_    0.453036 0.571112 0.146469 0.125794
H8    H     H_    0.546961 0.571112 0.853527 0.125796
H9    H     H_    0.952385 0.070127 0.259016 0.120816
H10   H     H_    0.047611 0.070128 0.740980 0.120818
H11   H     H_    0.452386 0.570127 0.259017 0.120815
H12   H     H_    0.786080 0.910284 0.832700 0.056667
H13   H     H_    0.547612 0.570128 0.740980 0.120817
H14   H     H_    0.047604 0.929737 0.354070 0.141609
H15   H     H_    0.952399 0.929736 0.645934 0.141603
H16   H     H_    0.547603 0.429736 0.354069 0.141607
H17   H     H_    0.452399 0.429737 0.645934 0.141608
H18   H     H_    0.046914 0.928729 0.240167 0.133143
H19   H     H_    0.953089 0.928729 0.759836 0.133163
H20   H     H_    0.546913 0.428729 0.240167 0.133140
H21   H     H_    0.453089 0.428730 0.759836 0.133153
H22   H     H_    0.058192 0.193877 0.608018 0.147978
H23   H     H_    0.713920 0.409967 0.167890 0.056681
H24   H     H_    0.941803 0.193882 0.391985 0.147972
H25   H     H_    0.558156 0.693874 0.608068 0.147951
H26   H     H_    0.441832 0.693878 0.391938 0.147959
H27   H     H_    0.214134 0.076986 0.276679 0.094859
H28   H     H_    0.785871 0.076578 0.722799 0.094842
H29   H     H_    0.714132 0.576979 0.276691 0.094866
H30   H     H_    0.285866 0.576836 0.723122 0.094850
H31   H     H_    0.210999 0.006759 0.313902 0.216201
H32   H     H_    0.789003 0.006080 0.686051 0.216199
H33   H     H_    0.710999 0.506746 0.313904 0.216210
H34   H     H_    0.286082 0.410082 0.832326 0.056678
H35   H     H_    0.289001 0.506507 0.686078 0.216201
H36   H     H_    0.284088 0.076960 0.345314 0.077103
H37   H     H_    0.715918 0.076572 0.654178 0.077036
H38   H     H_    0.784086 0.576957 0.345322 0.077108
H39   H     H_    0.215913 0.576819 0.654496 0.077072
H40   H     H_    0.215254 0.011170 0.117800 0.126164
H41   H     H_    0.784743 0.011837 0.882113 0.126153
H42   H     H_    0.715255 0.511187 0.117804 0.126165
H43   H     H_    0.284745 0.511423 0.882167 0.126160
H44   H     H_    0.214480 0.080817 0.161069 0.132972
H45   H     H_    0.282720 0.913481 0.231570 0.053286
H46   H     H_    0.785508 0.081188 0.838364 0.133008
H47   H     H_    0.714482 0.580828 0.161085 0.132974
H48   H     H_    0.285512 0.580959 0.838714 0.132986
H49   H     H_    0.286722 0.013496 0.190199 0.129257
H50   H     H_    0.713275 0.014132 0.809692 0.129296
H51   H     H_    0.786723 0.513507 0.190204 0.129263
H52   H     H_    0.213277 0.513731 0.809760 0.129276
H53   H     H_    0.283855 0.831804 0.315074 0.103866
H54   H     H_    0.716153 0.831615 0.686030 0.103832
H55   H     H_    0.783854 0.331804 0.315059 0.103847
H56   H     H_    0.717278 0.913825 0.768978 0.053336
H57   H     H_    0.216153 0.331734 0.685338 0.103855
H58   H     H_    0.588670 0.847851 0.562471 0.142443
H59   H     H_    0.611528 0.775891 0.612817 0.121668
H60   H     H_    0.623514 0.847474 0.661852 0.148430
H61   H     H_    0.411349 0.847874 0.437623 0.142340
H62   H     H_    0.388474 0.775913 0.387301 0.121503
H63   H     H_    0.376468 0.847492 0.338249 0.148202
H64   H     H_    0.088651 0.347841 0.562293 0.142401
H65   H     H_    0.111530 0.275885 0.612632 0.121574
H66   H     H_    0.123546 0.347474 0.661666 0.148339
H67   H     H_    0.782721 0.413489 0.231565 0.053296
H68   H     H_    0.911351 0.347835 0.437740 0.142369
H69   H     H_    0.888464 0.275890 0.387384 0.121497
H70   H     H_    0.876448 0.347490 0.338369 0.148260
H71   H     H_    0.433793 0.198559 0.310498 0.103549
H72   H     H_    0.566208 0.198552 0.689502 0.103554
H73   H     H_    0.933793 0.698559 0.310498 0.103553
H74   H     H_    0.066208 0.698552 0.689502 0.103561
H75   H     H_    0.182706 0.853609 0.216404 0.101024
H76   H     H_    0.817308 0.853402 0.784605 0.101044
H77   H     H_    0.682704 0.353608 0.216381 0.101012
H78   H     H_    0.217281 0.413608 0.768633 0.053316
H79   H     H_    0.317304 0.353532 0.783980 0.101032
H80   H     H_    0.916440 0.801423 0.318866 0.102836
H81   H     H_    0.083563 0.801415 0.681134 0.102840
H82   H     H_    0.416440 0.301423 0.318866 0.102840
H83   H     H_    0.583563 0.301414 0.681133 0.102841
H84   H     H_    0.325785 0.007094 0.455342 0.130392
H85   H     H_    0.674221 0.006290 0.544596 0.130297
H86   H     H_    0.825784 0.507090 0.455345 0.130386
H87   H     H_    0.174217 0.506805 0.544631 0.130345
H88   H     H_    0.285856 0.081477 0.235544 0.137886
O1    O     O_R   0.999990 0.947780 0.090170 -0.507111
O2    O     O_R   0.965100 0.999930 0.555260 -0.517684
O3    O     O_R   0.534900 0.499930 0.444740 -0.517647
O4    O     O_R   0.465100 0.499930 0.555260 -0.517669
O5    O     O_R   0.965090 0.090120 0.465150 -0.519509
O6    O     O_R   0.034910 0.090120 0.534850 -0.519485
O7    O     O_R   0.465090 0.590120 0.465150 -0.519497
O8    O     O_R   0.534910 0.590120 0.534850 -0.519467
O9    O     O_R   0.999990 0.052220 0.090220 -0.508298
O10   O     O_R   0.000010 0.052220 0.909780 -0.508315
O11   O     O_R   0.499990 0.552220 0.090220 -0.508296
O12   O     O_R   0.000010 0.947780 0.909830 -0.507085
O13   O     O_R   0.500010 0.552220 0.909780 -0.508304
O14   O     O_R   0.060280 0.947780 0.060280 -0.503764
O15   O     O_R   0.939720 0.947780 0.939720 -0.503721
O16   O     O_R   0.560280 0.447780 0.060280 -0.503766
O17   O     O_R   0.439720 0.447780 0.939720 -0.503748
O18   O     O_R   0.060280 0.052220 0.060320 -0.502930
O19   O     O_R   0.939720 0.052220 0.939680 -0.502953
O20   O     O_R   0.560280 0.552220 0.060320 -0.502929
O21   O     O_R   0.439720 0.552220 0.939680 -0.502938
O22   O     O_R   0.500000 0.909980 0.552210 -0.494426
O23   O     O_R   0.499990 0.447780 0.090170 -0.507111
O24   O     O_R   0.500000 0.909980 0.447790 -0.494470
O25   O     O_R   1.000000 0.409980 0.552210 -0.494484
O26   O     O_R   1.000000 0.409980 0.447790 -0.494498
O27   O     O_R   0.439710 0.000200 0.491930 -0.516289
O28   O     O_R   0.560290 0.000200 0.508070 -0.516401
O29   O     O_R   0.939710 0.500200 0.491930 -0.516298
O30   O     O_R   0.060290 0.500200 0.508070 -0.516345
O31   O     O_R   0.439720 0.000170 0.387560 -0.479115
O32   O     O_R   0.560280 0.000170 0.612440 -0.479093
O33   O     O_R   0.939720 0.500170 0.387560 -0.479106
O34   O     O_R   0.500010 0.447780 0.909830 -0.507099
O35   O     O_R   0.060280 0.500170 0.612440 -0.479097
O36   O     O_R   0.500000 0.090430 0.552220 -0.491163
O37   O     O_R   0.500000 0.090430 0.447780 -0.491167
O38   O     O_R   1.000000 0.590430 0.552220 -0.491164
O39   O     O_R   0.000000 0.590430 0.447780 -0.491170
O40   O     O_R   0.965130 0.909670 0.465120 -0.487435
O41   O     O_R   0.034870 0.909670 0.534880 -0.487428
O42   O     O_R   0.465130 0.409670 0.465120 -0.487435
O43   O     O_R   0.534870 0.409670 0.534880 -0.487431
O44   O     O_2   0.321866 0.890329 0.395014 -0.501084
O45   O     O_R   0.965120 0.999890 0.374970 -0.489721
O46   O     O_2   0.678168 0.889873 0.605688 -0.501333
O47   O     O_2   0.821861 0.390326 0.395007 -0.501120
O48   O     O_2   0.178154 0.390161 0.605245 -0.501194
O49   O     O_3   0.564989 0.813946 0.622009 -0.559457
O50   O     O_3   0.434983 0.813952 0.378015 -0.559357
O51   O     O_3   0.065035 0.313949 0.621944 -0.559435
O52   O     O_3   0.934955 0.313956 0.378065 -0.559396
O53   O     O_2   0.419698 0.142467 0.365550 -0.507423
O54   O     O_2   0.580303 0.142459 0.634450 -0.507419
O55   O     O_2   0.919698 0.642467 0.365550 -0.507425
O56   O     O_R   0.034880 0.999890 0.625030 -0.489712
O57   O     O_2   0.080303 0.642459 0.634450 -0.507427
O58   O     O_2   0.214635 0.892486 0.316507 -0.440804
O59   O     O_2   0.785391 0.891823 0.684240 -0.440784
O60   O     O_2   0.714631 0.392476 0.316489 -0.440821
O61   O     O_2   0.285380 0.392240 0.683777 -0.440795
O62   O     O_2   0.963232 0.857457 0.344669 -0.501529
O63   O     O_2   0.036772 0.857453 0.655331 -0.501514
O64   O     O_2   0.463231 0.357457 0.344669 -0.501531
O65   O     O_2   0.536772 0.357453 0.655332 -0.501521
O66   O     O_2   0.270960 0.980032 0.433406 -0.434879
O67   O     O_R   0.465120 0.499890 0.374970 -0.489726
O68   O     O_2   0.729043 0.978973 0.566724 -0.434892
O69   O     O_2   0.770960 0.480014 0.433405 -0.434860
O70   O     O_2   0.229040 0.479641 0.566640 -0.434884
O71   O     O_R   0.534880 0.499890 0.625030 -0.489720
O72   O     O_R   0.034900 0.999930 0.444740 -0.517654

loop_
_geom_bond_atom_site_label_1
_geom_bond_atom_site_label_2
_ccdc_geom_bond_type
C44   C137  S    
C2    H46   S    
C136  C140  A    
C51   O70   D    
C23   C112  S    
C113  O8    A    
C25   C53   S    
C13   C112  S    
C33   H69   S    
C43   H80   S    
C117  C119  A    
C4    C142  S    
C90   C134  S    
C97   O26   A    
Cu6   O10   S    
C144  H33   S    
C108  O2    A    
C99   O28   A    
C95   C133  A    
C63   H5    S    
C57   O10   A    
C69   H10   S    
C30   H59   S    
C124  H12   S    
Cu3   O42   S    
C70   C74   A    
C40   H76   S    
Cu6   O19   S    
C54   C59   T    
C134  H40   S    
C9    C46   T    
C115  O50   S    
C5    C49   S    
Cu5   O17   S    
C21   C90   S    
C96   O22   A    
C137  C140  A    
Cu4   O8    S    
C106  O43   A    
C41   C125  S    
C121  C128  A    
Cu8   O32   S    
C60   C86   S    
Cu12  O5    S    
C73   C108  S    
Cu8   O22   S    
C62   C88   S    
C19   C125  S    
C94   C132  A    
C82   C91   A    
C13   H47   S    
C8    C35   T    
Cu10  O29   S    
C19   C23   S    
Cu5   O16   S    
C90   H49   S    
C29   H57   S    
C77   H15   S    
C109  O67   A    
C78   H16   S    
C16   C58   S    
C102  O30   A    
C17   H45   S    
Cu10  Cu11  S    
Cu7   O20   S    
C101  H2    S    
Cu10  O38   S    
Cu5   O23   S    
C6    H38   S    
C32   O51   S    
C135  C137  A    
C138  C141  A    
C49   H85   S    
C99   O32   A    
C21   C35   S    
Cu2   O56   S    
C98   O27   A    
C9    C99   S    
Cu1   O1    S    
C76   H14   S    
C143  H28   S    
C57   O12   A    
C131  C138  A    
C1    O1    A    
C70   H11   S    
C105  C140  S    
C41   H77   S    
C77   C82   A    
C68   C92   S    
C116  C118  A    
C84   C93   A    
C24   C123  S    
C27   O46   D    
Cu11  O39   S    
C2    C14   S    
C5    C143  S    
C42   C126  S    
C33   H68   S    
C17   C122  S    
C116  C130  A    
C114  O49   S    
C15   C125  S    
C73   C77   A    
C64   C91   A    
C30   O49   S    
C121  H26   S    
C96   O24   A    
C116  O51   S    
C115  C121  A    
C90   H88   S    
C100  O33   A    
Cu1   O15   S    
Cu3   Cu4   S    
C102  O35   A    
C132  C139  A    
C37   H73   S    
C142  H31   S    
C39   C122  S    
C44   O63   D    
Cu10  O35   S    
C80   H17   S    
Cu5   Cu7   S    
C104  O39   A    
C65   C70   A    
C67   C72   A    
C126  H34   S    
C8    C98   S    
C68   O23   A    
C61   C87   S    
Cu1   O12   S    
Cu1   Cu6   S    
C31   O50   S    
C31   H62   S    
C67   H9    S    
C14   C55   S    
C12   C134  S    
C83   H20   S    
C63   C89   A    
C103  O36   A    
Cu11  O30   S    
C144  H29   S    
C40   C124  S    
C14   C124  S    
C42   O61   D    
C79   O13   A    
Cu9   O24   S    
Cu4   O3    S    
C105  O41   A    
C40   O59   D    
C59   C85   S    
C125  H23   S    
C42   H79   S    
C36   O54   D    
C65   H7    S    
C66   H8    S    
Cu9   O31   S    
C64   C69   A    
C6    C50   S    
C48   O66   D    
C19   C28   S    
C25   C123  S    
C29   O48   D    
C32   H64   S    
C66   C93   A    
C47   H83   S    
C118  H22   S    
C34   C131  S    
C110  O71   A    
C118  C127  A    
C6    C144  S    
Cu11  O26   S    
Cu7   O13   S    
C75   C110  S    
C18   C22   S    
C51   H87   S    
C112  H51   S    
Cu3   O4    S    
C113  O7    A    
Cu11  O33   S    
Cu2   O41   S    
Cu12  O2    S    
C139  C141  A    
C68   O11   A    
C97   O25   A    
C23   C52   S    
C79   O34   A    
C45   C138  S    
C123  H52   S    
C84   H21   S    
C114  C120  A    
C101  H50   S    
C30   H60   S    
C82   H19   S    
C109  O3    A    
Cu3   O67   S    
C96   C129  S    
C3    C16   S    
C119  C127  A    
C58   C62   T    
C37   O55   D    
C2    H41   S    
C143  H32   S    
C4    H36   S    
C85   O18   A    
C80   C84   A    
C10   C52   T    
C32   H65   S    
C113  C128  S    
C111  O6    A    
Cu3   O7    S    
C22   C101  S    
C39   O58   D    
C97   C130  S    
C3    C7    S    
C115  C129  A    
C88   O21   A    
C20   C25   S    
Cu8   O27   S    
C104  O38   A    
C50   O69   D    
C78   C83   A    
C71   H13   S    
C69   C73   A    
C49   O68   D    
C81   C89   A    
C142  H27   S    
C55   C60   T    
C48   H84   S    
C41   O60   D    
C1    O9    A    
C31   H63   S    
C19   H67   S    
C33   H70   S    
Cu12  O40   S    
Cu6   O9    S    
C27   H54   S    
C28   H55   S    
C26   O44   D    
C30   H58   S    
C66   C71   A    
C38   C135  S    
C10   C100  S    
Cu6   O18   S    
C22   C46   S    
C94   C103  S    
C114  C129  A    
Cu9   O28   S    
C119  H24   S    
C7    H39   S    
C86   O19   A    
C106  C141  S    
C5    H37   S    
C110  O4    A    
C14   C143  S    
C38   O57   D    
C57   C91   S    
Cu1   O14   S    
C106  O42   A    
C28   O47   D    
C87   O16   A    
C120  C128  A    
C94   C131  A    
C7    C25   S    
C47   O65   D    
C36   C132  S    
C7    C51   S    
C15   C56   S    
C122  H1    S    
C12   C142  S    
C11   C102  S    
C17   C21   S    
C33   O52   S    
C98   O31   A    
C12   C122  S    
C74   C78   A    
C47   C139  S    
C56   C61   T    
C45   O64   D    
C16   C126  S    
C12   C54   S    
C31   H61   S    
C65   C92   A    
C112  H3    S    
C72   C76   A    
C44   H81   S    
C74   C109  S    
C38   H74   S    
C134  H44   S    
C83   C92   A    
Cu2   O6    S    
C17   C26   S    
C79   C93   S    
C123  H4    S    
C105  O40   A    
C4    C48   S    
C45   H82   S    
Cu8   O36   S    
C107  O72   A    
Cu7   O21   S    
C5    C22   S    
C24   H43   S    
Cu4   O43   S    
C133  C136  A    
C43   O62   D    
C85   O14   A    
Cu10  O25   S    
C120  H25   S    
C11   C53   T    
C36   H72   S    
C43   C136  S    
C88   O17   A    
C20   C29   S    
C108  O56   A    
C63   C67   A    
C13   H42   S    
C117  O52   S    
Cu9   O37   S    
C64   H6    S    
C2    C101  S    
C18   H56   S    
C39   H75   S    
C3    H35   S    
C72   C107  S    
C95   C135  A    
Cu5   O34   S    
Cu8   Cu9   S    
C117  C130  A    
C20   H78   S    
C13   C15   S    
C111  C127  S    
C37   C133  S    
C3    H30   S    
C95   C104  S    
Cu7   O11   S    
C75   C80   A    
C24   H48   S    
C1    C89   S    
C18   C27   S    
C50   H86   S    
C76   C81   A    
C32   H66   S    
C111  O5    A    
C100  O29   A    
C81   H18   S    
C34   H71   S    
Cu4   O71   S    
C71   C75   A    
C4    C21   S    
C34   O53   D    
C6    C23   S    
Cu2   O72   S    
Cu12  O45   S    
C26   H53   S    
C86   O15   A    
C15   C144  S    
Cu2   Cu12  S    
C16   C24   S    
C20   C126  S    
C87   O20   A    
C103  O37   A    
C107  O45   A    
C18   C124  S    
