data_mof_unit_19065.cif
_audit_creation_date              2012-12-11T17:25:02-0500
_audit_creation_method            fapswitch 2.2
_symmetry_space_group_name_H-M    P1
_symmetry_Int_Tables_number       1
_space_group_crystal_system       triclinic
_cell_length_a                    6.945838
_cell_length_b                    20.540221
_cell_length_c                    24.393159
_cell_angle_alpha                 90.36837
_cell_angle_beta                  90.285108
_cell_angle_gamma                 89.262944
_cell_volume                      3479.74721991

loop_
_atom_site_label
_atom_site_type_symbol
_atom_type_description
_atom_site_fract_x
_atom_site_fract_y
_atom_site_fract_z
_atom_type_partial_charge
O1    O     O_R   0.507280 0.423750 0.460310 -0.536713
O2    O     O_R   0.171030 0.555650 0.437630 -0.545054
O3    O     O_R   0.004080 0.576250 0.539690 -0.518449
C1    C     C_R   0.339074 0.575529 0.421696 0.758497
O4    O     O_R   0.177330 0.422980 0.453960 -0.552317
O5    O     O_R   0.010420 0.442640 0.556140 -0.532990
C2    C     C_R   0.346115 0.398679 0.443526 0.767961
O6    O     O_R   0.500930 0.557360 0.443860 -0.523903
O7    O     O_3   0.340310 0.506600 0.533500 -0.360385
V1    V     V_3+5 0.064140 0.498780 0.493780 1.521437
O8    O     O_R   0.680890 0.444350 0.562370 -0.543038
C3    C     C_R   0.850594 0.424377 0.578148 0.714598
O9    O     O_R   0.674590 0.577020 0.546040 -0.531161
C4    C     C_R   0.841456 0.601291 0.556851 0.889251
V2    V     V_3+5 0.564550 0.501220 0.506220 1.556562
O10   O     O_3   0.838250 0.493400 0.466500 -0.381934
C5    C     C_R   0.980200 0.836726 0.911867 -0.390554
C6    C     C_R   0.834712 0.661916 0.590343 -0.401450
C7    C     C_R   0.085177 0.723441 0.906497 0.442660
C8    C     C_R   0.057676 0.781188 0.936579 0.411931
C9    C     C_R   0.919737 0.833689 0.856884 0.569866
C10   C     C_R   0.920022 0.773311 0.827496 -0.152381
C11   C     C_R   0.014869 0.718647 0.851727 -0.316180
C12   C     C_R   0.833952 0.766191 0.774157 -0.147864
C13   C     C_R   0.883282 0.711220 0.740694 -0.146303
C14   C     C_R   0.963126 0.656389 0.767292 0.604800
C15   C     C_R   0.035271 0.660280 0.821014 0.404322
C16   C     C_R   0.682557 0.807774 0.755420 0.517158
C17   C     C_R   0.621533 0.805329 0.700632 0.448462
C18   C     C_R   0.706046 0.760385 0.663532 -0.374458
C19   C     C_R   0.833514 0.710874 0.683317 -0.135971
C20   C     C_R   0.657618 0.762367 0.607257 0.638524
C21   C     C_R   0.715800 0.712675 0.571929 0.472922
C22   C     C_R   0.906646 0.663953 0.644445 0.607051
H1    H     H_    0.631411 0.227632 0.808486 0.209465
C23   C     C_R   0.737649 0.281551 0.739803 -0.162832
H2    H     H_    0.600390 0.305709 0.732574 0.216253
C24   C     C_R   0.895855 0.294781 0.706238 -0.106016
C25   C     C_R   0.072367 0.262714 0.716564 0.554424
C26   C     C_R   0.090001 0.218069 0.759869 0.569905
C27   C     C_R   0.931363 0.204903 0.793436 -0.105184
C28   C     C_R   0.755314 0.237003 0.783061 -0.174590
C29   C     C_1   0.876912 0.340938 0.661328 0.125654
C30   C     C_1   0.948386 0.158851 0.838479 0.123562
C31   C     C_1   0.961175 0.120660 0.876261 -0.127086
C32   C     C_1   0.863258 0.379189 0.623613 -0.126656
C33   C     C_R   0.553655 0.796013 0.251900 -0.315155
H3    H     H_    0.661376 0.833549 0.255173 0.181461
C34   C     C_R   0.436370 0.792835 0.205026 -0.093109
C35   C     C_R   0.293389 0.744760 0.201853 0.396552
C36   C     C_R   0.274794 0.698633 0.244530 0.265845
C37   C     C_R   0.389744 0.703320 0.292252 -0.132692
C38   C     C_R   0.532927 0.751296 0.295127 0.445601
C39   C     C_1   0.460318 0.839716 0.160729 0.087971
C40   C     C_1   0.364998 0.657924 0.337677 0.108040
C41   C     C_1   0.349141 0.620276 0.375748 -0.135195
C42   C     C_1   0.475568 0.878506 0.123442 -0.125623
C43   C     C_R   0.467718 0.162100 0.088932 -0.277932
C44   C     C_R   0.346702 0.337083 0.411911 -0.226325
C45   C     C_R   0.477395 0.279724 0.091188 0.728337
C46   C     C_R   0.481339 0.221331 0.061897 -0.362767
C47   C     C_R   0.445992 0.161324 0.146136 0.711201
C48   C     C_R   0.419796 0.220470 0.176410 -0.119843
C49   C     C_R   0.449248 0.280207 0.148616 -0.267526
C50   C     C_R   0.368298 0.222280 0.233297 -0.189710
C51   C     C_R   0.389442 0.281111 0.264254 -0.181830
C52   C     C_R   0.411906 0.339548 0.234857 0.585415
C53   C     C_R   0.446333 0.339272 0.178394 0.394315
C54   C     C_R   0.273414 0.169991 0.258550 0.656319
C55   C     C_R   0.224606 0.172290 0.313697 0.582062
C56   C     C_R   0.268990 0.226571 0.346506 -0.265871
C57   C     C_R   0.362094 0.280806 0.322654 -0.109258
C58   C     C_R   0.215619 0.228543 0.402412 0.529066
C59   C     C_R   0.243460 0.285291 0.433021 -0.356434
C60   C     C_R   0.422023 0.332559 0.358484 0.536465
H4    H     H_    0.183993 0.288795 0.473965 0.158202
H5    H     H_    0.499749 0.222264 0.017816 0.170043
O11   O     O_R   0.323320 0.942780 0.056240 -0.524839
O12   O     O_R   0.647300 0.077050 0.046060 -0.537337
O13   O     O_R   0.813840 0.057330 0.943840 -0.540043
C61   C     C_R   0.477997 0.101137 0.056770 0.811475
O14   O     O_R   0.653250 0.944380 0.062400 -0.541555
O15   O     O_R   0.819830 0.923720 0.960300 -0.537502
C62   C     C_R   0.485264 0.924284 0.078188 0.759813
O16   O     O_R   0.317330 0.076390 0.039790 -0.540188
O17   O     O_3   0.483830 0.993470 0.966560 -0.373809
V3    V     V_3+5 0.760140 0.001210 0.006210 1.546053
O18   O     O_R   0.149290 0.922840 0.953850 -0.537482
C63   C     C_R   0.981741 0.898938 0.942868 0.898675
O19   O     O_R   0.143340 0.055500 0.937510 -0.539682
C64   C     C_R   0.973654 0.075517 0.921767 0.722288
V4    V     V_3+5 0.259690 0.998600 0.993650 1.555722
O20   O     O_3   0.986130 0.006520 0.033440 -0.369771
O21   O     O_3   0.113968 0.604928 0.844942 -0.504477
C65   C     C_3   0.289031 0.588194 0.818734 -0.040966
H6    H     H_    0.379647 0.631389 0.810314 0.062437
H7    H     H_    0.261944 0.560873 0.780107 0.196860
H8    H     H_    0.373316 0.555676 0.846225 0.158592
F1    F     F_    0.546565 0.811089 0.586140 -0.577265
F2    F     F_    0.227510 0.274591 0.684672 -0.657564
F3    F     F_    0.261785 0.187674 0.768998 -0.646905
O22   O     O_3   0.645107 0.756875 0.341891 -0.516949
C66   C     C_3   0.831355 0.732407 0.330448 -0.094459
H9    H     H_    0.907738 0.764256 0.301217 0.117056
H10   H     H_    0.827063 0.681466 0.314567 0.134352
H11   H     H_    0.916067 0.731727 0.369118 0.183478
O23   O     O_3   0.179128 0.740283 0.155415 -0.525866
C67   C     C_3   0.001892 0.772108 0.165913 -0.115106
H12   H     H_    0.022425 0.823759 0.178598 0.117004
H13   H     H_    0.918132 0.745833 0.197357 0.136318
H14   H     H_    0.915272 0.772355 0.127581 0.179150
O24   O     O_3   0.136343 0.651051 0.240622 -0.561444
C68   C     C_3   0.217504 0.596527 0.213503 -0.123144
H15   H     H_    0.342697 0.576136 0.236680 0.141031
H16   H     H_    0.260693 0.608654 0.170928 0.168389
H17   H     H_    0.107295 0.558010 0.210784 0.170471
O25   O     O_3   0.462398 0.398212 0.151741 -0.497959
C69   C     C_3   0.650189 0.421788 0.160289 -0.036112
H18   H     H_    0.761156 0.386478 0.145182 0.126943
H19   H     H_    0.676581 0.433686 0.204228 0.134070
H20   H     H_    0.666026 0.467388 0.136709 0.161538
F4    F     F_    0.052381 0.622000 0.656996 -0.633961
O26   O     O_3   0.553539 0.378621 0.342459 -0.524368
C70   C     C_3   0.740036 0.350944 0.346254 -0.172517
H21   H     H_    0.758772 0.309453 0.317124 0.129814
H22   H     H_    0.773556 0.335127 0.388879 0.127026
H23   H     H_    0.846157 0.388483 0.335136 0.167816
F5    F     F_    0.127855 0.120910 0.334280 -0.578225
F6    F     F_    0.498607 0.335622 0.062565 -0.626453
F7    F     F_    0.471127 0.103339 0.171801 -0.621808
F8    F     F_    0.370505 0.398177 0.258268 -0.657324
F9    F     F_    0.197823 0.120426 0.228756 -0.579146
O27   O     O_3   0.114921 0.178102 0.425620 -0.515536
C71   C     C_3   0.238741 0.144230 0.461830 -0.032727
H24   H     H_    0.278705 0.175017 0.497701 0.105875
H25   H     H_    0.370393 0.125958 0.440496 0.146509
H26   H     H_    0.161795 0.101300 0.477636 0.184450
F10   F     F_    0.650116 0.712902 0.519356 -0.618239
O28   O     O_3   0.480391 0.849049 0.683484 -0.486024
C72   C     C_3   0.298786 0.818926 0.686025 0.009991
H27   H     H_    0.299219 0.769073 0.667720 0.103366
H28   H     H_    0.193558 0.848700 0.662360 0.184928
H29   H     H_    0.246578 0.817305 0.728866 0.107308
O29   O     O_3   0.167351 0.670139 0.932524 -0.491843
C73   C     C_3   0.368199 0.678975 0.936661 -0.046642
H30   H     H_    0.404176 0.718628 0.966008 0.162327
H31   H     H_    0.433640 0.688713 0.896069 0.057813
H32   H     H_    0.434877 0.633406 0.952425 0.167652
F11   F     F_    0.111533 0.783529 0.990203 -0.667220
F12   F     F_    0.879186 0.890742 0.831198 -0.630998
F13   F     F_    0.942309 0.595900 0.745577 -0.625822
O30   O     O_3   0.578861 0.848069 0.790612 -0.485084
C74   C     C_3   0.463789 0.810050 0.825427 -0.145382
H33   H     H_    0.547108 0.793894 0.861860 0.115200
H34   H     H_    0.400377 0.766943 0.804393 0.051860
H35   H     H_    0.342785 0.840893 0.840452 0.166674

loop_
_geom_bond_atom_site_label_1
_geom_bond_atom_site_label_2
_ccdc_geom_bond_type
C43   C47   A    
O15   V3    S    
C40   C41   T    
C48   C50   A    
C13   C19   A    
C7    O29   S    
C27   C28   A    
C4    C6    S    
C23   C28   A    
C65   H6    S    
C72   H29   S    
C1    O6    A    
C71   H26   S    
O12   V3    S    
C73   H30   S    
C25   F2    S    
C65   H8    S    
O26   C70   S    
C33   C34   A    
C8    F11   S    
C14   C15   A    
C47   C48   A    
C59   H4    S    
C60   O26   S    
C49   C53   A    
C16   C17   A    
C72   H28   S    
O13   V3    S    
O5    C3    A    
C18   C19   A    
C29   C32   T    
C34   C39   S    
C5    C8    A    
C67   H12   S    
C58   C59   A    
H1    C28   S    
C47   F7    S    
C69   H18   S    
C26   F3    S    
O8    V2    S    
C51   C57   A    
O18   V4    S    
C46   H5    S    
O23   C67   S    
C55   C56   A    
O1    V2    S    
C11   C15   A    
C74   H34   S    
O7    V1    S    
C38   O22   S    
C37   C40   S    
C33   C38   A    
C68   H17   S    
C43   C46   A    
C51   C52   A    
C22   F4    S    
O9    C4    A    
C1    C41   S    
O22   C66   S    
C57   C60   A    
O15   C63   A    
C2    C44   S    
O24   C68   S    
C73   H31   S    
O16   V4    S    
O4    C2    A    
C24   C25   A    
C17   O28   S    
C19   C22   A    
V2    O10   S    
C52   C53   A    
C5    C63   S    
C12   C13   A    
C3    C32   S    
C43   C61   S    
C25   C26   A    
O12   C61   A    
O17   V3    S    
C71   H25   S    
O11   V4    S    
C13   C14   A    
C5    C9    A    
C36   C37   A    
C45   C46   A    
C69   H20   S    
O2    C1    A    
C17   C18   A    
C53   O25   S    
O19   V4    S    
C33   H3    S    
C36   O24   S    
C21   F10   S    
O28   C72   S    
C35   C36   A    
C42   C62   S    
O21   C65   S    
C66   H10   S    
C9    F12   S    
C72   H27   S    
C74   H35   S    
C6    C22   A    
C44   C59   A    
O3    C4    A    
C70   H23   S    
C26   C27   A    
C58   O27   S    
C16   O30   S    
O6    V2    S    
O14   C62   A    
O9    V2    S    
C35   O23   S    
C27   C30   S    
C10   C12   A    
O2    V1    S    
C20   F1    S    
C44   C60   A    
C73   H32   S    
C37   C38   A    
C7    C11   A    
C70   H22   S    
C68   H15   S    
C55   F5    S    
C14   F13   S    
O1    C2    A    
C52   F8    S    
C30   C31   T    
C12   C16   A    
O29   C73   S    
C45   F6    S    
O5    V1    S    
O8    C3    A    
C65   H7    S    
C71   H24   S    
C67   H14   S    
C45   C49   A    
C20   C21   A    
C7    C8    A    
C23   C24   A    
O7    V2    S    
C24   C29   S    
O3    V1    S    
O17   V4    S    
O25   C69   S    
C18   C20   A    
O19   C64   A    
O27   C71   S    
O13   C64   A    
C54   F9    S    
C50   C54   A    
V3    O20   S    
V4    O20   S    
C67   H13   S    
C66   H11   S    
C50   C51   A    
C54   C55   A    
C31   C64   S    
C6    C21   A    
C69   H19   S    
C48   C49   A    
O11   C62   A    
O4    V1    S    
C56   C57   A    
O18   C63   A    
C23   H2    S    
C34   C35   A    
C56   C58   A    
C66   H9    S    
C10   C11   A    
C15   O21   S    
V1    O10   S    
O30   C74   S    
C74   H33   S    
C9    C10   A    
C61   O16   A    
O14   V3    S    
C70   H21   S    
C68   H16   S    
C39   C42   T    
