data_mof_unit_61010.cif
_audit_creation_date              2012-12-10T19:58:53-0500
_audit_creation_method            fapswitch 2.2
_symmetry_space_group_name_H-M    P1
_symmetry_Int_Tables_number       1
_space_group_crystal_system       triclinic
_cell_length_a                    18.4168
_cell_length_b                    18.4168
_cell_length_c                    22.411516
_cell_angle_alpha                 89.999924
_cell_angle_beta                  89.999924
_cell_angle_gamma                 89.998299
_cell_volume                      7601.50487467

loop_
_atom_site_label
_atom_site_type_symbol
_atom_type_description
_atom_site_fract_x
_atom_site_fract_y
_atom_site_fract_z
_atom_type_partial_charge
Br1   Br    Br    0.760229 0.632238 0.345566 -0.345074
Br2   Br    Br    0.868145 0.259826 0.845693 -0.344991
Br3   Br    Br    0.739774 0.867765 0.845566 -0.345073
Br4   Br    Br    0.131855 0.740175 0.845693 -0.344990
Br5   Br    Br    0.740175 0.131855 0.845693 -0.344990
Br6   Br    Br    0.132238 0.260229 0.845566 -0.345074
Br7   Br    Br    0.259826 0.868145 0.845693 -0.344991
Br8   Br    Br    0.867765 0.739774 0.845566 -0.345073
Br9   Br    Br    0.368145 0.759826 0.345693 -0.344991
Br10  Br    Br    0.239774 0.367765 0.345566 -0.345073
Br11  Br    Br    0.631855 0.240175 0.345693 -0.344990
Br12  Br    Br    0.240175 0.631855 0.345693 -0.344990
Br13  Br    Br    0.632238 0.760229 0.345566 -0.345074
Br14  Br    Br    0.759826 0.368145 0.345693 -0.344991
Br15  Br    Br    0.367765 0.239774 0.345566 -0.345073
Br16  Br    Br    0.260229 0.132238 0.845566 -0.345074
C1    C     C_R   0.500000 0.000000 0.340111 0.529926
C2    C     C_R   0.860125 0.640113 0.499875 0.519326
C3    C     C_R   0.359886 0.860124 0.499871 0.519272
C4    C     C_R   0.139875 0.359887 0.499875 0.519325
C5    C     C_R   0.359887 0.139875 0.499875 0.519325
C6    C     C_R   0.139876 0.640114 0.499871 0.519271
C7    C     C_R   0.640113 0.860125 0.499875 0.519326
C8    C     C_R   0.860124 0.359886 0.499871 0.519272
C9    C     C_R   0.140114 0.639876 0.999871 0.519271
C10   C     C_R   0.360125 0.140113 0.999875 0.519326
C11   C     C_R   0.859886 0.360124 0.999871 0.519272
C12   C     C_R   0.000000 0.500000 0.340111 0.529926
C13   C     C_R   0.639875 0.859887 0.999875 0.519325
C14   C     C_R   0.859887 0.639875 0.999875 0.519325
C15   C     C_R   0.639876 0.140114 0.999871 0.519271
C16   C     C_R   0.140113 0.360125 0.999875 0.519326
C17   C     C_R   0.360124 0.859886 0.999871 0.519272
C18   C     C_R   0.693642 0.745517 0.461987 0.007594
C19   C     C_R   0.254539 0.693587 0.462037 0.007705
C20   C     C_R   0.306359 0.254483 0.461988 0.007594
C21   C     C_R   0.745462 0.306413 0.462037 0.007706
C22   C     C_R   0.306413 0.745462 0.462037 0.007706
C23   C     C_R   0.000000 0.500000 0.840111 0.529926
C24   C     C_R   0.745517 0.693642 0.461987 0.007594
C25   C     C_R   0.693587 0.254539 0.462037 0.007705
C26   C     C_R   0.254483 0.306359 0.461988 0.007594
C27   C     C_R   0.193642 0.245517 0.961987 0.007594
C28   C     C_R   0.754539 0.193587 0.962037 0.007705
C29   C     C_R   0.806359 0.754483 0.961988 0.007594
C30   C     C_R   0.245462 0.806413 0.962037 0.007705
C31   C     C_R   0.806413 0.245462 0.962037 0.007706
C32   C     C_R   0.245517 0.193642 0.961987 0.007594
C33   C     C_R   0.193587 0.754539 0.962037 0.007705
C34   C     C_R   0.500000 0.000000 0.840111 0.529926
C35   C     C_R   0.754483 0.806359 0.961988 0.007594
C36   C     C_R   0.696992 0.805887 0.499062 0.028898
C37   C     C_R   0.194103 0.697004 0.499035 0.028855
C38   C     C_R   0.303008 0.194113 0.499062 0.028898
C39   C     C_R   0.805897 0.302996 0.499035 0.028855
C40   C     C_R   0.302996 0.805897 0.499035 0.028855
C41   C     C_R   0.805887 0.696992 0.499062 0.028898
C42   C     C_R   0.697004 0.194103 0.499035 0.028855
C43   C     C_R   0.194113 0.303008 0.499062 0.028898
C44   C     C_R   0.196992 0.305887 0.999062 0.028898
C45   C     C_R   0.500000 0.000000 0.659903 0.514031
C46   C     C_R   0.694103 0.197004 0.999035 0.028855
C47   C     C_R   0.803008 0.694113 0.999062 0.028898
C48   C     C_R   0.305897 0.802996 0.999035 0.028855
C49   C     C_R   0.802996 0.305897 0.999035 0.028855
C50   C     C_R   0.305887 0.196992 0.999062 0.028898
C51   C     C_R   0.197004 0.694102 0.999035 0.028855
C52   C     C_R   0.694113 0.803008 0.999062 0.028898
C53   C     C_R   0.758601 0.812568 0.536200 -0.138107
C54   C     C_R   0.187342 0.758692 0.536076 -0.138112
C55   C     C_R   0.241398 0.187431 0.536199 -0.138107
C56   C     C_R   1.000000 0.500000 0.659903 0.514031
C57   C     C_R   0.812658 0.241307 0.536076 -0.138112
C58   C     C_R   0.241307 0.812658 0.536076 -0.138112
C59   C     C_R   0.812568 0.758601 0.536200 -0.138107
C60   C     C_R   0.758692 0.187342 0.536076 -0.138112
C61   C     C_R   0.187431 0.241398 0.536199 -0.138107
C62   C     C_R   0.258601 0.312568 0.036200 -0.138107
C63   C     C_R   0.687342 0.258692 0.036076 -0.138112
C64   C     C_R   0.741398 0.687431 0.036199 -0.138107
C65   C     C_R   0.312658 0.741307 0.036076 -0.138112
C66   C     C_R   0.741307 0.312658 0.036076 -0.138112
C67   C     C_R   1.000000 0.500000 0.159903 0.514031
C68   C     C_R   0.312568 0.258601 0.036200 -0.138107
C69   C     C_R   0.258692 0.687342 0.036076 -0.138112
C70   C     C_R   0.687431 0.741398 0.036199 -0.138107
C71   C     C_1   1.000000 0.500000 0.276725 0.037827
C72   C     C_1   0.500000 0.000000 0.276725 0.037827
C73   C     C_1   0.500000 0.000000 0.776725 0.037827
C74   C     C_1   0.000000 0.500000 0.776725 0.037827
C75   C     C_1   0.500000 0.000000 0.723297 0.025747
C76   C     C_1   0.000000 0.500000 0.723297 0.025747
C77   C     C_1   1.000000 0.500000 0.223297 0.025747
C78   C     C_R   0.500000 1.000000 0.159903 0.514031
C79   C     C_1   0.500000 1.000000 0.223297 0.025747
C80   C     C_3   0.705705 0.646115 0.419197 0.084570
C81   C     C_3   0.354059 0.705529 0.419406 0.084481
C82   C     C_3   0.294296 0.353887 0.419198 0.084570
C83   C     C_3   0.645941 0.294472 0.419406 0.084480
C84   C     C_3   0.294472 0.645941 0.419406 0.084480
C85   C     C_3   0.646115 0.705705 0.419197 0.084570
C86   C     C_3   0.705529 0.354059 0.419406 0.084481
C87   C     C_3   0.353887 0.294296 0.419198 0.084570
C88   C     C_3   0.205705 0.146115 0.919197 0.084570
C89   C     C_R   0.640114 0.139876 0.499871 0.519271
C90   C     C_3   0.854059 0.205529 0.919406 0.084481
C91   C     C_3   0.794296 0.853887 0.919198 0.084570
C92   C     C_3   0.145941 0.794472 0.919406 0.084480
C93   C     C_3   0.794472 0.145941 0.919406 0.084480
C94   C     C_3   0.146114 0.205705 0.919197 0.084570
C95   C     C_3   0.205529 0.854059 0.919406 0.084481
C96   C     C_3   0.853887 0.794296 0.919198 0.084570
H1    H     H_    0.687769 0.594592 0.440425 0.104227
H2    H     H_    0.905528 0.187641 0.940752 0.104036
H3    H     H_    0.812232 0.905409 0.940427 0.104226
H4    H     H_    0.094473 0.812359 0.940752 0.104037
H5    H     H_    0.812359 0.094473 0.940752 0.104037
H6    H     H_    0.094592 0.187769 0.940425 0.104227
H7    H     H_    0.187641 0.905528 0.940752 0.104036
H8    H     H_    0.905409 0.812232 0.940427 0.104226
H9    H     H_    0.764899 0.858730 0.565683 0.165616
H10   H     H_    0.141120 0.765052 0.565490 0.165578
H11   H     H_    0.235100 0.141269 0.565681 0.165616
H12   H     H_    0.405528 0.687642 0.440752 0.104036
H13   H     H_    0.858880 0.234947 0.565490 0.165578
H14   H     H_    0.234947 0.858880 0.565490 0.165578
H15   H     H_    0.858730 0.764899 0.565683 0.165616
H16   H     H_    0.765052 0.141120 0.565490 0.165578
H17   H     H_    0.141269 0.235100 0.565681 0.165616
H18   H     H_    0.264899 0.358730 0.065683 0.165616
H19   H     H_    0.641120 0.265052 0.065490 0.165578
H20   H     H_    0.735100 0.641269 0.065682 0.165616
H21   H     H_    0.358880 0.734947 0.065490 0.165578
H22   H     H_    0.734947 0.358880 0.065490 0.165578
H23   H     H_    0.312232 0.405409 0.440427 0.104226
H24   H     H_    0.358730 0.264899 0.065683 0.165616
H25   H     H_    0.265052 0.641120 0.065490 0.165578
H26   H     H_    0.641269 0.735100 0.065682 0.165616
H27   H     H_    0.594473 0.312359 0.440752 0.104037
H28   H     H_    0.312359 0.594473 0.440752 0.104037
H29   H     H_    0.594592 0.687769 0.440425 0.104227
H30   H     H_    0.687642 0.405528 0.440752 0.104036
H31   H     H_    0.405409 0.312232 0.440427 0.104226
H32   H     H_    0.187769 0.094592 0.940425 0.104227
O1    O     O_3   0.500000 0.000000 0.500000 -0.470799
O2    O     O_R   0.560750 0.000000 0.867980 -0.497774
O3    O     O_R   1.000000 0.560750 0.867980 -0.497774
O4    O     O_R   0.439250 0.000000 0.867980 -0.497774
O5    O     O_R   0.560720 0.000000 0.632020 -0.526095
O6    O     O_R   1.000000 0.560720 0.632020 -0.526095
O7    O     O_R   0.439280 0.000000 0.632020 -0.526095
O8    O     O_R   0.000000 0.439280 0.632020 -0.526095
O9    O     O_R   0.060720 0.500000 0.132020 -0.526095
O10   O     O_R   0.500000 0.060720 0.132020 -0.526095
O11   O     O_R   0.939280 0.500000 0.132020 -0.526095
O12   O     O_3   0.000000 0.500000 0.500000 -0.470799
O13   O     O_R   0.500000 0.939280 0.132020 -0.526095
O14   O     O_R   0.585450 0.146130 0.465380 -0.514246
O15   O     O_R   0.853870 0.585450 0.465380 -0.514271
O16   O     O_R   0.414550 0.853870 0.465380 -0.514246
O17   O     O_R   0.146130 0.414550 0.465380 -0.514270
O18   O     O_R   0.414550 0.146130 0.465380 -0.514270
O19   O     O_R   0.146130 0.585450 0.465380 -0.514246
O20   O     O_R   0.585450 0.853870 0.465380 -0.514271
O21   O     O_R   0.853870 0.414550 0.465380 -0.514246
O22   O     O_R   0.085450 0.646130 0.965380 -0.514246
O23   O     O_3   0.000000 0.500000 0.000000 -0.470799
O24   O     O_R   0.353870 0.085450 0.965380 -0.514271
O25   O     O_R   0.914550 0.353870 0.965380 -0.514246
O26   O     O_R   0.646130 0.914550 0.965380 -0.514270
O27   O     O_R   0.914550 0.646130 0.965380 -0.514270
O28   O     O_R   0.646130 0.085450 0.965380 -0.514246
O29   O     O_R   0.085450 0.353870 0.965380 -0.514271
O30   O     O_R   0.353870 0.914550 0.965380 -0.514246
O31   O     O_R   0.353850 0.914510 0.534610 -0.547333
O32   O     O_R   0.085490 0.353850 0.534610 -0.547346
O33   O     O_R   0.646150 0.085490 0.534610 -0.547333
O34   O     O_3   0.500000 0.000000 0.000000 -0.470799
O35   O     O_R   0.914510 0.646150 0.534610 -0.547346
O36   O     O_R   0.646150 0.914510 0.534610 -0.547346
O37   O     O_R   0.914510 0.353850 0.534610 -0.547333
O38   O     O_R   0.353850 0.085490 0.534610 -0.547346
O39   O     O_R   0.085490 0.646150 0.534610 -0.547333
O40   O     O_R   0.853850 0.414510 0.034610 -0.547333
O41   O     O_R   0.585490 0.853850 0.034610 -0.547346
O42   O     O_R   0.146150 0.585490 0.034610 -0.547333
O43   O     O_R   0.414510 0.146150 0.034610 -0.547346
O44   O     O_R   0.146150 0.414510 0.034610 -0.547346
O45   O     O_R   0.500000 0.939250 0.367980 -0.497774
O46   O     O_R   0.414510 0.853850 0.034610 -0.547333
O47   O     O_R   0.853850 0.585490 0.034610 -0.547346
O48   O     O_R   0.585490 0.146150 0.034610 -0.547333
O49   O     O_R   0.060750 0.500000 0.367980 -0.497774
O50   O     O_R   0.500000 0.060750 0.367980 -0.497774
O51   O     O_R   0.939250 0.500000 0.367980 -0.497774
O52   O     O_R   1.000000 0.439250 0.867980 -0.497774
Zn1   Zn    Zn3+2 0.586760 0.000000 0.549450 0.963488
Zn2   Zn    Zn3+2 0.913280 0.500000 0.450540 1.011336
Zn3   Zn    Zn3+2 0.500000 0.913280 0.450540 1.011336
Zn4   Zn    Zn3+2 0.086720 0.500000 0.450540 1.011337
Zn5   Zn    Zn3+2 1.000000 0.586720 0.950540 1.011337
Zn6   Zn    Zn3+2 0.413280 0.000000 0.950540 1.011336
Zn7   Zn    Zn3+2 1.000000 0.413280 0.950540 1.011336
Zn8   Zn    Zn3+2 0.586720 0.000000 0.950540 1.011337
Zn9   Zn    Zn3+2 0.000000 0.586760 0.549450 0.963488
Zn10  Zn    Zn3+2 0.413240 0.000000 0.549450 0.963488
Zn11  Zn    Zn3+2 1.000000 0.413240 0.549450 0.963488
Zn12  Zn    Zn3+2 0.086760 0.500000 0.049450 0.963488
Zn13  Zn    Zn3+2 0.500000 0.086760 0.049450 0.963488
Zn14  Zn    Zn3+2 0.913240 0.500000 0.049450 0.963488
Zn15  Zn    Zn3+2 0.500000 0.913240 0.049450 0.963488
Zn16  Zn    Zn3+2 0.500000 0.086720 0.450540 1.011337

loop_
_geom_bond_atom_site_label_1
_geom_bond_atom_site_label_2
_ccdc_geom_bond_type
C3    C40   S    
O35   Zn9   S    
O27   Zn5   S    
C64   H20   S    
O34   Zn8   S    
C19   C37   A    
C1    C72   S    
C52   C70   A    
C91   C96   S    
O8    Zn11  S    
C20   C26   A    
C9    C51   S    
C92   H4    S    
C83   H27   S    
C43   C61   A    
C49   C66   A    
C29   C96   S    
C93   H5    S    
C4    O32   A    
C8    C39   S    
Br4   C92   S    
C30   C33   A    
C10   O24   A    
Br5   C93   S    
C90   H2    S    
C20   C87   S    
C18   C24   A    
C3    O16   A    
O32   Zn11  S    
C55   H11   S    
O37   Zn11  S    
C25   C42   A    
O1    Zn3   S    
C81   H12   S    
C26   C82   S    
C21   C86   S    
C56   C76   S    
C57   H13   S    
Br14  C86   S    
C67   O11   A    
C15   O28   A    
C29   C35   A    
C82   C87   S    
C67   C77   S    
O30   Zn6   S    
C12   O51   A    
Br11  C83   S    
O28   Zn8   S    
O12   Zn11  S    
C32   C50   A    
C11   O40   A    
O2    Zn8   S    
C36   C53   A    
C84   H28   S    
C85   H29   S    
Br16  C88   S    
O15   Zn2   S    
C68   H24   S    
C38   C55   A    
O43   Zn13  S    
O24   Zn6   S    
C56   O8    A    
C54   C58   A    
C64   C70   A    
O41   Zn15  S    
C41   C59   A    
C2    O15   A    
C27   C94   S    
O23   Zn7   S    
C13   O26   A    
O16   Zn3   S    
C27   C32   A    
C11   O25   A    
C23   C74   S    
O26   Zn8   S    
C28   C31   A    
Br1   C80   S    
O1    Zn16  S    
C28   C93   S    
O45   Zn3   S    
C72   C79   T    
C63   H19   S    
O33   Zn1   S    
C80   C85   S    
Br6   C94   S    
C15   C46   S    
C94   H6    S    
C1    O50   A    
O12   Zn4   S    
C24   C80   S    
C22   C81   S    
C37   C54   A    
O1    Zn10  S    
C33   C92   S    
C47   C64   A    
O14   Zn16  S    
C5    O38   A    
C14   O27   A    
C51   C69   A    
C18   C85   S    
C40   C58   A    
C16   O44   A    
C42   C60   A    
C10   C50   S    
C13   O41   A    
C46   C63   A    
O3    Zn5   S    
C19   C22   A    
O6    Zn9   S    
C96   H8    S    
C82   H23   S    
C28   C46   A    
O50   Zn16  S    
C15   O48   A    
Br2   C90   S    
O34   Zn13  S    
C30   C48   A    
C17   O46   A    
O38   Zn10  S    
O22   Zn5   S    
C39   C57   A    
C66   H22   S    
O46   Zn15  S    
O1    Zn1   S    
C6    O39   A    
C11   C49   S    
C34   C73   S    
O25   Zn7   S    
C13   C52   S    
C10   O43   A    
C54   H10   S    
C2    C41   S    
C74   C76   T    
C89   O14   A    
C53   H9    S    
C78   O10   A    
C31   C90   S    
C44   C62   A    
C12   C71   S    
C88   H32   S    
C12   O49   A    
C61   H17   S    
C14   O47   A    
C1    O45   A    
C4    C43   S    
O40   Zn14  S    
O12   Zn9   S    
C45   O7    A    
C91   H3    S    
C7    O36   A    
C29   C47   A    
C27   C44   A    
C6    C37   S    
C95   H7    S    
O19   Zn4   S    
O13   Zn15  S    
C78   O13   A    
C56   O6    A    
O34   Zn6   S    
O39   Zn9   S    
C57   C60   A    
C80   H1    S    
C73   C75   T    
C16   C44   S    
C17   O30   A    
Br13  C85   S    
C19   C84   S    
C69   H25   S    
C55   C61   A    
C81   C84   S    
O52   Zn7   S    
C7    O20   A    
C16   O29   A    
C34   O4    A    
O44   Zn12  S    
Br9   C81   S    
C5    O18   A    
C33   C51   A    
O17   Zn4   S    
C8    O37   A    
O4    Zn6   S    
O11   Zn14  S    
O12   Zn2   S    
O23   Zn14  S    
C89   O33   A    
C24   C41   A    
C87   H31   S    
C25   C83   S    
C2    O35   A    
C63   C66   A    
O20   Zn3   S    
C65   H21   S    
C67   O9    A    
C9    O22   A    
O10   Zn13  S    
O49   Zn4   S    
Br10  C82   S    
C23   O52   A    
C18   C36   A    
C92   C95   S    
O42   Zn12  S    
C5    C38   S    
O29   Zn7   S    
C42   C89   S    
Br3   C91   S    
O23   Zn12  S    
O51   Zn2   S    
Br8   C96   S    
C8    O21   A    
C62   H18   S    
O21   Zn2   S    
C88   C94   S    
C6    O19   A    
C34   O2    A    
C7    C36   S    
C58   H14   S    
O18   Zn16  S    
C17   C48   S    
C60   H16   S    
C4    O17   A    
C71   C77   T    
C14   C47   S    
Br7   C95   S    
O34   Zn15  S    
C53   C59   A    
C59   H15   S    
C35   C52   A    
O23   Zn5   S    
O7    Zn10  S    
C21   C25   A    
C78   C79   S    
C3    O31   A    
C48   C65   A    
Br12  C84   S    
C20   C38   A    
C9    O42   A    
C70   H26   S    
O47   Zn14  S    
C50   C68   A    
C21   C39   A    
C62   C68   A    
C83   C86   S    
C22   C40   A    
O48   Zn13  S    
C35   C91   S    
C26   C43   A    
C23   O3    A    
O36   Zn1   S    
C86   H30   S    
O31   Zn10  S    
Br15  C87   S    
C30   C95   S    
O9    Zn12  S    
C45   O5    A    
C31   C49   A    
C65   C69   A    
C45   C75   S    
O5    Zn1   S    
C90   C93   S    
C32   C88   S    
