data_mof_unit_21938.cif
_audit_creation_date              2012-12-10T17:56:46-0500
_audit_creation_method            fapswitch 2.2
_symmetry_space_group_name_H-M    P1
_symmetry_Int_Tables_number       1
_space_group_crystal_system       triclinic
_cell_length_a                    10.951545
_cell_length_b                    9.493334
_cell_length_c                    10.955227
_cell_angle_alpha                 89.997426
_cell_angle_beta                  90.281865
_cell_angle_gamma                 89.998891
_cell_volume                      1138.96473593

loop_
_atom_site_label
_atom_site_type_symbol
_atom_type_description
_atom_site_fract_x
_atom_site_fract_y
_atom_site_fract_z
_atom_type_partial_charge
C1    C     C_R   0.262012 0.499068 0.501169 0.784044
C2    C     C_R   0.737987 0.499067 0.498824 0.784059
C3    C     C_R   0.936719 0.621794 0.499605 -0.194399
C4    C     C_R   0.063276 0.621794 0.500399 -0.194418
C5    C     C_R   0.424660 0.074562 0.423457 0.016167
C6    C     C_R   0.575341 0.074550 0.576543 0.016125
C7    C     C_R   0.422145 0.925747 0.426068 -0.008813
C8    C     C_R   0.577857 0.925736 0.573931 -0.008667
C9    C     C_R   0.493702 0.500136 0.262040 0.853252
C10   C     C_R   0.506294 0.500132 0.737960 0.853234
C11   C     C_R   0.440138 0.756753 0.111095 -0.119355
C12   C     C_R   0.559771 0.756763 0.888867 -0.119292
C13   C     C_R   0.465702 0.883918 0.053225 -0.154393
C14   C     C_R   0.534071 0.883929 0.946658 -0.154340
C15   C     C_R   0.519209 0.628064 0.938945 0.037252
C16   C     C_R   0.480771 0.628066 0.061046 0.037273
C17   C     C_R   0.487632 0.500273 0.127723 -0.290683
C18   C     C_R   0.512368 0.500267 0.872278 -0.290751
C19   C     C_R   0.503448 0.372639 0.063549 0.326178
C20   C     C_R   0.496544 0.372638 0.936465 0.326031
C21   C     C_R   0.063709 0.364901 0.502714 -0.059719
C22   C     C_R   0.936293 0.364903 0.497223 -0.059747
C23   C     C_R   0.871827 0.494635 0.498020 -0.089205
C24   C     C_R   0.128172 0.494634 0.501957 -0.089200
Cu1   Cu    Cu3+1 0.500000 0.640660 0.500000 0.941879
Cu2   Cu    Cu3+1 0.500000 0.359340 0.500000 0.967677
H1    H     H_    0.385557 0.759750 0.192366 0.136990
H2    H     H_    0.614366 0.759778 0.807611 0.137006
H3    H     H_    0.436404 0.982029 0.093695 0.173565
H4    H     H_    0.563267 0.982044 0.906120 0.173615
H5    H     H_    0.889634 0.722163 0.499759 0.172396
H6    H     H_    0.110358 0.722163 0.500271 0.172403
H7    H     H_    0.364784 0.130903 0.361680 0.147896
H8    H     H_    0.635222 0.130881 0.638313 0.147813
H9    H     H_    0.357366 0.870100 0.369525 0.108040
H10   H     H_    0.642644 0.870081 0.630465 0.107996
N1    N     N_R   0.500000 0.852070 0.500000 -0.165561
N2    N     N_R   0.500000 0.147940 0.500000 -0.189252
O1    O     O_R   0.319640 0.618740 0.499990 -0.589525
O2    O     O_R   0.680360 0.618740 0.500010 -0.589530
O3    O     O_R   0.319620 0.381170 0.499990 -0.590191
O4    O     O_R   0.680380 0.381170 0.500010 -0.590154
O5    O     O_R   0.500000 0.618810 0.319650 -0.597518
O6    O     O_R   0.500000 0.618810 0.680350 -0.597507
O7    O     O_R   0.499970 0.381240 0.319640 -0.537532
O8    O     O_R   0.500030 0.381240 0.680360 -0.537653
O9    O     O_3   0.522535 0.246576 0.124147 -0.572813
C25   C     C_3   0.648335 0.213019 0.117515 0.078464
H11   H     H_    0.708024 0.307376 0.130325 0.122159
H12   H     H_    0.669062 0.164303 0.027759 0.158871
C26   C     C_3   0.681236 0.109224 0.218026 -0.741868
H13   H     H_    0.626621 0.011541 0.209783 0.242296
H14   H     H_    0.779569 0.081637 0.212350 0.200447
H15   H     H_    0.663263 0.157779 0.308056 0.281213
O10   O     O_3   0.477320 0.246591 0.875890 -0.572853
C27   C     C_3   0.351443 0.213354 0.882380 0.078604
H16   H     H_    0.291965 0.307901 0.869436 0.122089
H17   H     H_    0.330488 0.164711 0.972153 0.158691
C28   C     C_3   0.318470 0.109598 0.781835 -0.741662
H18   H     H_    0.219955 0.082779 0.787154 0.200397
H19   H     H_    0.336975 0.157962 0.691824 0.281372
H20   H     H_    0.372543 0.011488 0.790421 0.242140
C29   C     C_1   0.124164 0.228654 0.510547 0.257791
N3    N     N_1   0.168796 0.118469 0.516930 -0.328341
C30   C     C_1   0.875836 0.228663 0.489363 0.257846
N4    N     N_1   0.831200 0.118486 0.482962 -0.328331

loop_
_geom_bond_atom_site_label_1
_geom_bond_atom_site_label_2
_ccdc_geom_bond_type
C10   O8    A    
C15   C18   A    
O10   C27   S    
C6    N2    A    
C22   C30   S    
C9    O7    A    
C26   H13   S    
C11   C16   A    
C3    C23   A    
C19   C20   A    
C12   C15   A    
C11   H1    S    
C13   H3    S    
C26   H15   S    
Cu1   N1    S    
Cu1   O5    S    
C25   H12   S    
C7    N1    A    
C9    O5    A    
C14   H4    S    
C28   H18   S    
C13   C14   A    
Cu1   O1    S    
C3    H5    S    
C11   C13   A    
C4    H6    S    
C2    O4    A    
C20   O10   S    
Cu1   O6    S    
C9    C17   S    
C25   H11   S    
C17   C19   A    
C10   C18   S    
C18   C20   A    
C27   H17   S    
Cu1   O2    S    
C4    C24   A    
C16   C17   A    
C19   O9    S    
C28   H19   S    
C21   C29   S    
C8    N1    A    
C1    O1    A    
C10   O6    A    
C15   C16   A    
O9    C25   S    
C2    O2    A    
C5    N2    A    
C27   H16   S    
Cu2   O4    S    
C1    C24   S    
C30   N4    T    
C8    H10   S    
C21   C24   A    
C1    O3    A    
C2    C23   S    
C5    C7    A    
C27   C28   S    
Cu2   O8    S    
C22   C23   A    
Cu2   N2    S    
C28   H20   S    
C6    C8    A    
Cu2   O7    S    
C12   H2    S    
Cu1   Cu2   S    
C21   C22   A    
C7    H9    S    
C25   C26   S    
C3    C4    A    
C6    H8    S    
Cu2   O3    S    
C12   C14   A    
C29   N3    T    
C26   H14   S    
C5    H7    S    
