data_mof_unit_6381.cif
_audit_creation_date              2012-12-11T15:53:55-0500
_audit_creation_method            fapswitch 2.2
_symmetry_space_group_name_H-M    P1
_symmetry_Int_Tables_number       1
_space_group_crystal_system       triclinic
_cell_length_a                    10.632308
_cell_length_b                    10.732157
_cell_length_c                    17.070312
_cell_angle_alpha                 80.750595
_cell_angle_beta                  99.208405
_cell_angle_gamma                 118.711265
_cell_volume                      1678.4219674

loop_
_atom_site_label
_atom_site_type_symbol
_atom_type_description
_atom_site_fract_x
_atom_site_fract_y
_atom_site_fract_z
_atom_type_partial_charge
C1    C     C_R   0.384037 0.283206 0.632131 0.556627
C2    C     C_R   0.387948 0.832999 0.672597 0.260696
C3    C     C_R   0.368943 0.852983 0.749050 -0.148103
C4    C     C_3   0.141838 0.457428 0.796141 -0.239780
C5    C     C_3   0.160669 0.434263 0.714313 -0.253529
C6    C     C_R   0.313882 0.693389 0.646904 0.028137
C7    C     C_1   0.823335 0.656920 0.705960 -0.038558
C8    C     C_1   0.851282 0.684711 0.773683 -0.042405
C9    C     C_1   0.364129 0.231309 0.714190 -0.058983
C10   C     C_1   0.333253 0.184852 0.781337 -0.060896
C11   C     C_1   0.335342 0.664539 0.277829 -0.063556
C12   C     C_R   0.368928 0.655225 0.585785 0.555934
C13   C     C_1   0.322810 0.674127 0.207134 -0.069228
C14   C     C_R   0.814873 0.663941 0.154063 0.030548
C15   C     C_R   0.783591 0.535461 0.201771 -0.025963
C16   C     C_R   0.775459 0.526812 0.281347 0.022816
C17   C     C_R   0.807652 0.766477 0.268906 -0.151288
C18   C     C_R   0.809006 0.775607 0.185546 0.249394
C19   C     C_3   0.851989 0.438081 0.215142 -0.262889
C20   C     C_3   0.841152 0.429071 0.303185 -0.260936
C21   C     C_R   0.800662 0.645042 0.317309 -0.023578
C22   C     C_R   0.315310 0.147820 0.164853 0.013160
C23   C     C_R   0.776965 0.618953 0.626840 0.544486
C24   C     C_R   0.204412 0.153324 0.194752 0.061550
C25   C     C_R   0.206218 0.159341 0.273910 0.024135
C26   C     C_R   0.427073 0.139941 0.299824 -0.153978
C27   C     C_R   0.423060 0.131694 0.218579 -0.157578
C28   C     C_3   0.142655 0.253500 0.168713 -0.268005
C29   C     C_3   0.143142 0.261211 0.256268 -0.262883
C30   C     C_R   0.322904 0.163377 0.326903 0.014939
C31   C     C_R   0.892307 0.702127 0.855773 0.541131
C32   C     C_R   0.281781 0.750479 0.882892 0.571942
C33   C     C_R   0.286530 0.117953 0.858233 0.537492
C34   C     C_R   0.350821 0.225704 0.400175 0.568786
C35   C     C_R   0.884938 0.690793 0.082862 0.570055
C36   C     C_R   0.312750 0.701298 0.124018 0.555589
C37   C     C_R   0.285900 0.107697 0.085153 0.546250
C38   C     C_R   0.365071 0.654090 0.360808 0.550956
C39   C     C_R   0.769285 0.620632 0.398747 0.552067
C40   C     C_R   0.280345 0.736078 0.799018 -0.036024
C41   C     C_R   0.185770 0.609324 0.764827 0.009534
C42   C     C_R   0.202413 0.588171 0.690292 -0.031321
Cr1   Cr    Cr6+3 0.608440 0.389080 0.519680 1.028057
Cr2   Cr    Cr6+3 0.288640 0.400090 0.490760 1.006311
Cr3   Cr    Cr6+3 0.602940 0.710800 0.489510 1.026572
Cr4   Cr    Cr6+3 0.052530 0.947560 0.964210 1.052281
Cr5   Cr    Cr6+3 0.059970 0.626800 0.992920 1.002978
Cr6   Cr    Cr6+3 0.373320 0.938440 0.995370 1.004113
H1    H     H_    0.781716 0.334945 0.189206 0.127739
H2    H     H_    0.763883 0.321312 0.327985 0.139887
H3    H     H_    0.947691 0.478884 0.338638 0.143839
H4    H     H_    0.515932 0.137894 0.340030 0.133382
H5    H     H_    0.504204 0.114459 0.197983 0.129239
H6    H     H_    0.219104 0.355683 0.137750 0.135467
H7    H     H_    0.032930 0.201054 0.137286 0.169513
H8    H     H_    0.218472 0.369071 0.274970 0.164637
H9    H     H_    0.033377 0.213764 0.276045 0.131532
H10   H     H_    0.428501 0.957042 0.771168 0.129790
H11   H     H_    0.027886 0.399648 0.810416 0.149946
H12   H     H_    0.220932 0.445409 0.843809 0.153512
H13   H     H_    0.251349 0.410481 0.714947 0.141849
H14   H     H_    0.057893 0.362262 0.681566 0.148278
H15   H     H_    0.815312 0.854254 0.296408 0.129621
H16   H     H_    0.966112 0.491105 0.201328 0.169980
O1    O     O_R   0.754020 0.497590 0.609930 -0.521244
O2    O     O_R   0.295080 0.533620 0.397890 -0.513042
O3    O     O_R   0.485280 0.746620 0.388440 -0.509899
O4    O     O_R   0.720550 0.696220 0.420010 -0.506576
O5    O     O_3   0.500010 0.499990 0.499980 -0.274179
O6    O     O_R   0.163320 0.092900 0.874450 -0.510343
O7    O     O_R   0.934650 0.822080 0.882840 -0.497384
O8    O     O_R   0.915520 0.604140 0.893670 -0.521609
O9    O     O_R   0.191760 0.638110 0.923230 -0.498053
O10   O     O_R   0.406180 0.826930 0.920660 -0.509066
O11   O     O_R   0.358620 0.062870 0.901950 -0.520012
O12   O     O_R   0.481420 0.271390 0.600630 -0.469703
O13   O     O_R   0.163910 0.085460 0.050210 -0.494496
O14   O     O_R   0.935200 0.815170 0.045770 -0.436117
O15   O     O_R   0.916120 0.596690 0.069430 -0.538141
O16   O     O_R   0.192310 0.631200 0.086170 -0.503498
O17   O     O_R   0.406770 0.819480 0.096420 -0.521376
O18   O     O_R   0.359170 0.055960 0.064880 -0.513124
O19   O     O_3   0.161940 0.837600 0.984160 -0.278277
O20   O     O_R   0.263810 0.254550 0.589590 -0.504184
O21   O     O_R   0.300820 0.531200 0.560890 -0.525975
O22   O     O_R   0.491480 0.744020 0.564270 -0.469605
O23   O     O_R   0.726290 0.693800 0.583010 -0.500596
O24   O     O_R   0.747830 0.500190 0.434090 -0.514023
O25   O     O_R   0.475680 0.273800 0.437630 -0.490215
O26   O     O_R   0.257620 0.257160 0.413750 -0.519436
O27   O     O_3   0.476358 0.946639 0.622104 -0.532307
C43   C     C_3   0.614661 0.025279 0.661244 -0.073739
H17   H     H_    0.655469 0.955191 0.699333 0.110751
H18   H     H_    0.615068 0.103707 0.696652 0.121723
H19   H     H_    0.690958 0.086898 0.615348 0.135204
O28   O     O_3   0.824605 0.897738 0.135820 -0.543446
C44   C     C_3   0.747793 0.960908 0.158624 -0.111267
H20   H     H_    0.724251 0.023940 0.105690 0.143725
H21   H     H_    0.814446 0.035735 0.204219 0.089483
H22   H     H_    0.643218 0.880607 0.181190 0.144780

loop_
_geom_bond_atom_site_label_1
_geom_bond_atom_site_label_2
_ccdc_geom_bond_type
C5    C42   S    
C16   C21   A    
C18   O28   S    
C39   O4    A    
C14   C18   A    
Cr2   O2    S    
C19   C20   S    
Cr5   O15   S    
C44   H20   S    
C7    C8    T    
C1    O20   A    
C15   C19   S    
C26   C27   A    
Cr1   O25   S    
C12   O21   A    
Cr1   O24   S    
C39   O24   A    
C28   C29   S    
Cr3   O23   S    
C20   H3    S    
C6    C12   S    
C4    C41   S    
C15   C16   A    
Cr1   O12   S    
Cr6   O17   S    
C41   C42   A    
C20   H2    S    
C33   O11   A    
C38   O2    A    
Cr3   O3    S    
Cr5   O19   S    
C9    C10   T    
C19   H16   S    
O27   C43   S    
Cr1   O1    S    
C31   O7    A    
Cr1   O5    S    
C23   O23   A    
C8    C31   S    
Cr6   O11   S    
C2    C6    A    
Cr5   O16   S    
C44   H21   S    
C28   H7    S    
C25   C29   S    
C30   C34   S    
Cr3   O5    S    
Cr6   O10   S    
C1    C9    S    
C24   C25   A    
Cr5   O9    S    
C13   C36   S    
C36   O16   A    
C32   O9    A    
Cr4   O14   S    
C28   H6    S    
C22   C37   S    
C37   O13   A    
C43   H19   S    
C17   C21   A    
C11   C38   S    
C34   O26   A    
C26   H4    S    
C19   H1    S    
C21   C39   S    
C36   O17   A    
C16   C20   S    
O28   C44   S    
C4    H12   S    
Cr3   O4    S    
C43   H18   S    
C17   C18   A    
C5    H13   S    
Cr2   O5    S    
Cr4   O7    S    
C33   O6    A    
C31   O8    A    
C29   H9    S    
C3    C40   A    
C26   C30   A    
C22   C27   A    
C22   C24   A    
C37   O18   A    
Cr2   O21   S    
C14   C35   S    
C44   H22   S    
Cr2   O26   S    
C25   C30   A    
C40   C41   A    
C1    O12   A    
C24   C28   S    
C4    C5    S    
Cr2   O20   S    
Cr4   O13   S    
C27   H5    S    
C29   H8    S    
C35   O14   A    
Cr6   O19   S    
C12   O22   A    
C23   O1    A    
C2    C3    A    
C34   O25   A    
C17   H15   S    
C32   O10   A    
C11   C13   T    
C7    C23   S    
C4    H11   S    
C35   O15   A    
C43   H17   S    
Cr6   O18   S    
C5    H14   S    
Cr3   O22   S    
C10   C33   S    
C32   C40   S    
C2    O27   S    
Cr5   O8    S    
Cr4   O6    S    
Cr4   O19   S    
C3    H10   S    
C38   O3    A    
C6    C42   A    
C14   C15   A    
