data_mof_unit_30869.cif
_audit_creation_date              2012-12-10T16:45:24-0500
_audit_creation_method            fapswitch 2.2
_symmetry_space_group_name_H-M    P1
_symmetry_Int_Tables_number       1
_space_group_crystal_system       triclinic
_cell_length_a                    7.442196
_cell_length_b                    8.632685
_cell_length_c                    15.811599
_cell_angle_alpha                 94.300878
_cell_angle_beta                  75.162907
_cell_angle_gamma                 103.174181
_cell_volume                      955.971063491

loop_
_atom_site_label
_atom_site_type_symbol
_atom_type_description
_atom_site_fract_x
_atom_site_fract_y
_atom_site_fract_z
_atom_type_partial_charge
C1    C     C_R   0.536040 0.799129 0.514028 0.859575
C2    C     C_R   0.445498 0.201237 0.510627 0.817862
C3    C     C_R   0.288830 0.367116 0.074602 -0.228445
C4    C     C_R   0.726648 0.577886 0.917896 -0.225792
C5    C     C_R   0.160594 0.327248 0.022351 -0.222122
C6    C     C_R   0.856333 0.613252 0.969568 -0.221785
C7    C     C_2   0.541594 0.965054 0.542478 -0.043229
C8    C     C_2   0.400475 0.034981 0.536521 -0.088344
C9    C     C_R   0.384171 0.487790 0.666142 0.768892
C10   C     C_R   0.615761 0.510963 0.333698 0.811458
C11   C     C_R   0.314048 0.464271 0.760671 -0.048391
C12   C     C_R   0.685815 0.523143 0.238178 -0.062903
C13   C     C_R   0.079899 0.333759 0.884420 -0.190099
C14   C     C_R   0.932743 0.616666 0.109261 -0.184535
C15   C     C_R   0.130822 0.376829 0.796944 -0.208534
C16   C     C_R   0.876492 0.588829 0.198851 -0.202532
C17   C     C_R   0.442820 0.513598 0.813129 -0.250292
C18   C     C_R   0.554680 0.477589 0.186452 -0.250935
C19   C     C_R   0.398515 0.465622 0.900410 0.083173
C20   C     C_R   0.608336 0.501035 0.095617 0.084471
C21   C     C_R   0.212360 0.376027 0.936029 0.150189
C22   C     C_R   0.799713 0.576569 0.057892 0.152377
C23   C     C_R   0.534031 0.501927 0.952616 0.061446
C24   C     C_R   0.476002 0.457001 0.042082 0.058824
Cu1   Cu    Cu3+1 0.322120 0.483240 0.490330 0.928087
Cu2   Cu    Cu3+1 0.677880 0.516760 0.509670 0.920158
H1    H     H_    0.019134 0.257596 0.049978 0.152284
H2    H     H_    0.002560 0.670552 0.939993 0.155422
H3    H     H_    0.409137 0.429815 0.219536 0.149834
H4    H     H_    0.578213 0.587820 0.783176 0.142339
H5    H     H_    0.980155 0.624333 0.237697 0.157299
H6    H     H_    0.029692 0.337096 0.757108 0.156339
H7    H     H_    0.937816 0.264733 0.911402 0.145805
H8    H     H_    0.079888 0.672087 0.080266 0.145485
H9    H     H_    0.237371 0.320881 0.139788 0.144281
H10   H     H_    0.784681 0.608560 0.850143 0.145656
H11   H     H_    0.997505 0.604530 0.573832 0.231946
H12   H     H_    0.999945 0.390821 0.427936 0.226146
N1    N     N_2   0.945180 0.542040 0.524240 -0.229991
N2    N     N_2   0.054820 0.457960 0.475760 -0.223030
O1    O     O_R   0.384450 0.714270 0.493720 -0.584508
O2    O     O_R   0.615550 0.285730 0.506280 -0.599053
O3    O     O_R   0.684880 0.742590 0.510050 -0.579638
O4    O     O_R   0.315120 0.257410 0.489950 -0.586343
O5    O     O_R   0.265540 0.477900 0.617090 -0.595886
O6    O     O_R   0.734460 0.522100 0.382910 -0.582136
O7    O     O_R   0.565970 0.506210 0.633420 -0.595519
O8    O     O_R   0.434030 0.493790 0.366580 -0.577530
C25   C     C_3   0.691692 0.045986 0.591166 -0.362135
C26   C     C_3   0.673542 0.957550 0.674353 -0.878843
H13   H     H_    0.529112 0.949215 0.718358 0.252193
H14   H     H_    0.699393 0.835977 0.659517 0.268606
H15   H     H_    0.779391 0.024133 0.709719 0.242862
H16   H     H_    0.834298 0.054255 0.546221 0.200759
H17   H     H_    0.677741 0.167465 0.615163 0.242766
C27   C     C_3   0.191575 0.954200 0.570033 -0.365371
C28   C     C_3   0.150734 0.885977 0.661503 -0.844451
H18   H     H_    0.232065 0.793192 0.661394 0.254123
H19   H     H_    0.188585 0.982529 0.708537 0.251876
H20   H     H_    0.997570 0.830401 0.684438 0.227402
H21   H     H_    0.102116 0.042579 0.576945 0.214882
H22   H     H_    0.143386 0.862904 0.522953 0.227554

loop_
_geom_bond_atom_site_label_1
_geom_bond_atom_site_label_2
_ccdc_geom_bond_type
C14   H8    S    
C19   C23   A    
C23   C24   A    
C4    H10   S    
C13   H7    S    
C6    H2    S    
C26   H14   S    
C3    H9    S    
C27   H22   S    
C25   H17   S    
C8    C27   S    
C26   H13   S    
C3    C24   A    
C13   C21   A    
C15   H6    S    
H11   N1    S    
C18   H3    S    
C5    H1    S    
C16   H5    S    
H12   N2    S    
C17   H4    S    
C9    C11   S    
Cu1   O8    S    
C14   C22   A    
C28   H18   S    
C10   C12   S    
Cu2   O7    S    
C2    O2    A    
C9    O5    A    
Cu1   O4    S    
C1    O1    A    
C19   C21   A    
C20   C22   A    
Cu2   O3    S    
C9    O7    A    
C18   C20   A    
C13   C15   A    
Cu1   N2    S    
C10   O8    A    
C14   C16   A    
Cu2   N1    S    
C28   H19   S    
C26   H15   S    
Cu2   O6    S    
Cu1   O1    S    
C25   H16   S    
C6    C22   A    
Cu1   O5    S    
C10   O6    A    
C7    C8    D    
C5    C21   A    
C27   C28   S    
C7    C25   S    
C4    C6    A    
C25   C26   S    
C12   C18   A    
N1    N2    D    
Cu2   O2    S    
C4    C23   A    
C20   C24   A    
C27   H21   S    
C11   C17   A    
C28   H20   S    
C17   C19   A    
Cu1   Cu2   S    
C1    C7    S    
C11   C15   A    
C1    O3    A    
C2    C8    S    
C12   C16   A    
C2    O4    A    
C3    C5    A    
