data_mof_unit_20330.cif
_audit_creation_date              2013-03-05T15:53:24-0500
_audit_creation_method            fapswitch 2.2
_symmetry_space_group_name_H-M    P1
_symmetry_Int_Tables_number       1
_space_group_crystal_system       triclinic
_cell_length_a                    10.65322
_cell_length_b                    10.680959
_cell_length_c                    16.936543
_cell_angle_alpha                 98.488072
_cell_angle_beta                  98.728075
_cell_angle_gamma                 61.57631
_cell_volume                      1668.90074646

loop_
_atom_site_label
_atom_site_type_symbol
_atom_site_description
_atom_site_fract_x
_atom_site_fract_y
_atom_site_fract_z
_atom_type_partial_charge
O1    O     O_R   0.751220 0.499230 0.435170 -0.529238
O2    O     O_R   0.477220 0.727600 0.436870 -0.496150
C1    C     C_R   0.381446 0.708822 0.386810 0.555035
O3    O     O_R   0.258650 0.745120 0.411470 -0.510407
O4    O     O_R   0.297070 0.467240 0.395960 -0.524043
C2    C     C_R   0.370304 0.346885 0.358892 0.531155
O5    O     O_R   0.488830 0.252610 0.387790 -0.496105
O6    O     O_R   0.724400 0.302390 0.420980 -0.496403
C3    C     C_R   0.783413 0.373406 0.404771 0.531975
O7    O     O_R   0.752100 0.501210 0.612190 -0.508926
O8    O     O_R   0.478040 0.729440 0.600970 -0.487712
C4    C     C_R   0.356726 0.771193 0.627275 0.552745
O9    O     O_R   0.259530 0.747110 0.588490 -0.501344
O10   O     O_R   0.297880 0.469080 0.560050 -0.499339
C5    C     C_R   0.367206 0.345756 0.585238 0.545377
O11   O     O_R   0.489720 0.254590 0.564810 -0.506785
O12   O     O_R   0.725220 0.304230 0.585080 -0.488141
C6    C     C_R   0.774212 0.379551 0.629481 0.538069
Cr1   Cr    Cr6+3 0.608340 0.611040 0.520430 1.032129
Cr2   Cr    Cr6+3 0.287650 0.601120 0.489350 1.023967
Cr3   Cr    Cr6+3 0.604040 0.287870 0.490280 1.043594
O13   O     O_3   0.500010 0.500010 0.500020 -0.285734
C7    C     C_1   0.343342 0.336131 0.275175 -0.054977
C8    C     C_1   0.331845 0.325478 0.203977 -0.021797
C9    C     C_3   0.802583 0.241671 0.209851 0.188973
C10   C     C_3   0.715240 0.384132 0.257190 -0.068031
H1    H     H_    0.599595 0.429592 0.265037 0.137614
C11   C     C_3   0.835355 0.338808 0.326310 0.022430
C12   C     C_3   0.921489 0.195058 0.279829 -0.130715
C13   C     C_3   0.996807 0.265039 0.244175 -0.166517
C14   C     C_3   0.910192 0.408785 0.292562 -0.139244
C15   C     C_3   0.790568 0.454413 0.222952 -0.130201
C16   C     C_3   0.874927 0.312607 0.175772 0.069361
H2    H     H_    0.971931 0.091122 0.306358 0.128901
H3    H     H_    0.112675 0.215664 0.235860 0.105582
H4    H     H_    0.955217 0.476519 0.328275 0.140050
H5    H     H_    0.743786 0.556400 0.194631 0.161910
C17   C     C_3   0.413557 0.684203 0.186119 0.127839
C18   C     C_3   0.292458 0.707656 0.235071 -0.104924
H6    H     H_    0.246141 0.634007 0.234861 0.135043
C19   C     C_3   0.367540 0.755248 0.308633 0.026474
C20   C     C_3   0.490202 0.730527 0.261202 -0.132202
C21   C     C_3   0.404522 0.888041 0.240872 -0.142661
C22   C     C_3   0.283396 0.911631 0.290221 -0.131647
C23   C     C_3   0.208237 0.864562 0.215846 -0.127952
C24   C     C_3   0.330495 0.839313 0.167229 0.066643
H7    H     H_    0.600978 0.685791 0.290217 0.132331
H8    H     H_    0.449711 0.962666 0.240778 0.147415
H9    H     H_    0.232131 0.002755 0.335376 0.128825
H10   H     H_    0.092055 0.919201 0.195733 0.165189
C25   C     C_3   0.455152 0.272308 0.776175 0.224256
C26   C     C_3   0.389277 0.410786 0.735230 -0.103288
H11   H     H_    0.443172 0.476497 0.731441 0.123081
C27   C     C_3   0.337709 0.333942 0.663287 0.015021
C28   C     C_3   0.407599 0.194542 0.704499 -0.104227
C29   C     C_3   0.264192 0.246427 0.740669 -0.164691
C30   C     C_3   0.194584 0.386209 0.698008 -0.138058
C31   C     C_3   0.245999 0.461470 0.771616 -0.137031
C32   C     C_3   0.316299 0.322148 0.812796 0.042984
H12   H     H_    0.473147 0.085788 0.676116 0.153597
H13   H     H_    0.211737 0.179664 0.745110 0.112646
H14   H     H_    0.087644 0.431323 0.663371 0.143692
H15   H     H_    0.181468 0.569605 0.800977 0.154469
C33   C     C_1   0.818610 0.341353 0.709303 -0.033342
C34   C     C_1   0.845819 0.314310 0.777744 0.006695
C35   C     C_1   0.338384 0.811950 0.709815 -0.041379
C36   C     C_1   0.313426 0.839285 0.778550 -0.034132
O14   O     O_R   0.171830 0.913880 0.057510 -0.506286
O15   O     O_R   0.940690 0.186050 0.054730 -0.464848
C37   C     C_R   0.899590 0.306941 0.093419 0.611475
O16   O     O_R   0.920470 0.405720 0.075010 -0.511136
O17   O     O_R   0.196690 0.370460 0.084120 -0.505681
C38   C     C_R   0.319045 0.298836 0.120347 0.601148
O18   O     O_R   0.412990 0.180750 0.091610 -0.450396
O19   O     O_R   0.366620 0.943130 0.065760 -0.499512
C39   C     C_R   0.293908 0.891992 0.088873 0.580255
O20   O     O_R   0.160510 0.906330 0.879210 -0.496828
O21   O     O_R   0.930190 0.179050 0.889450 -0.436496
C40   C     C_R   0.887067 0.298677 0.860474 0.611567
O22   O     O_R   0.909140 0.398170 0.896710 -0.510899
O23   O     O_R   0.186190 0.363460 0.918830 -0.510463
C41   C     C_R   0.307865 0.294085 0.891894 0.596614
O24   O     O_R   0.401670 0.173200 0.913310 -0.457947
O25   O     O_R   0.356120 0.936130 0.900470 -0.493535
C42   C     C_R   0.280116 0.884795 0.859017 0.550273
Cr4   Cr    Cr6+3 0.054020 0.052700 0.970850 1.127331
Cr5   Cr    Cr6+3 0.059230 0.375120 0.993390 1.065433
Cr6   Cr    Cr6+3 0.374950 0.061200 0.992340 1.112168
O26   O     O_3   0.162740 0.163010 0.985530 -0.319118
N1    N     N_R   0.595134 0.214045 0.821768 0.082096
O27   O     O_R   0.695666 0.088303 0.799983 -0.326387
O28   O     O_R   0.616954 0.284370 0.887270 -0.302621
Br1   Br    Br    0.731024 0.116850 0.149511 -0.435178
Br2   Br    Br    0.485732 0.533817 0.099979 -0.488753

loop_
_geom_bond_atom_site_label_1
_geom_bond_atom_site_label_2
_geom_bond_distance
_ccdc_geom_bond_type
C22   H9    1.109705 S    
C28   C29   1.547319 S    
C9    Br1   1.931802 S    
O11   Cr3   2.052816 S    
C34   C40   1.412994 S    
O14   Cr4   2.059053 S    
C19   C20   1.533008 S    
C32   C41   1.439884 S    
C21   C22   1.543616 S    
C24   C39   1.443711 S    
O23   C41   1.265982 A    
C30   C31   1.554490 S    
C30   H14   1.110071 S    
C18   C19   1.532342 S    
O4    Cr2   1.949494 S    
C23   C24   1.540339 S    
C22   C23   1.539722 S    
C10   C15   1.544968 S    
O8    Cr1   1.944504 S    
C10   H1    1.110134 S    
C13   H3    1.110281 S    
O4    C2    1.269244 A    
C11   C12   1.529812 S    
C17   C20   1.553174 S    
O22   Cr5   2.061083 S    
C14   H4    1.110156 S    
C25   N1    1.454757 S    
C13   C14   1.545869 S    
C8    C38   1.401824 S    
C5    O11   1.264549 A    
C29   C30   1.550121 S    
C38   O18   1.262635 A    
O6    C3    1.270340 A    
C7    C8    1.187413 T    
C37   O16   1.265461 A    
C21   H8    1.110389 S    
O9    Cr2   2.067750 S    
C18   C23   1.536439 S    
O21   Cr4   1.940269 S    
C35   C36   1.196178 T    
O20   C42   1.274147 A    
C28   H12   1.110350 S    
C26   C27   1.546271 S    
O6    Cr3   1.935330 S    
C9    C12   1.541213 S    
C36   C42   1.416516 S    
O1    Cr1   2.062946 S    
C25   C26   1.525783 S    
C5    C27   1.440514 S    
O10   Cr2   1.935784 S    
Cr1   O13   1.979527 S    
O1    C3    1.264662 A    
O25   C42   1.259213 A    
C18   H6    1.109264 S    
O21   C40   1.281557 A    
C31   C32   1.532538 S    
O5    Cr3   2.064415 S    
C4    C35   1.415701 S    
C12   H2    1.108660 S    
O12   Cr3   1.943674 S    
O19   C39   1.268669 A    
C12   C13   1.555116 S    
N1    O28   1.300355 A    
C14   C15   1.540744 S    
O7    Cr1   2.059710 S    
C17   Br2   1.942325 S    
O12   C6    1.259818 A    
C15   H5    1.109017 S    
Cr6   O26   1.980968 S    
O23   Cr5   1.936765 S    
C26   C31   1.550161 S    
C16   C37   1.445422 S    
O16   Cr5   2.056647 S    
Cr2   O13   1.981088 S    
O20   Cr4   2.066325 S    
Cr5   O26   1.985854 S    
C19   C22   1.527839 S    
C25   C32   1.512467 S    
C20   C21   1.547870 S    
C1    O3    1.292776 A    
O17   Cr5   1.943832 S    
C26   H11   1.111072 S    
C31   H15   1.110046 S    
C27   C28   1.533682 S    
C1    C19   1.444054 S    
C13   C16   1.541234 S    
O2    Cr1   1.941298 S    
O10   C5    1.267540 A    
C11   C14   1.533821 S    
O25   Cr6   1.947453 S    
O17   C38   1.267798 A    
Cr4   O26   1.979067 S    
O8    C4    1.278686 A    
C2    O5    1.263090 A    
O14   C39   1.251296 A    
C10   C11   1.537910 S    
C29   C32   1.544176 S    
C15   C16   1.518256 S    
O2    C1    1.296981 A    
C9    C10   1.530479 S    
C33   C34   1.195105 T    
C6    C33   1.415224 S    
N1    O27   1.300484 A    
C17   C18   1.539514 S    
C23   H10   1.109801 S    
O7    C6    1.276635 A    
C2    C7    1.402076 S    
O24   Cr6   2.053326 S    
C25   C28   1.528550 S    
C20   H7    1.104073 S    
O15   C37   1.259942 A    
C21   C24   1.532668 S    
C17   C24   1.518239 S    
C40   O22   1.250113 A    
O3    Cr2   2.055176 S    
O19   Cr6   1.935833 S    
C4    O9    1.251823 A    
C41   O24   1.263818 A    
C29   H13   1.111015 S    
O18   Cr6   2.067251 S    
Cr3   O13   1.985987 S    
O15   Cr4   1.946969 S    
C3    C11   1.446431 S    
C9    C16   1.523534 S    
C27   C30   1.532050 S    
