data_mof_unit_16451.cif
_audit_creation_date              2012-10-26T19:40:10-0400
_audit_creation_method            fapswitch 2.2
_symmetry_space_group_name_H-M    P1
_symmetry_Int_Tables_number       1
_space_group_crystal_system       triclinic
_cell_length_a                    15.000523
_cell_length_b                    8.710332
_cell_length_c                    7.512471
_cell_angle_alpha                 103.128515
_cell_angle_beta                  94.645756
_cell_angle_gamma                 93.634441
_cell_volume                      949.391696616

loop_
_atom_site_label
_atom_site_type_symbol
_atom_type_description
_atom_site_fract_x
_atom_site_fract_y
_atom_site_fract_z
_atom_type_partial_charge
C1    C     C_R   0.496565 0.200167 0.453532 0.602223
C2    C     C_R   0.180513 0.365781 0.433898 0.373709
C3    C     C_R   0.766433 0.494148 0.493780 0.031488
C4    C     C_R   0.233527 0.505959 0.505771 0.031461
C5    C     C_R   0.803838 0.351282 0.424945 0.194060
C6    C     C_R   0.196084 0.648320 0.576724 0.193310
C7    C     C_R   0.898740 0.349929 0.425968 0.030375
C8    C     C_R   0.101093 0.650375 0.570762 0.030222
C9    C     C_R   0.952580 0.496796 0.495712 -0.068985
C10   C     C_R   0.047240 0.503699 0.500121 -0.068853
C11   C     C_R   0.911952 0.637648 0.561864 -0.003205
C12   C     C_R   0.503355 0.799827 0.546472 0.601344
C13   C     C_R   0.087885 0.363089 0.433089 -0.002699
C14   C     C_R   0.943128 0.210799 0.361779 0.269695
C15   C     C_R   0.056663 0.790160 0.630633 0.269985
C16   C     C_R   0.035946 0.220172 0.365544 -0.007153
C17   C     C_R   0.963845 0.780979 0.626700 -0.007449
C18   C     C_2   0.492188 0.032428 0.427969 0.411545
C19   C     C_2   0.507656 0.967559 0.572048 0.411647
C20   C     C_R   0.329516 0.501519 0.501853 0.605666
C21   C     C_R   0.670481 0.498654 0.498147 0.607095
C22   C     C_R   0.819358 0.634990 0.561637 0.373164
Cl1   Cl    Cl    0.727236 0.181080 0.343862 -0.396793
Cl2   Cl    Cl    0.272736 0.816205 0.671766 -0.393437
Cl3   Cl    Cl    0.891740 0.017170 0.274853 -0.418749
Cl4   Cl    Cl    0.107937 0.984924 0.706216 -0.422329
Cl5   Cl    Cl    0.392247 0.321167 0.907958 -0.272915
Cl6   Cl    Cl    0.607741 0.678855 0.092049 -0.272887
Cu1   Cu    Cu3+1 0.510010 0.517380 0.684380 1.317530
Cu2   Cu    Cu3+1 0.489990 0.482620 0.315620 1.317187
F1    F     F_    0.779687 0.770464 0.625841 -0.563771
F2    F     F_    0.220155 0.230736 0.367515 -0.563879
F3    F     F_    0.470251 0.944153 0.253426 -0.542337
F4    F     F_    0.529582 0.055831 0.746596 -0.542307
H1    H     H_    0.067975 0.112633 0.315336 0.237884
H2    H     H_    0.931778 0.889023 0.673995 0.237540
N1    N     N_2   0.474890 0.456420 0.038520 0.063135
N2    N     N_2   0.525110 0.543580 0.961480 0.063063
O1    O     O_R   0.506510 0.286130 0.619770 -0.479166
O2    O     O_R   0.493490 0.713870 0.380230 -0.479387
O3    O     O_R   0.489600 0.256770 0.308360 -0.428571
O4    O     O_R   0.510400 0.743230 0.691640 -0.428450
O5    O     O_R   0.378710 0.514640 0.655720 -0.477986
O6    O     O_R   0.621290 0.485360 0.344280 -0.479061
O7    O     O_R   0.361800 0.485290 0.344300 -0.476570
O8    O     O_R   0.638200 0.514710 0.655700 -0.476391

loop_
_geom_bond_atom_site_label_1
_geom_bond_atom_site_label_2
_ccdc_geom_bond_type
Cu1   N2    S    
C12   O2    A    
C2    C4    A    
Cu2   O3    S    
C15   C17   A    
N1    N2    D    
C17   H2    S    
Cu1   O4    S    
C21   O6    A    
C9    C10   A    
C3    C22   A    
Cu2   O7    S    
C20   O7    A    
C5    Cl1   S    
Cl6   N2    S    
Cu1   O8    S    
C6    Cl2   S    
Cu1   O1    S    
Cu2   O2    S    
C14   Cl3   S    
Cu1   O5    S    
C9    C11   A    
Cu2   O6    S    
C1    C18   S    
Cu1   Cu2   S    
Cl5   N1    S    
C12   C19   S    
C8    C10   A    
C21   O8    A    
C8    C15   A    
C16   H1    S    
C18   F3    S    
C14   C16   A    
C3    C21   S    
C4    C6    A    
C22   F1    S    
C1    O1    A    
C12   O4    A    
C4    C20   S    
C7    C9    A    
C20   O5    A    
C2    F2    S    
C18   C19   D    
C13   C16   A    
C1    O3    A    
C5    C7    A    
C2    C13   A    
C11   C17   A    
C15   Cl4   S    
C6    C8    A    
C11   C22   A    
C10   C13   A    
C7    C14   A    
Cu2   N1    S    
C3    C5    A    
C19   F4    S    
