data_mof_unit_12341.cif
_audit_creation_date              2012-12-10T19:08:04-0500
_audit_creation_method            fapswitch 2.2
_symmetry_space_group_name_H-M    P1
_symmetry_Int_Tables_number       1
_space_group_crystal_system       triclinic
_cell_length_a                    9.06754
_cell_length_b                    10.862773
_cell_length_c                    9.559359
_cell_angle_alpha                 90.518608
_cell_angle_beta                  89.988898
_cell_angle_gamma                 89.862647
_cell_volume                      941.542454472

loop_
_atom_site_label
_atom_site_type_symbol
_atom_type_description
_atom_site_fract_x
_atom_site_fract_y
_atom_site_fract_z
_atom_type_partial_charge
C1    C     C_R   0.491343 0.262529 0.498589 0.856359
C2    C     C_R   0.483013 0.931755 0.372008 -0.244182
C3    C     C_R   0.503779 0.870483 0.498875 -0.103155
C4    C     C_R   0.523972 0.939067 0.620977 0.015963
C5    C     C_3   0.447573 0.928465 0.758601 -0.417345
C6    C     C_3   0.428741 0.067523 0.755372 0.362052
C7    C     C_R   0.626824 0.522536 0.073797 0.237967
C8    C     C_R   0.372215 0.489857 0.073997 0.028831
C9    C     C_R   0.372199 0.490041 0.925806 -0.022764
C10   C     C_R   0.626868 0.522052 0.926514 0.232899
C11   C     C_3   0.764435 0.446554 0.920336 -0.453260
C12   C     C_R   0.220733 0.499736 0.499982 0.875826
C13   C     C_3   0.765159 0.448008 0.078917 -0.448205
C14   C     C_R   0.500459 0.737426 0.500383 0.813638
C15   C     C_R   0.779265 0.499677 0.500012 0.837640
C16   C     C_1   0.065582 0.499481 0.499999 -0.148842
C17   C     C_1   0.934425 0.499468 0.500006 -0.173494
C18   C     C_R   0.511747 0.065586 0.618931 -0.079171
C19   C     C_R   0.485368 0.128703 0.494389 -0.156567
C20   C     C_R   0.468139 0.059493 0.367843 0.369583
Cu1   Cu    Cu3+1 0.499990 0.499980 0.640670 0.987298
Cu2   Cu    Cu3+1 0.500010 0.500020 0.359330 1.009091
H1    H     H_    0.858343 0.498028 0.874538 0.201984
H2    H     H_    0.748628 0.355722 0.125447 0.249813
H3    H     H_    0.858872 0.501117 0.123689 0.193739
H4    H     H_    0.469070 0.879128 0.276280 0.202871
H5    H     H_    0.343363 0.874927 0.751402 0.233495
H6    H     H_    0.524007 0.897524 0.842186 0.177519
H7    H     H_    0.489179 0.116295 0.840402 0.142294
H8    H     H_    0.268754 0.477687 0.127908 0.162329
H9    H     H_    0.268652 0.478411 0.871734 0.171959
H10   H     H_    0.745771 0.353427 0.874413 0.224570
N1    N     N_R   0.500920 0.500930 0.147930 -0.178010
N2    N     N_R   0.500930 0.500890 0.852020 -0.194278
O1    O     O_R   0.500000 0.319640 0.618810 -0.562396
O2    O     O_R   0.500020 0.319680 0.381230 -0.507306
O3    O     O_R   0.288380 0.499980 0.618770 -0.572275
O4    O     O_R   0.288400 0.500020 0.381190 -0.586392
O5    O     O_R   0.499980 0.680320 0.618770 -0.584942
O6    O     O_R   0.500000 0.680360 0.381190 -0.596392
O7    O     O_R   0.711600 0.499980 0.618810 -0.586562
O8    O     O_R   0.711620 0.500020 0.381230 -0.588275
S1    S     S_3+6 0.409560 0.122706 0.205761 0.027112
O9    O     O_2   0.536964 0.186890 0.137681 -0.294268
O10   O     O_2   0.355951 0.022994 0.108442 -0.276216
O11   O     O_3   0.271632 0.224144 0.232104 -0.493172
H11   H     H_    0.197490 0.179038 0.287742 0.351722
S2    S     S_3+6 0.238179 0.112188 0.740612 0.019395
O12   O     O_2   0.225924 0.250057 0.741932 -0.298582
O13   O     O_2   0.173371 0.061966 0.607090 -0.320312
O14   O     O_3   0.143967 0.055877 0.877209 -0.468746
H12   H     H_    0.042489 0.088385 0.866377 0.369161

loop_
_geom_bond_atom_site_label_1
_geom_bond_atom_site_label_2
_ccdc_geom_bond_type
C7    C10   A    
S1    O9    D    
Cu1   O1    S    
C5    H6    S    
S1    O10   D    
C19   C20   A    
Cu1   O5    S    
Cu2   O6    S    
C4    C18   A    
C6    H7    S    
S2    O13   D    
C2    C3    A    
C8    H8    S    
O14   H12   S    
C10   N2    A    
Cu1   Cu2   S    
C11   C13   S    
C1    O1    A    
Cu2   O8    S    
C3    C14   S    
C6    S2    S    
Cu1   O7    S    
C5    C6    S    
C13   H2    S    
C11   H1    S    
S2    O12   D    
C11   H10   S    
C8    N1    A    
C1    O2    A    
C12   O4    A    
C9    N2    A    
C6    C18   S    
S1    O11   S    
C1    C19   S    
C16   C17   T    
C10   C11   S    
C7    N1    A    
C2    C20   A    
C3    C4    A    
Cu2   O4    S    
C7    C13   S    
C20   S1    S    
Cu1   O3    S    
C15   O7    A    
C2    H4    S    
C18   C19   A    
C12   O3    A    
C15   C17   S    
Cu2   N1    S    
C9    H9    S    
O11   H11   S    
C8    C9    A    
Cu1   N2    S    
C14   O5    A    
C5    H5    S    
C14   O6    A    
S2    O14   S    
Cu2   O2    S    
C12   C16   S    
C15   O8    A    
C4    C5    S    
C13   H3    S    
