data_mof_unit_28945.cif
_audit_creation_date              2012-12-10T16:32:41-0500
_audit_creation_method            fapswitch 2.2
_symmetry_space_group_name_H-M    P1
_symmetry_Int_Tables_number       1
_space_group_crystal_system       triclinic
_cell_length_a                    16.945291
_cell_length_b                    16.946848
_cell_length_c                    16.945335
_cell_angle_alpha                 65.652396
_cell_angle_beta                  65.654097
_cell_angle_gamma                 65.653473
_cell_volume                      3863.21897865

loop_
_atom_site_label
_atom_site_type_symbol
_atom_type_description
_atom_site_fract_x
_atom_site_fract_y
_atom_site_fract_z
_atom_type_partial_charge
C1    C     C_R   0.586132 0.044212 0.586289 0.142322
C2    C     C_R   0.821392 0.563828 0.033626 0.906472
C3    C     C_R   0.436044 0.966671 0.178593 0.907080
C4    C     C_R   0.563891 0.033485 0.821398 0.906343
C5    C     C_R   0.564047 0.821413 0.033113 0.906813
C6    C     C_R   0.436076 0.178592 0.966587 0.906425
C7    C     C_R   0.033423 0.563919 0.821405 0.906921
C8    C     C_R   0.966545 0.436095 0.178596 0.906231
C9    C     C_R   0.821405 0.033300 0.563969 0.906756
C10   C     C_R   0.178594 0.966615 0.436069 0.906655
C11   C     C_R   0.541432 0.022170 0.541747 -0.281467
C12   C     C_R   0.413651 0.956176 0.413715 0.142237
C13   C     C_R   0.458229 0.978237 0.458365 -0.281546
C14   C     C_R   0.021952 0.541590 0.541721 -0.281969
C15   C     C_R   0.978045 0.458469 0.458221 -0.281941
C16   C     C_R   0.542065 0.541219 0.021958 -0.281995
C17   C     C_R   0.458493 0.458197 0.978031 -0.281926
C18   C     C_R   0.553676 0.930696 0.554217 0.321519
C19   C     C_R   0.445960 0.069711 0.445924 0.321564
C20   C     C_R   0.930481 0.553523 0.554464 0.321905
C21   C     C_R   0.069517 0.446543 0.445471 0.321881
C22   C     C_R   0.555229 0.552754 0.930481 0.321850
C23   C     C_R   0.043990 0.586251 0.586311 0.142189
C24   C     C_R   0.445414 0.446583 0.069509 0.321845
C25   C     C_R   0.512126 0.908807 0.512560 0.320524
C26   C     C_R   0.487531 0.091602 0.487560 0.320530
C27   C     C_R   0.513469 0.511306 0.908596 0.320544
C28   C     C_R   0.487124 0.488083 0.091395 0.320561
C29   C     C_R   0.908604 0.512000 0.512766 0.320562
C30   C     C_R   0.091393 0.488059 0.487175 0.320560
C31   C     C_R   0.543910 0.048601 0.675570 -0.003672
C32   C     C_R   0.455837 0.952078 0.324344 -0.003689
C33   C     C_R   0.047963 0.675655 0.544161 -0.003880
C34   C     C_R   0.956009 0.413779 0.413660 0.142186
C35   C     C_R   0.952129 0.324342 0.455796 -0.003900
C36   C     C_R   0.675571 0.543750 0.048913 -0.003314
C37   C     C_R   0.324399 0.455838 0.951950 -0.003547
C38   C     C_R   0.324340 0.951909 0.455919 -0.003686
C39   C     C_R   0.675597 0.048061 0.544147 -0.003808
C40   C     C_R   0.455979 0.324352 0.951720 -0.003865
C41   C     C_R   0.544395 0.675678 0.047378 -0.004038
C42   C     C_R   0.951588 0.456008 0.324398 -0.003498
C43   C     C_R   0.048310 0.544038 0.675605 -0.003503
C44   C     C_R   0.594911 0.049703 0.724184 -0.112117
C45   C     C_R   0.586465 0.586058 0.044000 0.142216
C46   C     C_R   0.404979 0.950623 0.275783 -0.112125
C47   C     C_R   0.049379 0.724223 0.595030 -0.111936
C48   C     C_R   0.950673 0.275773 0.404949 -0.111981
C49   C     C_R   0.724168 0.594819 0.049908 -0.112247
C50   C     C_R   0.275797 0.404977 0.950578 -0.111992
C51   C     C_R   0.275784 0.950530 0.405018 -0.112066
C52   C     C_R   0.724203 0.049405 0.595025 -0.112044
C53   C     C_R   0.405033 0.275783 0.950450 -0.112046
C54   C     C_R   0.595134 0.724230 0.049067 -0.111855
C55   C     C_R   0.950382 0.405054 0.275801 -0.112026
C56   C     C_R   0.413795 0.413656 0.955990 0.142161
C57   C     C_R   0.049566 0.594967 0.724202 -0.112158
C58   C     C_R   0.681898 0.054853 0.681914 -0.250812
C59   C     C_R   0.318094 0.945174 0.318101 -0.250926
C60   C     C_R   0.054836 0.681908 0.681917 -0.250991
C61   C     C_R   0.945169 0.318093 0.318078 -0.251015
C62   C     C_R   0.681910 0.681864 0.054860 -0.250941
C63   C     C_R   0.318092 0.318082 0.945160 -0.250977
C64   C     C_1   0.449234 0.050769 0.715282 0.287286
C65   C     C_1   0.550317 0.950632 0.284490 0.287638
C66   C     C_1   0.049288 0.715547 0.449713 0.287851
C67   C     C_R   0.966719 0.178589 0.436020 0.906774
C68   C     C_1   0.950932 0.284425 0.550209 0.287935
C69   C     C_1   0.715156 0.448916 0.051706 0.287331
C70   C     C_1   0.284576 0.550322 0.950454 0.287621
C71   C     C_1   0.284529 0.950210 0.550469 0.287544
C72   C     C_1   0.715496 0.049349 0.449707 0.287558
C73   C     C_1   0.550568 0.284562 0.949876 0.287825
C74   C     C_1   0.450212 0.715794 0.047724 0.288130
C75   C     C_1   0.949487 0.550656 0.284690 0.287558
C76   C     C_1   0.050224 0.449440 0.715354 0.287705
C77   C     C_R   0.033311 0.821410 0.563967 0.906576
C78   C     C_R   0.178595 0.436043 0.966667 0.906651
Cl1   Cl    Cl    0.472173 0.206168 0.471869 -0.415527
Cl2   Cl    Cl    0.624283 0.619547 0.842851 -0.394868
Cl3   Cl    Cl    0.157137 0.379213 0.376971 -0.394914
Cl4   Cl    Cl    0.842861 0.620861 0.622956 -0.394748
Cl5   Cl    Cl    0.527546 0.794240 0.528187 -0.415744
Cl6   Cl    Cl    0.205957 0.473062 0.471161 -0.414569
Cl7   Cl    Cl    0.794041 0.526977 0.528801 -0.414544
Cl8   Cl    Cl    0.470556 0.473597 0.205971 -0.414546
Cl9   Cl    Cl    0.529908 0.525910 0.794018 -0.414606
Cl10  Cl    Cl    0.378181 0.157318 0.377845 -0.396395
Cl11  Cl    Cl    0.621419 0.843081 0.622331 -0.396875
Cl12  Cl    Cl    0.376475 0.379675 0.157139 -0.394932
H1    H     H_    0.719682 0.055955 0.719674 0.195682
H2    H     H_    0.280376 0.943916 0.280374 0.195641
H3    H     H_    0.056029 0.719649 0.719652 0.195627
H4    H     H_    0.943979 0.280347 0.280346 0.195645
H5    H     H_    0.719623 0.719635 0.056060 0.195600
H6    H     H_    0.280340 0.280352 0.943975 0.195644
N1    N     N_1   0.373756 0.052572 0.746484 -0.156952
N2    N     N_1   0.375151 0.747311 0.048039 -0.156707
N3    N     N_1   0.947742 0.626114 0.253484 -0.156835
N4    N     N_1   0.051812 0.374025 0.746593 -0.156806
N5    N     N_1   0.625631 0.949425 0.253170 -0.156962
N6    N     N_1   0.050399 0.746897 0.374424 -0.156732
N7    N     N_1   0.949925 0.253058 0.625469 -0.156665
N8    N     N_1   0.746264 0.373311 0.054004 -0.156899
N9    N     N_1   0.253284 0.625641 0.949209 -0.156851
N10   N     N_1   0.253245 0.948796 0.625840 -0.157026
N11   N     N_1   0.746844 0.050433 0.374428 -0.156949
N12   N     N_1   0.625976 0.253298 0.948334 -0.156688
O1    O     O_R   0.982940 0.138950 0.510160 -0.624583
O2    O     O_R   0.982940 0.510160 0.138950 -0.624346
O3    O     O_R   0.861050 0.017060 0.489840 -0.624536
O4    O     O_R   0.138950 0.982940 0.510160 -0.624546
O5    O     O_R   0.867700 0.025880 0.612340 -0.626432
O6    O     O_R   0.132300 0.974120 0.387660 -0.626420
O7    O     O_R   0.025880 0.612340 0.867700 -0.626444
O8    O     O_R   0.974120 0.387660 0.132300 -0.626617
O9    O     O_R   0.612340 0.867700 0.025880 -0.626417
O10   O     O_R   0.387660 0.132300 0.974120 -0.626502
O11   O     O_R   0.387660 0.974120 0.132300 -0.626317
O12   O     O_R   0.017060 0.861050 0.489840 -0.624606
O13   O     O_R   0.612340 0.025880 0.867700 -0.626490
O14   O     O_R   0.132300 0.387660 0.974120 -0.626524
O15   O     O_R   0.867700 0.612340 0.025880 -0.626461
O16   O     O_R   0.974120 0.132300 0.387660 -0.626441
O17   O     O_R   0.025880 0.867700 0.612340 -0.626485
O18   O     O_R   0.138950 0.510160 0.982940 -0.624325
O19   O     O_R   0.861050 0.489840 0.017060 -0.624130
O20   O     O_R   0.510160 0.982940 0.138950 -0.624492
O21   O     O_R   0.489840 0.017060 0.861050 -0.624505
O22   O     O_R   0.489840 0.861050 0.017060 -0.624700
O23   O     O_R   0.510160 0.138950 0.982940 -0.624577
O24   O     O_R   0.017060 0.489840 0.861050 -0.624202
Zn1   Zn    Zn3+2 0.004880 0.004880 0.583590 1.021305
Zn2   Zn    Zn3+2 0.995120 0.995120 0.416410 1.021320
Zn3   Zn    Zn3+2 0.004880 0.583590 0.004880 1.021502
Zn4   Zn    Zn3+2 0.995120 0.416410 0.995120 1.021533
Zn5   Zn    Zn3+2 0.583590 0.004880 0.004880 1.021303
Zn6   Zn    Zn3+2 0.416410 0.995120 0.995120 1.021300

loop_
_geom_bond_atom_site_label_1
_geom_bond_atom_site_label_2
_ccdc_geom_bond_type
C16   C28   A    
C11   C18   A    
C9    O3    A    
C20   Cl4   S    
C46   C59   A    
C66   N6    T    
C34   C42   A    
C68   N7    T    
C65   N5    T    
O4    Zn1   S    
C77   O12   A    
C67   O16   A    
C74   N2    T    
C2    O15   A    
C18   C25   A    
C42   C75   S    
C8    O8    A    
C35   C48   A    
O13   Zn5   S    
C1    C31   A    
C23   C43   A    
C40   C73   S    
C34   C35   A    
C7    O7    A    
C19   C26   A    
C47   C60   A    
C37   C56   A    
C67   O1    A    
O21   Zn6   S    
C44   C58   A    
C23   C33   A    
C1    C11   S    
C39   C72   S    
C10   O4    A    
C58   H1    S    
C15   C34   S    
C29   Cl7   S    
C10   O6    A    
C60   H3    S    
C39   C52   A    
C41   C74   S    
O5    Zn1   S    
C37   C70   S    
C12   C32   A    
C30   Cl6   S    
C50   C63   A    
O11   Zn6   S    
C13   C25   A    
O2    Zn3   S    
C9    C52   S    
C14   C30   A    
C10   C51   S    
C50   C78   S    
C8    C55   S    
C33   C66   S    
C15   C29   A    
C20   C29   A    
C52   C58   A    
C17   C24   A    
C31   C44   A    
C13   C19   A    
O1    Zn1   S    
C17   C27   A    
C14   C20   A    
C5    C54   S    
O19   Zn4   S    
C19   Cl10  S    
C1    C39   A    
C61   H4    S    
C73   N12   T    
C38   C51   A    
C4    C44   S    
C11   C26   A    
C40   C56   A    
C63   H6    S    
C5    O9    A    
C14   C23   S    
O20   Zn5   S    
O23   Zn5   S    
C2    C49   S    
C8    O2    A    
C42   C55   A    
C72   N11   T    
O24   Zn4   S    
C75   N3    T    
O6    Zn2   S    
C36   C45   A    
C27   Cl9   S    
C17   C56   S    
O14   Zn4   S    
C7    O24   A    
C3    O11   A    
C5    O22   A    
C21   Cl3   S    
O18   Zn3   S    
C22   C27   A    
C28   Cl8   S    
C33   C47   A    
C51   C59   A    
C47   C77   S    
C6    C53   S    
O22   Zn6   S    
C77   O17   A    
C36   C69   S    
C69   N8    T    
O17   Zn1   S    
C43   C76   S    
C38   C71   S    
C64   N1    T    
C16   C22   A    
C49   C62   A    
C3    O20   A    
C18   Cl11  S    
C32   C46   A    
C31   C64   S    
O9    Zn5   S    
C24   C28   A    
C6    O23   A    
C57   C60   A    
C70   N9    T    
C24   Cl12  S    
C16   C45   S    
O3    Zn2   S    
C4    O21   A    
O8    Zn4   S    
C76   N4    T    
C54   C62   A    
C21   C30   A    
C3    C46   S    
C26   Cl1   S    
O16   Zn2   S    
C9    O5    A    
C22   Cl2   S    
O10   Zn6   S    
C2    O19   A    
C37   C50   A    
C53   C63   A    
C48   C61   A    
O7    Zn3   S    
C35   C68   S    
C55   C61   A    
C6    O10   A    
C4    O13   A    
O12   Zn2   S    
C59   H2    S    
C48   C67   S    
C12   C38   A    
C78   O14   A    
C41   C54   A    
C43   C57   A    
C15   C21   A    
C12   C13   S    
C40   C53   A    
C71   N10   T    
O15   Zn3   S    
C25   Cl5   S    
C41   C45   A    
C62   H5    S    
C7    C57   S    
C36   C49   A    
C32   C65   S    
C78   O18   A    
