data_mof_unit_51978.cif
_audit_creation_date              2012-12-10T20:30:09-0500
_audit_creation_method            fapswitch 2.2
_symmetry_space_group_name_H-M    P1
_symmetry_Int_Tables_number       1
_space_group_crystal_system       triclinic
_cell_length_a                    9.87422
_cell_length_b                    10.633656
_cell_length_c                    13.133454
_cell_angle_alpha                 89.789689
_cell_angle_beta                  70.025649
_cell_angle_gamma                 90.459871
_cell_volume                      1295.97550753

loop_
_atom_site_label
_atom_site_type_symbol
_atom_type_description
_atom_site_fract_x
_atom_site_fract_y
_atom_site_fract_z
_atom_type_partial_charge
C1    C     C_R   0.499483 0.740517 0.502301 0.890080
C2    C     C_R   0.431099 0.482449 0.984957 0.088510
C3    C     C_R   0.456683 0.444262 0.877538 0.086246
C4    C     C_R   0.539336 0.460614 0.030586 0.080636
C5    C     C_R   0.658580 0.383199 0.976704 0.176642
C6    C     C_R   0.670793 0.331247 0.876834 -0.270776
C7    C     C_R   0.571231 0.361392 0.827587 -0.216989
C8    C     C_R   0.532960 0.515304 0.128074 -0.266691
C9    C     C_R   0.745473 0.403416 0.127552 -0.203542
C10   C     C_R   0.368247 0.492100 0.822228 -0.119451
C11   C     C_R   0.363572 0.934604 0.535771 0.064874
C12   C     C_R   0.420024 0.495742 0.704202 0.842087
C13   C     C_R   0.491404 0.872077 0.522296 -0.104650
C14   C     C_R   0.605583 0.936730 0.539782 -0.210088
C15   C     C_R   0.600619 0.066500 0.546824 -0.194646
C16   C     C_R   0.480453 0.129569 0.537875 -0.157252
C17   C     C_R   0.352671 0.061427 0.551737 0.037055
C18   C     C_3   0.238278 0.069861 0.498828 0.309160
C19   C     C_3   0.265529 0.931435 0.471290 -0.473330
C20   C     C_R   0.886001 0.511812 0.594554 0.224997
C21   C     C_R   0.969550 0.476783 0.407877 -0.137423
C22   C     C_R   0.113269 0.476610 0.407877 -0.136375
C23   C     C_R   0.494752 0.260181 0.509546 0.867529
C24   C     C_R   0.028240 0.511291 0.594700 0.164590
C25   C     C_3   0.999555 0.618043 0.672163 -0.503356
C26   C     C_3   0.846411 0.619581 0.670902 -0.473313
C27   C     C_R   0.579958 0.499137 0.295910 0.880333
C28   C     C_R   0.762043 0.356787 0.024996 -0.210011
C29   C     C_R   0.627824 0.479832 0.179965 -0.059749
C30   C     C_R   0.239478 0.552848 0.879502 -0.185275
C31   C     C_R   0.202227 0.572457 0.990002 -0.144133
C32   C     C_R   0.298275 0.540701 0.042312 -0.199607
H1    H     H_    0.818960 0.374091 0.168082 0.150321
H2    H     H_    0.695919 0.116662 0.548213 0.178031
H3    H     H_    0.264386 0.132667 0.426615 0.101796
H4    H     H_    0.170449 0.868902 0.508065 0.225692
H5    H     H_    0.324514 0.915076 0.383731 0.153254
H6    H     H_    0.949226 0.460066 0.333175 0.144356
H7    H     H_    0.200153 0.459269 0.332889 0.154684
H8    H     H_    0.004321 0.588566 0.751932 0.191905
H9    H     H_    0.063164 0.703892 0.636655 0.218076
H10   H     H_    0.764742 0.592641 0.750105 0.214914
H11   H     H_    0.758662 0.269113 0.835811 0.149647
H12   H     H_    0.821024 0.705797 0.632998 0.210214
H13   H     H_    0.851219 0.295266 0.986038 0.150538
H14   H     H_    0.450319 0.581919 0.168465 0.143046
H15   H     H_    0.170210 0.589100 0.838249 0.148205
H16   H     H_    0.264473 0.560092 0.127889 0.124395
H17   H     H_    0.101619 0.617748 0.034327 0.144490
H18   H     H_    0.584074 0.318061 0.750466 0.167817
H19   H     H_    0.702563 0.889238 0.539053 0.172243
N1    N     N_R   0.856940 0.500860 0.500710 -0.105480
N2    N     N_R   0.142580 0.500820 0.500710 -0.108688
O1    O     O_R   0.385310 0.683210 0.499990 -0.607776
O2    O     O_R   0.614650 0.683240 0.500000 -0.616639
O3    O     O_R   0.328390 0.499940 0.653610 -0.615642
O4    O     O_R   0.557730 0.499980 0.653620 -0.612460
O5    O     O_R   0.385350 0.316760 0.500000 -0.645631
O6    O     O_R   0.614690 0.316790 0.500010 -0.615415
O7    O     O_R   0.442270 0.500020 0.346380 -0.618275
O8    O     O_R   0.671610 0.500060 0.346390 -0.617243
Zn1   Zn    Zn3+2 0.346870 0.499980 0.499990 0.922878
Zn2   Zn    Zn3+2 0.653130 0.500020 0.500010 0.936178
O9    O     O_3   0.094138 0.080210 0.571700 -0.632344
C33   C     C_3   0.072418 0.187314 0.638307 0.117277
H20   H     H_    0.965774 0.227082 0.645781 0.124880
H21   H     H_    0.150667 0.263771 0.602975 0.178616
C34   C     C_3   0.069651 0.149718 0.752032 -0.368803
H22   H     H_    0.959258 0.117901 0.801671 0.202596
H23   H     H_    0.143218 0.069888 0.747647 0.244479
C35   C     C_3   0.115601 0.258814 0.808112 -0.945642
H24   H     H_    0.230709 0.281629 0.764419 0.270831
H25   H     H_    0.103388 0.231628 0.892498 0.261812
H26   H     H_    0.049078 0.342985 0.809457 0.260776

loop_
_geom_bond_atom_site_label_1
_geom_bond_atom_site_label_2
_ccdc_geom_bond_type
O5    Zn1   S    
C23   O5    A    
C27   C29   S    
C4    C8    A    
C26   H12   S    
C23   O6    A    
C11   C19   S    
C8    C29   A    
O7    Zn1   S    
C3    C7    A    
C19   H4    S    
C25   H8    S    
C5    C6    A    
C15   C16   A    
C2    C32   A    
C18   C19   S    
O8    Zn2   S    
C27   O8    A    
C21   H6    S    
C31   C32   A    
C16   C17   A    
C33   H21   S    
O2    Zn2   S    
C19   H5    S    
C18   H3    S    
C15   H2    S    
C9    C29   A    
C13   C14   A    
C9    H1    S    
C32   H16   S    
C31   H17   S    
C25   C26   S    
O4    Zn2   S    
C22   N2    A    
C28   H13   S    
C20   C24   A    
C30   H15   S    
C24   C25   S    
C25   H9    S    
C35   H25   S    
C34   H22   S    
O1    Zn1   S    
C24   N2    A    
C2    C4    A    
C1    O1    A    
C5    C28   A    
N2    Zn1   S    
C10   C30   A    
C14   H19   S    
C33   C34   S    
C17   C18   S    
C12   O3    A    
C10   C12   S    
C12   O4    A    
C16   C23   S    
C6    H11   S    
O3    Zn1   S    
C1    C13   S    
C26   H10   S    
C11   C17   A    
C7    H18   S    
C4    C5    A    
N1    Zn2   S    
C35   H26   S    
C6    C7    A    
O6    Zn2   S    
C27   O7    A    
O9    C33   S    
C2    C3    A    
C1    O2    A    
C35   H24   S    
C20   N1    A    
C3    C10   A    
C11   C13   A    
C18   O9    S    
C30   C31   A    
C20   C26   S    
C34   C35   S    
C22   H7    S    
C8    H14   S    
C34   H23   S    
C33   H20   S    
C14   C15   A    
C21   C22   A    
C21   N1    A    
C9    C28   A    
