data_mof_unit_55671.cif
_audit_creation_date              2013-03-05T16:31:21-0500
_audit_creation_method            fapswitch 2.2
_symmetry_space_group_name_H-M    P1
_symmetry_Int_Tables_number       1
_space_group_crystal_system       triclinic
_cell_length_a                    9.59462
_cell_length_b                    10.761383
_cell_length_c                    13.424457
_cell_angle_alpha                 90.661082
_cell_angle_beta                  72.541377
_cell_angle_gamma                 89.890812
_cell_volume                      1322.13279064

loop_
_atom_site_label
_atom_site_type_symbol
_atom_site_description
_atom_site_fract_x
_atom_site_fract_y
_atom_site_fract_z
_atom_type_partial_charge
O1    O     O_R   0.381190 0.680360 0.500000 -0.553425
O2    O     O_R   0.618780 0.680320 0.499990 -0.531544
C1    C     C_R   0.498916 0.737390 0.502206 0.895608
O3    O     O_R   0.323230 0.500000 0.650990 -0.575337
O4    O     O_R   0.560820 0.499960 0.650980 -0.529574
C2    C     C_R   0.421720 0.493603 0.699881 0.814007
Cu1   Cu    Cu3+1 0.359330 0.500020 0.500010 0.986343
Cu2   Cu    Cu3+1 0.640670 0.499980 0.499990 0.993236
O5    O     O_R   0.381220 0.319680 0.500010 -0.559348
O6    O     O_R   0.618810 0.319640 0.500000 -0.605355
O7    O     O_R   0.439180 0.500040 0.349020 -0.562637
O8    O     O_R   0.676770 0.500000 0.349010 -0.596257
C3    C     C_R   0.501351 0.263005 0.497675 0.914845
C4    C     C_R   0.578415 0.497291 0.300185 0.825372
C5    C     C_R   0.786356 0.392562 0.028124 -0.187738
H1    H     H_    0.839230 0.408757 0.171825 0.149805
H2    H     H_    0.806722 0.319387 0.834612 0.136841
H3    H     H_    0.890837 0.350164 0.987477 0.137555
C6    C     C_R   0.622615 0.480013 0.186849 -0.031343
C7    C     C_R   0.233609 0.530860 0.869101 -0.201385
C8    C     C_R   0.191273 0.544962 0.976777 -0.167078
C9    C     C_R   0.290676 0.522885 0.031531 -0.183433
C10   C     C_R   0.434484 0.480621 0.979425 0.080123
C11   C     C_R   0.471341 0.452035 0.871204 0.097604
C12   C     C_R   0.542349 0.464325 0.031384 0.083415
C13   C     C_R   0.678959 0.408678 0.977679 0.172844
C14   C     C_R   0.705614 0.367135 0.875077 -0.233603
C15   C     C_R   0.602686 0.386686 0.823089 -0.173485
C16   C     C_R   0.519149 0.502961 0.135071 -0.238372
C17   C     C_R   0.757937 0.427318 0.132618 -0.171347
C18   C     C_R   0.374453 0.488164 0.814737 -0.094991
H4    H     H_    0.420536 0.550872 0.178197 0.146362
H5    H     H_    0.156453 0.556040 0.828194 0.155187
H6    H     H_    0.249940 0.536724 0.114867 0.130862
H7    H     H_    0.081760 0.576874 0.017894 0.148605
H8    H     H_    0.626680 0.346752 0.745614 0.159507
C19   C     C_R   0.536431 0.938911 0.575603 0.009373
C20   C     C_R   0.501666 0.870883 0.497384 -0.203090
C21   C     C_R   0.484502 0.932336 0.409247 0.172548
C22   C     C_R   0.487414 0.063442 0.406987 0.265876
C23   C     C_R   0.506231 0.130029 0.492861 -0.161315
C24   C     C_R   0.538022 0.066796 0.573045 -0.045729
C25   C     C_3   0.474974 0.080604 0.689052 0.010016
C26   C     C_3   0.467627 0.938386 0.692278 0.059137
H9    H     H_    0.556039 0.121917 0.724018 0.112235
H10   H     H_    0.357493 0.895781 0.715675 0.143040
C27   C     C_R   0.957086 0.432587 0.427076 0.159255
N1    N     N_R   0.852320 0.499070 0.499340 -0.230619
C28   C     C_R   0.898496 0.575251 0.566244 0.390498
C29   C     C_R   0.048079 0.577689 0.564438 0.249121
N2    N     N_R   0.148230 0.499110 0.499340 -0.220855
C30   C     C_R   0.103815 0.432316 0.427268 0.179693
C31   C     C_3   0.116909 0.295244 0.409469 -0.425374
C32   C     C_3   0.958637 0.295437 0.409733 -0.484441
H11   H     H_    0.194096 0.270935 0.331827 0.244288
H12   H     H_    0.134242 0.244319 0.476403 0.216733
H13   H     H_    0.945042 0.270467 0.332611 0.203872
H14   H     H_    0.885658 0.245178 0.477237 0.215809
Cl1   Cl    Cl    0.471754 0.143249 0.296492 -0.693870
N3    N     N_2   0.334968 0.146412 0.723259 -0.424383
H15   H     H_    0.309463 0.179863 0.798921 0.255491
C33   C     C_3   0.208850 0.100026 0.696361 -0.687122
H16   H     H_    0.129454 0.177208 0.703236 0.227468
H17   H     H_    0.154447 0.026217 0.751344 0.209507
H18   H     H_    0.239141 0.063626 0.615085 0.232187
N4    N     N_2   0.564282 0.885149 0.745445 -0.367167
H19   H     H_    0.667859 0.922607 0.725955 0.274857
C34   C     C_3   0.499470 0.867848 0.856345 -0.618171
H20   H     H_    0.578778 0.819924 0.888564 0.243321
H21   H     H_    0.400394 0.809046 0.871243 0.231654
H22   H     H_    0.470055 0.959252 0.896641 0.209559
Cl2   Cl    Cl    0.773413 0.668623 0.659143 -0.633677
N5    N     N_2   0.093620 0.659119 0.632567 -0.365900
H23   H     H_    0.039304 0.645661 0.710452 0.248664
C35   C     C_3   0.101360 0.789206 0.604470 -0.616280
H24   H     H_    0.993794 0.835812 0.637283 0.234867
H25   H     H_    0.138632 0.800596 0.518250 0.235082
H26   H     H_    0.180471 0.836101 0.637315 0.198787
N6    N     N_2   0.461857 0.862176 0.324876 -0.417336
H27   H     H_    0.386744 0.900687 0.292961 0.289851
C36   C     C_3   0.595161 0.824155 0.246481 -0.645026
H28   H     H_    0.656653 0.906854 0.208181 0.255687
H29   H     H_    0.568148 0.765939 0.186108 0.212536
H30   H     H_    0.665014 0.768594 0.282153 0.217475

loop_
_geom_bond_atom_site_label_1
_geom_bond_atom_site_label_2
_geom_bond_distance
_ccdc_geom_bond_type
C5    H3    1.084032 S    
N4    C34   1.445386 S    
C23   C24   1.388495 A    
C26   N4    1.449909 S    
C35   H24   1.109446 S    
C3    C23   1.431765 S    
C36   H28   1.111314 S    
Cu1   Cu2   2.699269 S    
C31   C32   1.517503 S    
Cu1   O7    1.940033 S    
C13   C14   1.391546 A    
C33   H16   1.110096 S    
C16   H4    1.076469 S    
C20   C21   1.413843 A    
O7    C4    1.299690 A    
H1    C17   1.083263 S    
N3    C33   1.450551 S    
N5    H23   1.030819 S    
C19   C24   1.377046 A    
O5    C3    1.294867 A    
C33   H17   1.109997 S    
C1    C20   1.438709 S    
C34   H20   1.110491 S    
C28   Cl2   1.753183 S    
C10   C11   1.418210 A    
C2    C18   1.472779 S    
C22   Cl1   1.767230 S    
C8    C9    1.389293 A    
N5    C35   1.450279 S    
O3    Cu1   1.951091 S    
C36   H29   1.109717 S    
C26   H10   1.109718 S    
C31   H11   1.110440 S    
C12   C16   1.400109 A    
C9    H6    1.077069 S    
N2    C30   1.366342 A    
H2    C14   1.084274 S    
O3    C2    1.304394 A    
C29   N5    1.420595 S    
C21   C22   1.411707 A    
N6    C36   1.446102 S    
C5    C13   1.403999 A    
C12   C13   1.420000 A    
N3    H15   1.031147 S    
O1    C1    1.294485 A    
C21   N6    1.424312 S    
C25   C26   1.532739 S    
Cu2   N1    2.028104 S    
C19   C20   1.393970 A    
C35   H25   1.112514 S    
C27   N1    1.363631 A    
Cu2   O8    1.951091 S    
C29   N2    1.370439 A    
C25   H9    1.112876 S    
C25   N3    1.461366 S    
C27   C32   1.490875 S    
C7    H5    1.081485 S    
Cu2   O6    1.952403 S    
C22   C23   1.407604 A    
O8    C4    1.300696 A    
C24   C25   1.497440 S    
C6    C16   1.395236 A    
C36   H30   1.110704 S    
C30   C31   1.490599 S    
C5    C17   1.392843 A    
C32   H14   1.111768 S    
C31   H12   1.111792 S    
Cu1   O5    1.951641 S    
N1    C28   1.377757 A    
C33   H18   1.108077 S    
O1    Cu1   1.952403 S    
C4    C6    1.461269 S    
O2    Cu2   1.951641 S    
C11   C15   1.413368 A    
O6    C3    1.290647 A    
O4    Cu2   1.940033 S    
C27   C30   1.408583 A    
C8    H7    1.083005 S    
C19   C26   1.506289 S    
O2    C1    1.295002 A    
C11   C18   1.420646 A    
Cu1   N2    2.028184 S    
O4    C2    1.300959 A    
C34   H22   1.111243 S    
N4    H19   1.032709 S    
C10   C12   1.422556 A    
C35   H26   1.105607 S    
N6    H27   1.030986 S    
C7    C8    1.385599 A    
C15   H8    1.079370 S    
C34   H21   1.111393 S    
C28   C29   1.428402 A    
C14   C15   1.386648 A    
C9    C10   1.418128 A    
C6    C17   1.399228 A    
C32   H13   1.111685 S    
C7    C18   1.402850 A    
