data_mof_unit_32152.cif
_audit_creation_date              2012-12-10T17:27:07-0500
_audit_creation_method            fapswitch 2.2
_symmetry_space_group_name_H-M    P1
_symmetry_Int_Tables_number       1
_space_group_crystal_system       triclinic
_cell_length_a                    18.254918
_cell_length_b                    18.079197
_cell_length_c                    11.976874
_cell_angle_alpha                 89.190409
_cell_angle_beta                  84.598775
_cell_angle_gamma                 90.160313
_cell_volume                      3934.80153168

loop_
_atom_site_label
_atom_site_type_symbol
_atom_type_description
_atom_site_fract_x
_atom_site_fract_y
_atom_site_fract_z
_atom_type_partial_charge
C1    C     C_R   0.400685 0.100685 0.521633 0.989258
C2    C     C_R   0.535279 0.997894 0.019139 0.093022
C3    C     C_R   0.964720 0.502106 0.980861 0.093031
C4    C     C_R   0.035280 0.497892 0.019139 0.093005
C5    C     C_R   0.587821 0.996070 0.825964 0.036811
C6    C     C_R   0.412179 0.003928 0.174036 0.036870
C7    C     C_R   0.087820 0.496061 0.825964 0.036860
C8    C     C_R   0.912179 0.503933 0.174036 0.036816
C9    C     C_R   0.597177 0.994883 0.940712 -0.354598
C10   C     C_R   0.402822 0.005111 0.059288 -0.354613
C11   C     C_R   0.097178 0.494873 0.940712 -0.354594
C12   C     C_R   0.599313 0.899315 0.478366 0.989259
C13   C     C_R   0.902822 0.505121 0.059288 -0.354612
C14   C     C_R   0.458187 0.003096 0.864713 -0.069067
C15   C     C_R   0.541813 0.996897 0.135287 -0.069074
C16   C     C_R   0.958187 0.503108 0.864713 -0.069156
C17   C     C_R   0.041813 0.496893 0.135288 -0.068964
C18   C     C_R   0.654957 0.157353 0.460127 -0.293657
C19   C     C_R   0.345043 0.842645 0.539872 -0.293629
C20   C     C_R   0.341869 0.152594 0.534944 -0.278502
C21   C     C_R   0.658124 0.847403 0.465048 -0.278466
C22   C     C_R   0.154951 0.657360 0.460128 -0.293625
C23   C     C_R   0.599315 0.101133 0.476924 0.980429
C24   C     C_R   0.845042 0.342647 0.539872 -0.293714
C25   C     C_R   0.841873 0.652602 0.534944 -0.278496
C26   C     C_R   0.158128 0.347405 0.465055 -0.278444
C27   C     C_R   0.229140 0.801792 0.632296 -0.254451
C28   C     C_R   0.770869 0.198197 0.367719 -0.254408
C29   C     C_R   0.782289 0.821324 0.393034 -0.272408
C30   C     C_R   0.217691 0.178657 0.606917 -0.272297
C31   C     C_R   0.729131 0.301801 0.632282 -0.254319
C32   C     C_R   0.270852 0.698217 0.367702 -0.254460
C33   C     C_R   0.282310 0.321349 0.393095 -0.272396
C34   C     C_R   0.400686 0.898866 0.523076 0.980422
C35   C     C_R   0.717716 0.678695 0.606986 -0.272353
C36   C     C_R   0.291541 0.845841 0.632008 0.452472
C37   C     C_R   0.708470 0.154148 0.368006 0.452426
C38   C     C_R   0.719345 0.863757 0.388974 0.428041
C39   C     C_R   0.280638 0.136231 0.610991 0.428010
C40   C     C_R   0.791529 0.345848 0.631994 0.452385
C41   C     C_R   0.208452 0.654167 0.367991 0.452498
C42   C     C_R   0.219366 0.363782 0.389028 0.428018
C43   C     C_R   0.780662 0.636262 0.611039 0.428062
C44   C     C_R   0.341677 0.789387 0.456550 0.441806
C45   C     C_R   0.900687 0.600688 0.521632 0.989222
C46   C     C_R   0.658314 0.210620 0.543437 0.441820
C47   C     C_R   0.657475 0.787569 0.540826 0.423101
C48   C     C_R   0.342523 0.212436 0.459177 0.423068
C49   C     C_R   0.841683 0.289382 0.456559 0.441850
C50   C     C_R   0.158315 0.710620 0.543449 0.441810
C51   C     C_R   0.157467 0.287555 0.540805 0.423070
C52   C     C_R   0.842513 0.712425 0.459145 0.423049
C53   C     C_R   0.278430 0.746672 0.455929 -0.077925
C54   C     C_R   0.721560 0.253337 0.544062 -0.077995
C55   C     C_R   0.718460 0.741296 0.537017 -0.071291
C56   C     C_R   0.099312 0.399313 0.478367 0.989293
C57   C     C_R   0.281544 0.258718 0.463003 -0.071312
C58   C     C_R   0.778437 0.246664 0.455935 -0.077946
C59   C     C_R   0.221562 0.753336 0.544070 -0.077930
C60   C     C_R   0.218450 0.241279 0.536991 -0.071320
C61   C     C_R   0.781537 0.758713 0.462984 -0.071336
C62   C     C_3   0.546102 0.260620 0.591810 -0.292728
C63   C     C_3   0.453887 0.739396 0.408114 -0.292744
C64   C     C_3   0.391565 0.201219 0.276243 -0.256751
C65   C     C_3   0.608390 0.798798 0.723747 -0.256740
C66   C     C_3   0.046104 0.760608 0.591874 -0.292770
C67   C     C_R   0.099312 0.601136 0.476924 0.980441
C68   C     C_3   0.953895 0.239383 0.408181 -0.292732
C69   C     C_3   0.891479 0.701145 0.276189 -0.256665
C70   C     C_3   0.108379 0.298760 0.723723 -0.256827
C71   C     C_3   0.686947 0.137387 0.186550 -0.286590
C72   C     C_3   0.312988 0.862585 0.813508 -0.286650
C73   C     C_3   0.274131 0.092090 0.790777 -0.254087
C74   C     C_3   0.725905 0.907902 0.209175 -0.254048
C75   C     C_3   0.187003 0.637425 0.186491 -0.286699
C76   C     C_3   0.813234 0.362600 0.813363 -0.286622
C77   C     C_3   0.774058 0.592137 0.790855 -0.254076
C78   C     C_R   0.900684 0.398868 0.523077 0.980396
C79   C     C_3   0.225979 0.407981 0.209257 -0.254048
C80   C     C_R   0.464720 0.002099 0.980861 0.093027
H1    H     H_    0.364579 0.006377 0.234885 0.130977
H2    H     H_    0.313938 0.692698 0.299718 0.207422
H3    H     H_    0.331846 0.338600 0.342729 0.200248
H4    H     H_    0.668195 0.661469 0.657410 0.200217
H5    H     H_    0.186054 0.807310 0.700280 0.207425
H6    H     H_    0.813959 0.192673 0.299743 0.207450
H7    H     H_    0.831815 0.838557 0.342627 0.200259
H8    H     H_    0.168162 0.161413 0.657307 0.200268
H9    H     H_    0.652081 0.991576 0.967719 0.131188
H10   H     H_    0.347919 0.008417 0.032281 0.131191
H11   H     H_    0.152082 0.491558 0.967720 0.131186
H12   H     H_    0.635421 0.993622 0.765114 0.131018
H13   H     H_    0.847918 0.508432 0.032280 0.131202
H14   H     H_    0.501680 0.265828 0.661062 0.189573
H15   H     H_    0.521523 0.234907 0.520112 0.180231
H16   H     H_    0.566529 0.317328 0.568250 0.163510
H17   H     H_    0.478480 0.765100 0.479806 0.180227
H18   H     H_    0.498295 0.734197 0.338842 0.189566
H19   H     H_    0.433464 0.682685 0.431665 0.163505
H20   H     H_    0.351041 0.154870 0.276673 0.150122
H21   H     H_    0.444378 0.180949 0.234368 0.191444
H22   H     H_    0.373122 0.247541 0.224234 0.141542
H23   H     H_    0.864578 0.506383 0.234885 0.130964
H24   H     H_    0.555622 0.819317 0.765427 0.191589
H25   H     H_    0.649104 0.844976 0.723374 0.149898
H26   H     H_    0.626561 0.752424 0.775910 0.141617
H27   H     H_    0.001695 0.765811 0.661146 0.189567
H28   H     H_    0.021510 0.734899 0.520186 0.180157
H29   H     H_    0.066526 0.817318 0.568315 0.163506
H30   H     H_    0.978469 0.265091 0.479888 0.180256
H31   H     H_    0.998319 0.234183 0.338932 0.189582
H32   H     H_    0.933468 0.182673 0.431727 0.163510
H33   H     H_    0.850962 0.654786 0.276696 0.150092
H34   H     H_    0.135421 0.493605 0.765115 0.130999
H35   H     H_    0.944279 0.680879 0.234265 0.191468
H36   H     H_    0.872994 0.747449 0.224183 0.141507
H37   H     H_    0.055583 0.319155 0.765484 0.191469
H38   H     H_    0.149000 0.345021 0.723345 0.150032
H39   H     H_    0.126673 0.252406 0.775809 0.141618
H40   H     H_    0.730338 0.177726 0.154573 0.148498
H41   H     H_    0.632499 0.165194 0.199091 0.165908
H42   H     H_    0.683496 0.095327 0.120793 0.168435
H43   H     H_    0.367376 0.834657 0.801014 0.165829
H44   H     H_    0.269505 0.822348 0.845504 0.148529
H45   H     H_    0.595229 0.993827 0.166863 0.152694
H46   H     H_    0.316521 0.904654 0.879232 0.168449
H47   H     H_    0.221397 0.120246 0.817152 0.132432
H48   H     H_    0.321645 0.127249 0.808952 0.143619
H49   H     H_    0.275508 0.040855 0.842465 0.189287
H50   H     H_    0.678457 0.872663 0.190958 0.143532
H51   H     H_    0.778693 0.879839 0.182822 0.132483
H52   H     H_    0.724455 0.959132 0.157491 0.189240
H53   H     H_    0.230489 0.677657 0.154490 0.148538
H54   H     H_    0.132619 0.665359 0.198986 0.165869
H55   H     H_    0.183463 0.595356 0.120769 0.168437
H56   H     H_    0.404770 0.006160 0.833137 0.152683
H57   H     H_    0.867807 0.335050 0.800702 0.166063
H58   H     H_    0.770040 0.322035 0.845278 0.148438
H59   H     H_    0.816511 0.404622 0.879219 0.168462
H60   H     H_    0.721206 0.620088 0.817173 0.132568
H61   H     H_    0.821427 0.627483 0.809092 0.143474
H62   H     H_    0.775606 0.540917 0.842543 0.189223
H63   H     H_    0.178560 0.372720 0.190982 0.143497
H64   H     H_    0.278789 0.379956 0.182923 0.132505
H65   H     H_    0.224513 0.459227 0.157612 0.189340
H66   H     H_    0.095231 0.493817 0.166863 0.152661
H67   H     H_    0.904771 0.506183 0.833136 0.152740
H68   H     H_    0.686049 0.307318 0.700273 0.207505
N1    N     N_R   0.480750 0.000000 0.209750 -0.101703
N2    N     N_R   0.519250 1.000000 0.790250 -0.101734
N3    N     N_R   0.980750 0.500000 0.209750 -0.101696
N4    N     N_R   0.019250 0.500000 0.790250 -0.101727
O1    O     O_R   0.418020 0.076820 0.422210 -0.634938
O2    O     O_R   0.569630 0.923170 0.391410 -0.597836
O3    O     O_R   0.569630 0.076830 0.391410 -0.592822
O4    O     O_R   0.430370 0.923170 0.608590 -0.592788
O5    O     O_R   0.930370 0.576830 0.608590 -0.597769
O6    O     O_R   0.069630 0.423170 0.391410 -0.597852
O7    O     O_R   0.069630 0.576830 0.391410 -0.592730
O8    O     O_R   0.930370 0.423170 0.608590 -0.592955
O9    O     O_3   0.602504 0.216385 0.629788 -0.597019
O10   O     O_3   0.397475 0.783637 0.370178 -0.597015
O11   O     O_3   0.404228 0.226125 0.384500 -0.628170
O12   O     O_R   0.581980 0.923180 0.577790 -0.634962
O13   O     O_3   0.595764 0.773870 0.615485 -0.628177
O14   O     O_3   0.102516 0.716371 0.629817 -0.596999
O15   O     O_3   0.897492 0.283619 0.370207 -0.597025
O16   O     O_3   0.904194 0.726083 0.384408 -0.628101
O17   O     O_3   0.095751 0.273850 0.615453 -0.628209
O18   O     O_3   0.704366 0.101547 0.286008 -0.555740
O19   O     O_3   0.295657 0.898437 0.714012 -0.555741
O20   O     O_3   0.279052 0.072456 0.676713 -0.556210
O21   O     O_3   0.720923 0.927530 0.323244 -0.556179
O22   O     O_3   0.204336 0.601572 0.285985 -0.555766
O23   O     O_R   0.581980 0.076820 0.577790 -0.592501
O24   O     O_3   0.795626 0.398437 0.714008 -0.555757
O25   O     O_3   0.779098 0.572498 0.676790 -0.556195
O26   O     O_3   0.220955 0.427575 0.323341 -0.556231
O27   O     O_R   0.418020 0.923180 0.422210 -0.592500
O28   O     O_R   0.918020 0.576820 0.422210 -0.634908
O29   O     O_R   0.081980 0.423180 0.577790 -0.634977
O30   O     O_R   0.081980 0.576820 0.577790 -0.592498
O31   O     O_R   0.918020 0.423180 0.422210 -0.592485
O32   O     O_R   0.430370 0.076830 0.608590 -0.597862
Zn1   Zn    Zn3+2 0.491750 1.000000 0.375560 0.986939
Zn2   Zn    Zn3+2 0.508250 0.000000 0.624440 0.986913
Zn3   Zn    Zn3+2 0.991750 0.500000 0.375560 0.986990
Zn4   Zn    Zn3+2 0.008250 0.500000 0.624440 0.986881

loop_
_geom_bond_atom_site_label_1
_geom_bond_atom_site_label_2
_ccdc_geom_bond_type
C63   O10   S    
C41   O22   S    
C69   H36   S    
N1    Zn1   S    
C8    C13   A    
C23   O3    A    
C32   C53   A    
C71   H42   S    
C77   H60   S    
C66   H27   S    
N4    Zn4   S    
O6    Zn3   S    
C25   C43   A    
C53   C59   A    
C75   H54   S    
C48   C57   A    
C79   H65   S    
C48   O11   S    
C76   H57   S    
N3    Zn3   S    
C69   H33   S    
O1    Zn1   S    
C71   H40   S    
C16   H67   S    
C50   C59   A    
C7    H34   S    
C12   O2    A    
C67   O30   A    
C18   C37   A    
C43   O25   S    
C74   H52   S    
C49   O15   S    
C63   H18   S    
O12   Zn2   S    
C52   C61   A    
C47   O13   S    
C75   H55   S    
C64   H20   S    
C62   O9    S    
C23   O23   A    
C56   O29   A    
C70   H37   S    
C65   O13   S    
C31   C40   A    
C78   O31   A    
C68   H32   S    
O7    Zn3   S    
C27   H5    S    
C77   H62   S    
C56   O6    A    
C45   O28   A    
C6    N1    A    
C44   C53   A    
O29   Zn4   S    
C79   H63   S    
C21   C38   A    
C36   O19   S    
C46   O9    S    
C30   C60   A    
C29   C38   A    
C50   O14   S    
C63   H19   S    
C32   C41   A    
O5    Zn4   S    
C14   C80   A    
C35   C43   A    
C3    C13   A    
C22   C50   A    
C66   H29   S    
C6    H1    S    
C62   H15   S    
C72   H44   S    
C75   O22   S    
C14   N2    A    
C34   O27   A    
C17   N3    A    
C44   O10   S    
C70   O17   S    
C64   O11   S    
C18   C46   A    
C65   H25   S    
C1    O32   A    
C69   O16   S    
C73   H49   S    
C64   H21   S    
O2    Zn1   S    
C29   C61   A    
C71   O18   S    
C66   O14   S    
C35   C55   A    
C18   C23   S    
C72   O19   S    
C76   O24   S    
C8    N3    A    
C45   O5    A    
C74   O21   S    
O3    Zn1   S    
C9    H9    S    
C37   O18   S    
C40   O24   S    
C20   C39   A    
C10   C80   A    
C38   O21   S    
O30   Zn4   S    
O4    Zn2   S    
C73   H47   S    
C12   C21   S    
C77   O25   S    
C5    N2    A    
C13   H13   S    
C4    C11   A    
C68   H31   S    
C7    C11   A    
C5    C9    A    
C39   O20   S    
O28   Zn3   S    
O31   Zn3   S    
C12   O12   A    
C79   H64   S    
C51   O17   S    
C70   H39   S    
C46   C54   A    
C79   O26   S    
C16   N4    A    
C68   H30   S    
C73   O20   S    
C1    O1    A    
C2    C15   A    
C33   H3    S    
C20   C48   A    
C31   H68   S    
C78   O8    A    
C64   H22   S    
C76   H58   S    
C62   H14   S    
C72   H43   S    
C28   H6    S    
C4    C17   A    
C30   H8    S    
C3    C4    A    
C25   C45   S    
C65   H26   S    
C15   N1    A    
C19   C44   A    
C26   C42   A    
C47   C55   A    
C54   C58   A    
C76   H59   S    
C24   C78   S    
C24   C49   A    
C33   C42   A    
C69   H35   S    
C1    C20   S    
C33   C57   A    
C71   H41   S    
C66   H28   S    
C57   C60   A    
C19   C34   S    
C26   C56   S    
N2    Zn2   S    
C35   H4    S    
C75   H53   S    
O27   Zn1   S    
C34   O4    A    
C27   C36   A    
C73   H48   S    
C32   H2    S    
C19   C36   A    
C74   H50   S    
C17   H66   S    
C25   C52   A    
C63   H17   S    
C27   C59   A    
C26   C51   A    
C52   O16   S    
O23   Zn2   S    
C14   H56   S    
C28   C37   A    
C42   O26   S    
C55   C61   A    
C24   C40   A    
O32   Zn2   S    
C30   C39   A    
C31   C54   A    
C28   C58   A    
C8    H23   S    
C77   H61   S    
C22   C67   S    
C29   H7    S    
C5    H12   S    
C2    C80   A    
C6    C10   A    
C49   C58   A    
C7    N4    A    
C22   C41   A    
C68   O15   S    
C11   H11   S    
C70   H38   S    
C10   H10   S    
C15   H45   S    
C72   H46   S    
O8    Zn4   S    
C67   O7    A    
C51   C60   A    
C65   H24   S    
C62   H16   S    
C74   H51   S    
C2    C9    A    
C3    C16   A    
C21   C47   A    
