data_mof_unit_63573.cif
_audit_creation_date              2012-10-26T17:45:24-0400
_audit_creation_method            fapswitch 2.2
_symmetry_space_group_name_H-M    P1
_symmetry_Int_Tables_number       1
_space_group_crystal_system       triclinic
_cell_length_a                    32.253967
_cell_length_b                    32.253995
_cell_length_c                    38.874907
_cell_angle_alpha                 90.000012
_cell_angle_beta                  90.000134
_cell_angle_gamma                 89.99996
_cell_volume                      40442.3156625

loop_
_atom_site_label
_atom_site_type_symbol
_atom_type_description
_atom_site_fract_x
_atom_site_fract_y
_atom_site_fract_z
_atom_type_partial_charge
C1    C     C_R   0.920462 0.500000 0.000000 0.559173
C2    C     C_R   0.509587 0.228466 0.969722 0.224417
C3    C     C_R   0.537629 0.997035 0.841238 0.217120
C4    C     C_R   0.997001 0.537627 0.158762 0.217775
C5    C     C_R   0.462374 0.997038 0.158763 0.217124
C6    C     C_R   0.002994 0.462372 0.158762 0.217454
C7    C     C_R   0.537632 0.002987 0.158761 0.217509
C8    C     C_R   0.496973 0.962380 0.341237 0.217465
C9    C     C_R   0.962375 0.503026 0.341238 0.217397
C10   C     C_R   0.503040 0.037629 0.341240 0.217871
C11   C     C_R   0.037625 0.496968 0.341239 0.217939
C12   C     C_R   0.496970 0.037626 0.658760 0.217452
C13   C     C_R   0.228466 0.490342 0.969743 0.224462
C14   C     C_R   0.962372 0.496965 0.658760 0.217933
C15   C     C_R   0.503036 0.962378 0.658762 0.217884
C16   C     C_R   0.037622 0.503023 0.658763 0.217403
C17   C     C_R   0.999993 0.499997 0.822833 0.046511
C18   C     C_R   0.500000 0.000009 0.822833 0.046298
C19   C     C_R   0.999998 0.499999 0.177167 0.046511
C20   C     C_R   0.500004 0.000013 0.177167 0.046298
C21   C     C_R   0.500007 0.000006 0.322834 0.046623
C22   C     C_R   0.000000 0.499997 0.322834 0.046579
C23   C     C_R   0.500003 0.000003 0.677166 0.046623
C24   C     C_R   0.483311 0.771533 0.971942 0.224459
C25   C     C_R   0.999996 0.499994 0.677166 0.046579
C26   C     C_R   0.999997 0.499999 0.895456 -0.059883
C27   C     C_R   0.500000 0.000005 0.895456 -0.060409
C28   C     C_R   0.999998 0.500000 0.104544 -0.059883
C29   C     C_R   0.500001 0.000006 0.104544 -0.060409
C30   C     C_R   0.500003 0.000001 0.395456 -0.059827
C31   C     C_R   0.000000 0.499998 0.395456 -0.059801
C32   C     C_R   0.500002 0.000001 0.604544 -0.059827
C33   C     C_R   0.999999 0.499997 0.604544 -0.059800
C34   C     C_R   0.999995 0.499994 0.715120 0.397995
C35   C     C_R   0.771534 0.495064 0.031036 0.224441
C36   C     C_R   0.500003 0.000004 0.715120 0.397860
C37   C     C_R   1.000000 0.499997 0.284880 0.397995
C38   C     C_R   0.500007 0.000008 0.284880 0.397860
C39   C     C_R   0.500005 0.000013 0.215121 0.397665
C40   C     C_R   0.999998 0.499999 0.215121 0.397931
C41   C     C_R   0.500000 0.000008 0.784879 0.397665
C42   C     C_R   0.999993 0.499995 0.784879 0.397931
C43   C     C_R   0.728098 0.495088 0.030876 -0.064822
C44   C     C_R   0.490460 0.271902 0.030121 -0.064886
C45   C     C_R   0.271902 0.509611 0.030100 -0.064831
C46   C     C_R   0.516690 0.771533 0.028058 0.224458
C47   C     C_R   0.516607 0.728097 0.027912 -0.064865
C48   C     C_R   0.728098 0.504914 0.969125 -0.064847
C49   C     C_R   0.483394 0.728097 0.972087 -0.064871
C50   C     C_R   0.271902 0.490390 0.969899 -0.064818
C51   C     C_R   0.509540 0.271902 0.969879 -0.064870
C52   C     C_R   0.228098 0.991173 0.530271 -0.064930
C53   C     C_R   0.992307 0.771902 0.530475 -0.064873
C54   C     C_R   0.771902 0.002700 0.531058 -0.064878
C55   C     C_R   0.999848 0.228098 0.531129 -0.064928
C56   C     C_R   0.228098 0.008828 0.469729 -0.064878
C57   C     C_R   0.228466 0.509659 0.030257 0.224456
C58   C     C_R   0.000152 0.228098 0.468871 -0.064880
C59   C     C_R   0.771902 0.997301 0.468941 -0.064938
C60   C     C_R   0.007694 0.771902 0.469525 -0.064913
C61   C     C_R   0.706307 0.500001 0.000000 -0.043543
C62   C     C_R   0.500000 0.293693 1.000000 -0.043453
C63   C     C_R   0.293693 0.500001 1.000000 -0.043437
C64   C     C_R   0.500000 0.706306 0.000000 -0.043224
C65   C     C_R   0.206307 0.000001 0.500000 -0.043501
C66   C     C_R   0.000000 0.793693 0.500000 -0.043563
C67   C     C_R   0.793693 0.000000 0.500000 -0.043651
C68   C     C_R   0.490413 0.228466 0.030278 0.224409
C69   C     C_R   0.000000 0.206307 0.500000 -0.043717
C70   C     C_R   0.271534 0.008872 0.469572 0.224386
C71   C     C_R   0.007731 0.728466 0.469366 0.224380
C72   C     C_R   0.728465 0.997288 0.468780 0.224345
C73   C     C_R   0.500000 0.079538 0.000000 0.558801
C74   C     C_R   0.000153 0.271534 0.468710 0.224376
C75   C     C_R   0.271534 0.991129 0.530428 0.224364
C76   C     C_R   0.999847 0.271534 0.531290 0.224352
C77   C     C_R   0.728466 0.002713 0.531220 0.224375
C78   C     C_R   0.992269 0.728466 0.530634 0.224398
C79   C     C_R   0.793565 0.500001 0.000000 0.050091
C80   C     C_R   0.500000 0.206435 1.000000 0.050075
C81   C     C_R   0.206435 0.500000 1.000000 0.050159
C82   C     C_R   0.500000 0.793564 0.000000 0.050234
C83   C     C_R   0.293565 0.000000 0.500000 0.050044
C84   C     C_R   0.079538 0.500000 0.000000 0.558884
C85   C     C_R   1.000000 0.706435 0.500000 0.050124
C86   C     C_R   0.706435 0.000000 0.500000 0.050075
C87   C     C_R   0.000000 0.293565 0.500000 0.050157
C88   C     C_1   0.661565 0.500001 0.000000 -0.018603
C89   C     C_1   0.500000 0.338436 1.000000 -0.018585
C90   C     C_1   0.338435 0.500001 1.000000 -0.018564
C91   C     C_1   0.500000 0.661564 0.000000 -0.018496
C92   C     C_1   0.161564 0.000000 0.500000 -0.018603
C93   C     C_1   0.000000 0.838435 0.500000 -0.018612
C94   C     C_1   0.838435 0.000000 0.500000 -0.018646
C95   C     C_R   0.500000 0.920462 0.000000 0.557994
C96   C     C_1   0.000000 0.161565 0.500000 -0.018655
C97   C     C_1   0.838440 0.500000 0.000000 0.089878
C98   C     C_1   0.500000 0.161560 1.000000 0.089888
C99   C     C_1   0.161560 0.500000 1.000000 0.089939
C100  C     C_1   0.500000 0.838440 0.000000 0.090026
C101  C     C_1   0.338440 0.000000 0.500000 0.089788
C102  C     C_1   1.000000 0.661560 0.500000 0.089849
C103  C     C_1   0.661559 0.000000 0.500000 0.089796
C104  C     C_1   0.000000 0.338440 0.500000 0.089855
C105  C     C_1   0.875885 0.500000 0.000000 0.068114
C106  C     C_R   0.420462 0.000000 0.500000 0.558990
C107  C     C_1   0.500000 0.124114 1.000000 0.068105
C108  C     C_1   0.124115 0.500000 1.000000 0.068112
C109  C     C_1   0.500000 0.875885 0.000000 0.068077
C110  C     C_1   0.375885 0.000000 0.500000 0.067998
C111  C     C_1   1.000000 0.624114 0.500000 0.068027
C112  C     C_1   0.624114 0.000000 0.500000 0.068016
C113  C     C_1   0.000000 0.375886 0.500000 0.068035
C114  C     C_1   0.624118 0.500001 0.000000 0.016812
C115  C     C_1   0.500000 0.375882 1.000000 0.016827
C116  C     C_1   0.375882 0.500000 1.000000 0.016818
C117  C     C_R   1.000000 0.579538 0.500000 0.559080
C118  C     C_1   0.500000 0.624118 0.000000 0.016843
C119  C     C_1   0.124118 0.000000 0.500000 0.016837
C120  C     C_1   1.000000 0.875882 0.500000 0.016844
C121  C     C_1   0.875882 0.000000 0.500000 0.016840
C122  C     C_1   0.000000 0.124118 0.500000 0.016848
C123  C     C_R   0.500000 0.420472 0.000000 0.548861
C124  C     C_R   0.420472 0.500000 1.000000 0.548810
C125  C     C_R   0.500000 0.579528 0.000000 0.548766
C126  C     C_R   0.579528 0.500000 0.000000 0.548846
C127  C     C_R   1.000000 0.920472 0.500000 0.548871
C128  C     C_R   0.579538 0.000000 0.500000 0.559285
C129  C     C_R   0.920472 0.000000 0.500000 0.548902
C130  C     C_R   1.000000 0.079528 0.500000 0.548902
C131  C     C_R   0.079528 0.000000 0.500000 0.548866
C132  C     C_R   0.999999 0.500000 0.933457 0.557263
C133  C     C_R   0.500000 0.000002 0.933457 0.556587
C134  C     C_R   0.999999 0.500000 0.066543 0.557263
C135  C     C_R   0.500000 0.000002 0.066543 0.556588
C136  C     C_R   0.500001 0.000000 0.433457 0.557379
C137  C     C_R   1.000000 0.499999 0.433457 0.557449
C138  C     C_R   0.500001 0.000000 0.566543 0.557380
C139  C     C_R   0.000000 0.420462 0.500000 0.559320
C140  C     C_R   1.000000 0.499999 0.566543 0.557450
C141  C     C_R   0.997095 0.462617 0.877181 -0.081618
C142  C     C_R   0.462617 0.002885 0.877180 -0.081974
C143  C     C_R   0.002896 0.537380 0.877179 -0.082520
C144  C     C_R   0.537383 0.997129 0.877180 -0.083147
C145  C     C_R   0.997098 0.537381 0.122820 -0.081578
C146  C     C_R   0.462618 0.997131 0.122821 -0.083126
C147  C     C_R   0.002898 0.462618 0.122820 -0.082561
C148  C     C_R   0.537385 0.002887 0.122819 -0.081996
C149  C     C_R   0.497069 0.962624 0.377179 -0.082654
C150  C     C_R   0.771534 0.504938 0.968964 0.224426
C151  C     C_R   0.962621 0.502929 0.377180 -0.082832
C152  C     C_R   0.502941 0.037381 0.377182 -0.081417
C153  C     C_R   0.037379 0.497066 0.377180 -0.081166
C154  C     C_R   0.497066 0.037380 0.622819 -0.082681
C155  C     C_R   0.962619 0.497064 0.622819 -0.081185
C156  C     C_R   0.502938 0.962622 0.622820 -0.081391
C157  C     C_R   0.037377 0.502928 0.622821 -0.082812
C158  C     C_R   0.996997 0.462370 0.841239 0.217769
C159  C     C_R   0.462371 0.002983 0.841238 0.217514
C160  C     C_R   0.002990 0.537625 0.841237 0.217460
Cl1   Cl    Cl    0.991115 0.414215 0.820365 -0.447415
Cl2   Cl    Cl    0.914226 0.508948 0.320363 -0.449258
Cl3   Cl    Cl    0.508971 0.085779 0.320368 -0.447583
Cl4   Cl    Cl    0.085774 0.491045 0.320363 -0.447177
Cl5   Cl    Cl    0.491040 0.085776 0.679634 -0.449356
Cl6   Cl    Cl    0.914222 0.491041 0.679634 -0.446970
Cl7   Cl    Cl    0.508966 0.914230 0.679638 -0.448166
Cl8   Cl    Cl    0.085770 0.508945 0.679639 -0.449462
Cl9   Cl    Cl    0.797460 0.488777 0.070575 -0.505596
Cl10  Cl    Cl    0.478204 0.202541 0.068852 -0.505525
Cl11  Cl    Cl    0.202541 0.521958 0.068805 -0.505591
Cl12  Cl    Cl    0.414213 0.008836 0.820363 -0.447962
Cl13  Cl    Cl    0.537945 0.797457 0.063807 -0.505565
Cl14  Cl    Cl    0.797459 0.511225 0.929425 -0.505553
Cl15  Cl    Cl    0.462056 0.797457 0.936193 -0.505535
Cl16  Cl    Cl    0.202541 0.478043 0.931194 -0.505663
Cl17  Cl    Cl    0.521796 0.202541 0.931147 -0.505549
Cl18  Cl    Cl    0.297459 0.979832 0.569194 -0.505757
Cl19  Cl    Cl    0.982423 0.702541 0.569661 -0.505723
Cl20  Cl    Cl    0.702540 0.006167 0.570993 -0.505674
Cl21  Cl    Cl    0.999652 0.297460 0.571154 -0.505813
Cl22  Cl    Cl    0.297459 0.020169 0.430806 -0.505617
Cl23  Cl    Cl    0.008870 0.585778 0.820361 -0.448839
Cl24  Cl    Cl    0.000348 0.297460 0.428846 -0.505712
Cl25  Cl    Cl    0.702540 0.993834 0.429007 -0.505813
Cl26  Cl    Cl    0.017577 0.702541 0.430339 -0.505809
Cl27  Cl    Cl    0.585788 0.991185 0.820364 -0.449396
Cl28  Cl    Cl    0.991120 0.585781 0.179638 -0.447559
Cl29  Cl    Cl    0.414216 0.991189 0.179639 -0.449637
Cl30  Cl    Cl    0.008875 0.414218 0.179637 -0.448697
Cl31  Cl    Cl    0.585791 0.008841 0.179634 -0.447721
Cl32  Cl    Cl    0.491045 0.914233 0.320360 -0.449939
Cu1   Cu    Cu3+1 1.000000 0.540950 0.000000 1.074674
Cu2   Cu    Cu3+1 0.500000 0.500000 0.034280 1.048452
Cu3   Cu    Cu3+1 1.000000 1.000000 0.465720 1.048506
Cu4   Cu    Cu3+1 1.000000 1.000000 0.534280 1.048507
Cu5   Cu    Cu3+1 0.540950 0.000000 0.000000 1.075798
Cu6   Cu    Cu3+1 1.000000 0.459050 0.000000 1.074446
Cu7   Cu    Cu3+1 0.459050 0.000000 0.000000 1.075857
Cu8   Cu    Cu3+1 0.500000 0.040950 0.500000 1.073977
Cu9   Cu    Cu3+1 0.040950 0.500000 0.500000 1.073903
Cu10  Cu    Cu3+1 0.500000 0.959050 0.500000 1.073963
Cu11  Cu    Cu3+1 0.959050 0.500000 0.500000 1.073841
Cu12  Cu    Cu3+1 0.500000 0.500000 0.965720 1.048453
H1    H     H_    0.994520 0.433432 0.890801 0.189097
H2    H     H_    0.933438 0.505530 0.390800 0.188512
H3    H     H_    0.505545 0.066563 0.390803 0.189116
H4    H     H_    0.066562 0.494465 0.390801 0.189228
H5    H     H_    0.494462 0.066562 0.609198 0.188576
H6    H     H_    0.933437 0.494463 0.609198 0.189219
H7    H     H_    0.505542 0.933439 0.609200 0.189115
H8    H     H_    0.066561 0.505529 0.609201 0.188522
H9    H     H_    0.711360 0.491274 0.054844 0.175929
H10   H     H_    0.483053 0.288641 0.053504 0.175783
H11   H     H_    0.288641 0.517073 0.053467 0.175770
H12   H     H_    0.433430 0.005442 0.890800 0.189286
H13   H     H_    0.529499 0.711358 0.049581 0.175421
H14   H     H_    0.711359 0.508729 0.945156 0.175919
H15   H     H_    0.470501 0.711358 0.950419 0.175411
H16   H     H_    0.288641 0.482928 0.946532 0.175778
H17   H     H_    0.516947 0.288641 0.946495 0.175792
H18   H     H_    0.211360 0.984319 0.553770 0.175811
H19   H     H_    0.986334 0.788640 0.554133 0.175885
H20   H     H_    0.788640 0.004796 0.555169 0.176005
H21   H     H_    0.999730 0.211360 0.555294 0.175990
H22   H     H_    0.211359 0.015682 0.446230 0.175856
H23   H     H_    0.005472 0.566566 0.890799 0.188726
H24   H     H_    0.000270 0.211360 0.444705 0.176025
H25   H     H_    0.788640 0.995205 0.444831 0.175960
H26   H     H_    0.013667 0.788640 0.445867 0.175852
H27   H     H_    0.566570 0.994571 0.890800 0.188758
H28   H     H_    0.994522 0.566567 0.109200 0.189127
H29   H     H_    0.433431 0.994573 0.109202 0.188766
H30   H     H_    0.005474 0.433433 0.109200 0.188696
H31   H     H_    0.566571 0.005444 0.109198 0.189277
H32   H     H_    0.494464 0.933440 0.390798 0.188575
N1    N     N_R   0.025636 0.474401 0.767123 -0.119135
N2    N     N_R   0.025615 0.525618 0.267123 -0.119036
N3    N     N_R   0.474396 0.025634 0.267124 -0.119056
N4    N     N_R   0.974384 0.474377 0.267122 -0.119038
N5    N     N_R   0.525613 0.025630 0.732877 -0.118937
N6    N     N_R   0.025610 0.474374 0.732878 -0.119014
N7    N     N_R   0.474391 0.974380 0.732877 -0.119106
N8    N     N_R   0.974379 0.525614 0.732876 -0.119060
N9    N     N_R   0.525585 0.025659 0.767122 -0.118807
N10   N     N_R   0.974351 0.525588 0.767121 -0.118848
N11   N     N_R   0.474417 0.974356 0.767123 -0.119293
N12   N     N_R   0.025641 0.525592 0.232878 -0.119005
N13   N     N_R   0.525590 0.974360 0.232876 -0.119372
N14   N     N_R   0.974356 0.474405 0.232877 -0.118979
N15   N     N_R   0.474422 0.025663 0.232879 -0.118729
N16   N     N_R   0.525617 0.974385 0.267122 -0.118987
O1    O     O_R   0.940210 0.534570 0.999910 -0.492666
O2    O     O_R   0.034570 0.559790 0.499910 -0.492573
O3    O     O_R   0.559790 0.965430 0.499910 -0.492792
O4    O     O_R   0.965430 0.440210 0.499910 -0.492828
O5    O     O_R   0.440210 0.965430 0.500090 -0.492516
O6    O     O_R   0.034570 0.440210 0.500090 -0.492811
O7    O     O_R   0.559790 0.034570 0.500090 -0.492793
O8    O     O_R   0.965430 0.559790 0.500090 -0.492591
O9    O     O_R   0.000050 0.534570 0.950000 -0.503271
O10   O     O_R   0.534570 0.999950 0.950000 -0.503369
O11   O     O_R   0.999950 0.465430 0.950000 -0.502606
O12   O     O_R   0.534570 0.059790 0.999910 -0.492462
O13   O     O_R   0.465430 0.000050 0.950000 -0.502476
O14   O     O_R   0.000050 0.465430 0.050000 -0.503304
O15   O     O_R   0.534570 0.000050 0.050000 -0.502485
O16   O     O_R   0.999950 0.534570 0.050000 -0.502576
O17   O     O_R   0.465430 0.999950 0.050000 -0.503361
O18   O     O_R   0.500050 0.034570 0.450000 -0.502492
O19   O     O_R   0.034570 0.499950 0.450000 -0.502347
O20   O     O_R   0.499950 0.965430 0.450000 -0.503429
O21   O     O_R   0.965430 0.500050 0.450000 -0.503578
O22   O     O_R   0.500050 0.965430 0.550000 -0.502495
O23   O     O_R   0.059790 0.465430 0.999910 -0.492461
O24   O     O_R   0.034570 0.500050 0.550000 -0.503571
O25   O     O_R   0.499950 0.034570 0.550000 -0.503427
O26   O     O_R   0.965430 0.499950 0.550000 -0.502356
O27   O     O_R   0.500080 0.440100 0.971010 -0.496572
O28   O     O_R   0.440100 0.499920 0.971010 -0.496588
O29   O     O_R   0.499920 0.559900 0.971010 -0.496437
O30   O     O_R   0.559900 0.500080 0.971010 -0.496565
O31   O     O_R   0.500080 0.559900 0.028990 -0.496482
O32   O     O_R   0.440100 0.500080 0.028990 -0.496530
O33   O     O_R   0.499920 0.440100 0.028990 -0.496528
O34   O     O_R   0.465430 0.940210 0.999910 -0.491745
O35   O     O_R   0.559900 0.499920 0.028990 -0.496624
O36   O     O_R   0.000080 0.940100 0.471010 -0.496530
O37   O     O_R   0.940100 0.999920 0.471010 -0.496548
O38   O     O_R   0.999920 0.059900 0.471010 -0.496609
O39   O     O_R   0.059900 0.000080 0.471010 -0.496577
O40   O     O_R   0.000080 0.059900 0.528990 -0.496561
O41   O     O_R   0.940100 0.000080 0.528990 -0.496611
O42   O     O_R   0.999920 0.940100 0.528990 -0.496578
O43   O     O_R   0.059900 0.999920 0.528990 -0.496514
O44   O     O_R   0.940210 0.465430 0.000090 -0.492725
O45   O     O_R   0.534570 0.940210 0.000090 -0.491762
O46   O     O_R   0.059790 0.534570 0.000090 -0.492403
O47   O     O_R   0.465430 0.059790 0.000090 -0.492445
O48   O     O_R   0.440210 0.034570 0.499910 -0.492519

loop_
_geom_bond_atom_site_label_1
_geom_bond_atom_site_label_2
_ccdc_geom_bond_type
C52   H18   S    
C152  H3    S    
C52   C75   A    
Cu7   O13   S    
Cu5   O45   S    
Cu11  O21   S    
Cu8   O18   S    
C47   H13   S    
C12   C23   A    
C45   C57   A    
C28   C145  A    
N1    N6    A    
C138  O22   A    
C44   H10   S    
C36   N5    A    
Cu8   O48   S    
C92   C119  T    
C123  O27   A    
C128  O3    A    
Cu5   Cu7   S    
C17   C160  A    
Cu9   O6    S    
C18   C159  A    
C31   C153  A    
C67   C94   S    
Cu3   O36   S    
C2    Cl17  S    
C90   C116  T    
C31   C137  S    
C73   O12   A    
Cu1   O46   S    
C97   C105  T    
Cu4   O41   S    
Cu4   O40   S    
C100  C109  T    
C95   O45   A    
C102  C111  T    
C10   C21   A    
C77   Cl20  S    
C115  C123  S    
C159  Cl12  S    
C78   Cl19  S    
C140  O26   A    
C95   C109  S    
C12   C154  A    
C47   C64   A    
C30   C149  A    
C81   C99   S    
C101  C110  T    
C103  C112  T    
Cu1   O1    S    
Cu5   O10   S    
C153  H4    S    
C129  O41   A    
C91   C118  T    
C136  O20   A    
C132  O11   A    
C32   C154  A    
C29   C135  S    
C145  H28   S    
C30   C136  S    
N5    N9    A    
C43   C61   A    
C16   C25   A    
C9    C151  A    
C28   C147  A    
C1    O44   A    
C36   N7    A    
C79   C97   S    
C143  H23   S    
C3    Cl27  S    
C133  O13   A    
C53   H19   S    
C95   O34   A    
C131  O39   A    
C4    Cl28  S    
C139  O4    A    
C5    Cl29  S    
C51   H17   S    
Cu2   O35   S    
C45   H11   S    
C53   C78   A    
C72   Cl25  S    
Cu3   Cu4   S    
Cu4   O43   S    
Cu8   Cu10  S    
C23   C36   S    
C64   C91   S    
C124  O28   A    
C52   C65   A    
C1    C105  S    
C89   C115  T    
Cu6   O44   S    
C73   O47   A    
C144  H27   S    
C29   C148  A    
C137  O19   A    
C120  C127  S    
C143  C160  A    
C5    C20   A    
C6    C19   A    
C49   H15   S    
C8    Cl32  S    
Cu5   O12   S    
Cu6   O11   S    
C114  C126  S    
C74   Cl24  S    
Cu11  O26   S    
Cu9   O2    S    
C139  O6    A    
Cu12  O29   S    
C135  O17   A    
C31   C151  A    
C50   H16   S    
C59   C67   A    
C46   C82   A    
C38   N16   A    
C21   C38   S    
C119  C131  S    
C113  C139  S    
C74   C87   A    
C14   Cl6   S    
C35   C43   A    
Cu7   O17   S    
C54   C77   A    
C49   C64   A    
C156  H7    S    
Cu2   O32   S    
C50   C63   A    
Cu9   Cu11  S    
C15   Cl7   S    
C51   C62   A    
Cu10  O22   S    
C124  O32   A    
Cu10  O5    S    
C12   Cl5   S    
Cu6   O23   S    
Cu12  O27   S    
Cu2   O33   S    
C32   C138  S    
C53   C66   A    
C40   N14   A    
C30   C152  A    
Cu2   Cu12  S    
C76   C87   A    
C55   C69   A    
C66   C93   S    
C78   C85   A    
C93   C120  T    
C125  O29   A    
Cu7   O47   S    
C26   C143  A    
C59   H25   S    
C58   C74   A    
C42   N10   A    
N13   N16   A    
C83   C101  S    
N4    N14   A    
C33   C155  A    
C25   C34   S    
C111  C117  S    
C148  H31   S    
C55   H21   S    
C142  H12   S    
C6    C147  A    
Cu3   O38   S    
C37   N2    A    
C80   C98   S    
C4    C145  A    
C35   C79   A    
N8    N10   A    
C141  H1    S    
C19   C40   S    
C11   C153  A    
C13   C50   A    
C147  H30   S    
C28   C134  S    
N2    N12   A    
C85   C102  S    
C76   Cl21  S    
Cu4   O42   S    
C134  O14   A    
C10   Cl3   S    
C48   C150  A    
C65   C92   S    
C142  C159  A    
C58   H24   S    
C48   H14   S    
C60   H26   S    
C73   C107  S    
Cu1   Cu6   S    
C62   C89   S    
C13   C81   A    
Cu9   O19   S    
Cu10  O20   S    
C17   C42   S    
C158  Cl1   S    
C10   C152  A    
C68   Cl10  S    
C70   Cl22  S    
C125  O31   A    
C33   C157  A    
C106  O5    A    
C118  C125  S    
C26   C141  A    
C160  Cl23  S    
C59   C72   A    
C146  H29   S    
C60   C66   A    
C7    Cl31  S    
C1    O1    A    
C134  O16   A    
C34   N8    A    
C149  H32   S    
C128  O7    A    
C117  O8    A    
C37   N4    A    
C60   C71   A    
C22   C37   S    
C98   C107  T    
C27   C133  S    
Cu5   O15   S    
C99   C108  T    
C54   H20   S    
Cu10  O3    S    
C27   C144  A    
C46   Cl13  S    
C70   C83   A    
C79   C150  A    
N7    N11   A    
C35   Cl9   S    
C29   C146  A    
Cu11  O8    S    
Cu8   O7    S    
Cu11  O4    S    
C20   C39   S    
Cu7   O34   S    
C46   C47   A    
C116  C124  S    
C41   N9    A    
C16   C157  A    
Cu1   O16   S    
C127  O36   A    
C155  H6    S    
C3    C144  A    
C121  C129  S    
C72   C86   A    
C58   C69   A    
C96   C122  T    
C8    C149  A    
C75   C83   A    
C126  O30   A    
Cu12  O30   S    
C84   C108  S    
C14   C25   A    
C88   C114  T    
C112  C128  S    
C2    C51   A    
C87   C104  S    
C94   C121  T    
Cu3   O39   S    
C141  C158  A    
C39   N15   A    
C7    C20   A    
C84   O23   A    
C130  O40   A    
C24   Cl15  S    
C68   C80   A    
C13   Cl16  S    
C14   C155  A    
C34   N6    A    
C69   C96   S    
Cu6   O14   S    
C154  H5    S    
C9    C22   A    
Cu12  O28   S    
C33   C140  S    
C56   C65   A    
C27   C142  A    
C3    C18   A    
C75   Cl18  S    
C24   C82   A    
C123  O33   A    
C38   N3    A    
C71   C85   A    
C4    C19   A    
C15   C23   A    
C129  O37   A    
C32   C156  A    
C126  O35   A    
C41   N11   A    
C135  O15   A    
C86   C103  S    
C40   N12   A    
C42   N1    A    
C84   O46   A    
C133  O10   A    
N3    N15   A    
C18   C41   S    
C54   C67   A    
C44   C62   A    
C45   C63   A    
Cu1   O9    S    
C104  C113  T    
C61   C88   S    
C117  O2    A    
Cu3   O37   S    
C39   N13   A    
C6    Cl30  S    
C8    C21   A    
C131  O43   A    
C17   C158  A    
C15   C156  A    
C127  O42   A    
C55   C76   A    
C150  Cl14  S    
C77   C86   A    
C56   C70   A    
C138  O25   A    
Cu2   O31   S    
C57   C81   A    
C44   C68   A    
C71   Cl26  S    
C43   H9    S    
C26   C132  S    
C7    C148  A    
C106  C110  S    
C24   C49   A    
C5    C146  A    
C82   C100  S    
C11   C22   A    
C56   H22   S    
C140  O24   A    
C48   C61   A    
C16   Cl8   S    
C63   C90   S    
C137  O21   A    
C11   Cl4   S    
C151  H2    S    
C9    Cl2   S    
C2    C80   A    
Cu9   O24   S    
C157  H8    S    
Cu8   O25   S    
C130  O38   A    
C136  O18   A    
C106  O48   A    
C122  C130  S    
C132  O9    A    
C57   Cl11  S    
