data_mof_unit_61776.cif
_audit_creation_date              2012-12-10T18:45:38-0500
_audit_creation_method            fapswitch 2.2
_symmetry_space_group_name_H-M    P1
_symmetry_Int_Tables_number       1
_space_group_crystal_system       triclinic
_cell_length_a                    18.119484
_cell_length_b                    18.069804
_cell_length_c                    43.011639
_cell_angle_alpha                 89.96688
_cell_angle_beta                  90.032294
_cell_angle_gamma                 89.997535
_cell_volume                      14082.6737381

loop_
_atom_site_label
_atom_site_type_symbol
_atom_type_description
_atom_site_fract_x
_atom_site_fract_y
_atom_site_fract_z
_atom_type_partial_charge
Br1   Br    Br    0.174584 0.260446 0.181141 -0.472455
Br2   Br    Br    0.325416 0.239554 0.318859 -0.472455
Br3   Br    Br    0.322605 0.590835 0.731015 -0.477761
Br4   Br    Br    0.677226 0.409241 0.268771 -0.443741
Br5   Br    Br    0.325116 0.239696 0.681119 -0.474787
Br6   Br    Br    0.591522 0.676123 0.268669 -0.423861
Br7   Br    Br    0.677365 0.409191 0.730962 -0.477779
Br8   Br    Br    0.322944 0.590854 0.268896 -0.449143
Br9   Br    Br    0.825361 0.739501 0.818868 -0.475537
Br10  Br    Br    0.822774 0.090759 0.231229 -0.443741
Br11  Br    Br    0.177395 0.909165 0.768985 -0.477761
Br12  Br    Br    0.908478 0.823877 0.231330 -0.423861
Br13  Br    Br    0.174884 0.260304 0.818881 -0.474787
Br14  Br    Br    0.177056 0.909146 0.231104 -0.449143
Br15  Br    Br    0.822635 0.090809 0.769038 -0.477779
Br16  Br    Br    0.674639 0.760499 0.681132 -0.475537
C1    C     C_R   0.500014 0.000037 0.334210 0.797366
C2    C     C_R   0.499991 0.999964 0.868519 -0.009355
C3    C     C_3   0.780316 0.254776 0.221461 -0.246811
C4    C     C_3   0.301966 0.267947 0.771119 -0.196982
C5    C     C_3   0.745192 0.780443 0.221453 -0.248450
C6    C     C_3   0.780209 0.254870 0.778568 -0.244186
C7    C     C_3   0.219680 0.745200 0.221451 -0.246275
C8    C     C_R   0.499904 0.067053 0.114937 -0.170213
C9    C     C_R   0.500086 0.932950 0.885063 -0.169900
C10   C     C_R   0.933158 0.500559 0.114945 -0.176552
C11   C     C_R   0.066863 0.498738 0.885046 -0.158851
C12   C     C_R   0.500049 0.933024 0.114968 -0.175989
C13   C     C_R   0.999977 0.499833 0.131497 -0.008683
C14   C     C_R   0.499885 0.066979 0.885031 -0.169711
C15   C     C_R   0.066806 0.498952 0.114983 -0.158387
C16   C     C_R   0.933224 0.501086 0.885020 -0.158788
C17   C     C_R   0.999913 0.567050 0.614937 -0.169900
C18   C     C_R   0.000095 0.432947 0.385063 -0.170213
C19   C     C_R   0.433137 0.001262 0.614954 -0.158851
C20   C     C_R   0.566842 0.999441 0.385055 -0.176552
C21   C     C_R   0.000115 0.433021 0.614969 -0.169711
C22   C     C_R   0.999951 0.566976 0.385032 -0.175989
C23   C     C_R   0.566775 0.998914 0.614980 -0.158788
C24   C     C_R   0.000041 0.499949 0.868500 -0.010940
C25   C     C_R   0.433193 0.001048 0.385017 -0.158387
C26   C     C_R   0.499890 0.067061 0.082500 -0.150066
C27   C     C_R   0.500077 0.932943 0.917500 -0.149658
C28   C     C_R   0.933159 0.500470 0.082507 -0.152159
C29   C     C_R   0.066876 0.498655 0.917485 -0.148264
C30   C     C_R   0.500036 0.933012 0.082533 -0.152742
C31   C     C_R   0.499874 0.066993 0.917466 -0.149364
C32   C     C_R   0.066826 0.498847 0.082546 -0.149561
C33   C     C_R   0.933219 0.501010 0.917456 -0.148730
C34   C     C_R   0.999923 0.567057 0.582500 -0.149658
C35   C     C_R   0.000009 0.500036 0.631481 -0.009355
C36   C     C_R   0.000110 0.432939 0.417500 -0.150066
C37   C     C_R   0.433124 0.001345 0.582515 -0.148264
C38   C     C_R   0.566841 0.999530 0.417493 -0.152159
C39   C     C_R   0.000126 0.433007 0.582534 -0.149364
C40   C     C_R   0.999963 0.566988 0.417466 -0.152742
C41   C     C_R   0.566781 0.998990 0.582544 -0.148730
C42   C     C_R   0.433174 0.001153 0.417454 -0.149561
C43   C     C_R   0.499958 0.000034 0.065939 0.077129
C44   C     C_R   0.499970 0.999971 0.934061 0.076012
C45   C     C_R   0.999998 0.499630 0.065945 0.076029
C46   C     C_R   0.000015 0.499962 0.368519 -0.008159
C47   C     C_R   0.000048 0.499788 0.934052 0.073715
C48   C     C_R   0.000030 0.500029 0.565939 0.076012
C49   C     C_R   0.000042 0.499966 0.434061 0.077129
C50   C     C_R   0.499952 0.000211 0.565948 0.073715
C51   C     C_R   0.500002 0.000370 0.434055 0.076029
C52   C     C_R   0.499959 0.000051 0.631499 -0.010940
C53   C     C_R   0.500022 0.000167 0.368503 -0.008683
C54   C     C_R   0.000046 0.499980 0.468419 0.297131
C55   C     C_R   0.000038 0.500014 0.531581 0.298113
C56   C     C_R   0.499987 0.000384 0.468418 0.297882
C57   C     C_R   0.499983 0.000004 0.665791 0.804813
C58   C     C_R   0.499960 0.000291 0.531585 0.299814
C59   C     C_R   0.499961 0.999986 0.968419 0.298113
C60   C     C_R   0.499954 0.000020 0.031581 0.297131
C61   C     C_R   0.000040 0.499709 0.968415 0.299814
C62   C     C_R   0.000013 0.499616 0.031582 0.297882
C63   C     C_R   0.641574 0.141735 0.249970 0.859226
C64   C     C_R   0.358432 0.858259 0.750027 0.857349
C65   C     C_R   0.858325 0.641622 0.249993 0.863255
C66   C     C_R   0.141624 0.358327 0.749959 0.869520
C67   C     C_R   0.358428 0.858284 0.249966 0.861000
C68   C     C_R   0.000002 0.499983 0.334234 0.795938
C69   C     C_R   0.641559 0.141730 0.750027 0.856825
C70   C     C_R   0.141609 0.358311 0.250050 0.869933
C71   C     C_R   0.858392 0.641689 0.749950 0.869482
C72   C     C_R   0.141568 0.641741 0.749973 0.857349
C73   C     C_R   0.858426 0.358265 0.250030 0.859226
C74   C     C_R   0.358376 0.141673 0.750041 0.869520
C75   C     C_R   0.641674 0.858378 0.250007 0.863255
C76   C     C_R   0.858441 0.358270 0.749973 0.856825
C77   C     C_R   0.141572 0.641716 0.250034 0.861000
C78   C     C_R   0.641608 0.858310 0.750050 0.869482
C79   C     C_R   0.000002 0.500017 0.665766 0.800639
C80   C     C_R   0.358391 0.141689 0.249950 0.869933
C81   C     C_3   0.219649 0.184231 0.242589 -0.222073
C82   C     C_3   0.780345 0.815764 0.757424 -0.223083
C83   C     C_3   0.802248 0.231668 0.270947 -0.199283
C84   C     C_3   0.197647 0.768443 0.729116 -0.198506
C85   C     C_3   0.767966 0.802421 0.270945 -0.193355
C86   C     C_3   0.219647 0.184222 0.757419 -0.223186
C87   C     C_3   0.197745 0.768317 0.270912 -0.192105
C88   C     C_3   0.802324 0.231588 0.729133 -0.198451
C89   C     C_3   0.719655 0.684236 0.742576 -0.223083
C90   C     C_R   0.000017 0.499996 0.834209 0.804814
C91   C     C_3   0.280351 0.315769 0.257411 -0.222073
C92   C     C_3   0.302353 0.731557 0.770884 -0.198506
C93   C     C_3   0.697752 0.268331 0.229053 -0.199283
C94   C     C_3   0.280353 0.315778 0.742581 -0.223186
C95   C     C_3   0.732034 0.697579 0.229055 -0.193355
C96   C     C_3   0.697676 0.268412 0.770867 -0.198451
C97   C     C_3   0.302255 0.731683 0.229088 -0.192105
C98   C     C_3   0.219562 0.254012 0.221905 0.314408
C99   C     C_3   0.780417 0.745968 0.778099 0.314491
C100  C     C_3   0.779972 0.185335 0.242346 0.321134
C101  C     C_R   0.999986 0.499963 0.165790 0.797365
C102  C     C_3   0.220080 0.814631 0.757737 0.322325
C103  C     C_3   0.814379 0.780369 0.242378 0.326134
C104  C     C_3   0.219679 0.253947 0.778104 0.314443
C105  C     C_3   0.220001 0.814650 0.242297 0.327461
C106  C     C_3   0.779930 0.185357 0.757759 0.322319
C107  C     C_3   0.719583 0.754032 0.721901 0.314491
C108  C     C_3   0.280438 0.245988 0.278095 0.314408
C109  C     C_3   0.279920 0.685369 0.742263 0.322325
C110  C     C_3   0.720028 0.314665 0.257654 0.321134
C111  C     C_3   0.280321 0.246053 0.721896 0.314443
C112  C     C_R   0.499998 0.999983 0.834233 0.800639
C113  C     C_3   0.685621 0.719631 0.257622 0.326134
C114  C     C_3   0.720070 0.314643 0.742241 0.322319
C115  C     C_3   0.279999 0.685350 0.257703 0.327461
C116  C     C_3   0.198636 0.300942 0.250141 -0.083060
C117  C     C_3   0.801364 0.699059 0.749859 -0.081575
C118  C     C_3   0.698628 0.199071 0.249878 -0.072599
C119  C     C_3   0.301382 0.800919 0.750119 -0.070822
C120  C     C_3   0.801042 0.698731 0.249923 -0.078191
C121  C     C_3   0.198665 0.300972 0.749876 -0.081605
C122  C     C_3   0.301358 0.800952 0.249873 -0.077508
C123  C     C_R   0.499998 0.000017 0.165766 0.795938
C124  C     C_3   0.698616 0.199078 0.750118 -0.070653
C125  C     C_3   0.698636 0.800941 0.750140 -0.081575
C126  C     C_3   0.301364 0.199058 0.249859 -0.083060
C127  C     C_3   0.198618 0.699081 0.749881 -0.070822
C128  C     C_3   0.801372 0.300929 0.250122 -0.072599
C129  C     C_3   0.301335 0.199028 0.750124 -0.081605
C130  C     C_3   0.698958 0.801269 0.250077 -0.078191
C131  C     C_3   0.801384 0.300922 0.749881 -0.070652
C132  C     C_3   0.198642 0.699048 0.250127 -0.077508
C133  C     C_3   0.198127 0.231967 0.271134 -0.196198
C134  C     C_R   0.499985 0.000038 0.131481 -0.008159
C135  C     C_3   0.801889 0.768049 0.728875 -0.197092
C136  C     C_3   0.719684 0.245224 0.278539 -0.246811
C137  C     C_3   0.280169 0.754911 0.721437 -0.244177
C138  C     C_3   0.754808 0.719557 0.278547 -0.248450
C139  C     C_3   0.198034 0.232053 0.728881 -0.196982
C140  C     C_3   0.280320 0.754800 0.278549 -0.246275
C141  C     C_3   0.719791 0.245130 0.721431 -0.244186
C142  C     C_3   0.698111 0.731951 0.771125 -0.197092
C143  C     C_3   0.301873 0.268033 0.228866 -0.196198
C144  C     C_3   0.219831 0.745089 0.778563 -0.244177
H1    H     H_    0.195819 0.129634 0.236320 0.205136
H2    H     H_    0.304181 0.370366 0.263680 0.205136
H3    H     H_    0.346178 0.716859 0.787844 0.187166
H4    H     H_    0.654013 0.282937 0.212039 0.187163
H5    H     H_    0.304185 0.370381 0.736309 0.204332
H6    H     H_    0.717716 0.653686 0.212039 0.192238
H7    H     H_    0.653876 0.283088 0.787815 0.187204
H8    H     H_    0.346002 0.717080 0.212105 0.192743
H9    H     H_    0.155207 0.218115 0.288602 0.192145
H10   H     H_    0.844822 0.781914 0.711415 0.191423
H11   H     H_    0.693652 0.240781 0.301823 0.179441
H12   H     H_    0.804169 0.870356 0.763703 0.204296
H13   H     H_    0.306084 0.759462 0.698133 0.179782
H14   H     H_    0.759294 0.693443 0.301840 0.180528
H15   H     H_    0.155037 0.218268 0.711423 0.191518
H16   H     H_    0.306354 0.759256 0.301842 0.180986
H17   H     H_    0.693846 0.240615 0.698122 0.179811
H18   H     H_    0.655178 0.718086 0.788585 0.191423
H19   H     H_    0.344793 0.281885 0.211398 0.192145
H20   H     H_    0.193916 0.740538 0.801867 0.179782
H21   H     H_    0.806348 0.259219 0.198177 0.179441
H22   H     H_    0.344963 0.281732 0.788577 0.191518
H23   H     H_    0.845987 0.217063 0.287961 0.187163
H24   H     H_    0.740706 0.806557 0.198160 0.180528
H25   H     H_    0.806154 0.259385 0.801878 0.179811
H26   H     H_    0.193646 0.740744 0.198158 0.180986
H27   H     H_    0.499850 0.119597 0.127036 0.168203
H28   H     H_    0.500172 0.880405 0.872965 0.168222
H29   H     H_    0.880754 0.501236 0.127038 0.167606
H30   H     H_    0.119257 0.497806 0.872948 0.174539
H31   H     H_    0.500111 0.880475 0.127090 0.167455
H32   H     H_    0.499806 0.119527 0.872909 0.168357
H33   H     H_    0.119207 0.498326 0.127104 0.174352
H34   H     H_    0.153821 0.783141 0.712156 0.187166
H35   H     H_    0.880823 0.502070 0.872902 0.174541
H36   H     H_    0.999828 0.619595 0.627035 0.168222
H37   H     H_    0.000150 0.380403 0.372964 0.168203
H38   H     H_    0.380743 0.002194 0.627052 0.174539
H39   H     H_    0.619246 0.998764 0.372962 0.167606
H40   H     H_    0.000194 0.380473 0.627091 0.168357
H41   H     H_    0.999888 0.619525 0.372910 0.167455
H42   H     H_    0.619176 0.997930 0.627097 0.174541
H43   H     H_    0.380792 0.001674 0.372896 0.174352
H44   H     H_    0.499827 0.119680 0.070445 0.157995
H45   H     H_    0.782284 0.846314 0.287961 0.192238
H46   H     H_    0.500155 0.880325 0.929555 0.157862
H47   H     H_    0.880691 0.501073 0.070450 0.157119
H48   H     H_    0.119344 0.497688 0.929538 0.159318
H49   H     H_    0.500090 0.880390 0.070507 0.157029
H50   H     H_    0.499789 0.119615 0.929492 0.158135
H51   H     H_    0.119302 0.498173 0.070521 0.159147
H52   H     H_    0.880751 0.501919 0.929485 0.159032
H53   H     H_    0.999845 0.619675 0.570445 0.157862
H54   H     H_    0.000173 0.380320 0.429555 0.157995
H55   H     H_    0.380656 0.002312 0.570462 0.159318
H56   H     H_    0.195815 0.129619 0.763690 0.204332
H57   H     H_    0.619309 0.998927 0.429550 0.157119
H58   H     H_    0.000211 0.380385 0.570508 0.158135
H59   H     H_    0.999910 0.619610 0.429493 0.157029
H60   H     H_    0.619249 0.998081 0.570515 0.159032
H61   H     H_    0.380698 0.001827 0.429479 0.159147
H62   H     H_    0.153997 0.782920 0.287895 0.192743
H63   H     H_    0.846124 0.216912 0.712185 0.187204
H64   H     H_    0.695831 0.629644 0.736297 0.204296
N1    N     N_R   0.500045 0.935402 0.015490 -0.169011
N2    N     N_R   0.999955 0.564598 0.484510 -0.169011
N3    N     N_R   0.564391 0.999353 0.515491 -0.167918
N4    N     N_R   0.435555 0.001329 0.484513 -0.166991
N5    N     N_R   0.999951 0.564615 0.515448 -0.168468
N6    N     N_R   0.000135 0.435379 0.484552 -0.167766
N7    N     N_R   0.435542 0.001287 0.515452 -0.166914
N8    N     N_R   0.564404 0.999399 0.484552 -0.168811
N9    N     N_R   0.499869 0.064604 0.984510 -0.167698
N10   N     N_R   0.064445 0.498671 0.015487 -0.166991
N11   N     N_R   0.935609 0.500646 0.984509 -0.167918
N12   N     N_R   0.499865 0.064621 0.015448 -0.167766
N13   N     N_R   0.500049 0.935385 0.984552 -0.168468
N14   N     N_R   0.935596 0.500601 0.015448 -0.168811
N15   N     N_R   0.064458 0.498713 0.984548 -0.166914
N16   N     N_R   0.000131 0.435396 0.515490 -0.167698
O1    O     O_3   0.500000 0.000000 0.250000 -0.503184
O2    O     O_R   0.438450 0.000020 0.680680 -0.636918
O3    O     O_R   0.000020 0.561550 0.319320 -0.644803
O4    O     O_R   0.999980 0.438450 0.680680 -0.642853
O5    O     O_R   0.938450 0.500020 0.819320 -0.636774
O6    O     O_R   0.061550 0.499980 0.180680 -0.634526
O7    O     O_R   0.499980 0.938450 0.819320 -0.642986
O8    O     O_R   0.500020 0.061550 0.180680 -0.642944
O9    O     O_R   0.061550 0.499980 0.819320 -0.636918
O10   O     O_R   0.938450 0.500020 0.180680 -0.647039
O11   O     O_R   0.500020 0.061550 0.819320 -0.642853
O12   O     O_3   0.500000 0.000000 0.750000 -0.504138
O13   O     O_R   0.499980 0.938450 0.180680 -0.644803
O14   O     O_R   0.648010 0.086580 0.268180 -0.620741
O15   O     O_R   0.351990 0.913420 0.731820 -0.621943
O16   O     O_R   0.913420 0.648010 0.268180 -0.624329
O17   O     O_R   0.086580 0.351990 0.731820 -0.646342
O18   O     O_R   0.351990 0.913420 0.268180 -0.624892
O19   O     O_R   0.648010 0.086580 0.731820 -0.621899
O20   O     O_R   0.086580 0.351990 0.268180 -0.645946
O21   O     O_R   0.913420 0.648010 0.731820 -0.646479
O22   O     O_R   0.148010 0.586580 0.768180 -0.621943
O23   O     O_3   0.000000 0.500000 0.250000 -0.503184
O24   O     O_R   0.851990 0.413420 0.231820 -0.620742
O25   O     O_R   0.413420 0.148010 0.768180 -0.646342
O26   O     O_R   0.586580 0.851990 0.231820 -0.624329
O27   O     O_R   0.851990 0.413420 0.768180 -0.621899
O28   O     O_R   0.148010 0.586580 0.231820 -0.624892
O29   O     O_R   0.586580 0.851990 0.768180 -0.646479
O30   O     O_R   0.413420 0.148010 0.231820 -0.645946
O31   O     O_R   0.413460 0.851950 0.231830 -0.635878
O32   O     O_R   0.586540 0.148050 0.768170 -0.645064
O33   O     O_R   0.148050 0.413460 0.231830 -0.610221
O34   O     O_3   0.000000 0.500000 0.750000 -0.504138
O35   O     O_R   0.851950 0.586540 0.768170 -0.610316
O36   O     O_R   0.586540 0.148050 0.231830 -0.644772
O37   O     O_R   0.413460 0.851950 0.768170 -0.645111
O38   O     O_R   0.851950 0.586540 0.231830 -0.635606
O39   O     O_R   0.148050 0.413460 0.768170 -0.610446
O40   O     O_R   0.913460 0.351950 0.731830 -0.645065
O41   O     O_R   0.086540 0.648050 0.268170 -0.635878
O42   O     O_R   0.648050 0.913460 0.731830 -0.610316
O43   O     O_R   0.351950 0.086540 0.268170 -0.610221
O44   O     O_R   0.086540 0.648050 0.731830 -0.645111
O45   O     O_R   0.438450 0.000020 0.319320 -0.634526
O46   O     O_R   0.913460 0.351950 0.268170 -0.644772
O47   O     O_R   0.351950 0.086540 0.731830 -0.610446
O48   O     O_R   0.648050 0.913460 0.268170 -0.635606
O49   O     O_R   0.561550 0.999980 0.680680 -0.636774
O50   O     O_R   0.999980 0.438450 0.319320 -0.642944
O51   O     O_R   0.000020 0.561550 0.680680 -0.642986
O52   O     O_R   0.561550 0.999980 0.319320 -0.647039
Zn1   Zn    Zn3+2 0.499980 0.087890 0.224030 0.998524
Zn2   Zn    Zn3+2 0.000020 0.412110 0.275970 0.998524
Zn3   Zn    Zn3+2 0.412110 0.999980 0.724030 1.028270
Zn4   Zn    Zn3+2 0.587890 0.000020 0.275970 1.010168
Zn5   Zn    Zn3+2 0.000020 0.412110 0.724030 0.998289
Zn6   Zn    Zn3+2 0.999980 0.587890 0.275970 1.009377
Zn7   Zn    Zn3+2 0.587890 0.000020 0.724030 1.028173
Zn8   Zn    Zn3+2 0.412110 0.999980 0.275970 1.027289
Zn9   Zn    Zn3+2 0.500020 0.912110 0.775970 0.998290
Zn10  Zn    Zn3+2 0.912110 0.499980 0.224030 1.010168
Zn11  Zn    Zn3+2 0.087890 0.500020 0.775970 1.028270
Zn12  Zn    Zn3+2 0.500020 0.912110 0.224030 1.009377
Zn13  Zn    Zn3+2 0.499980 0.087890 0.775970 0.998289
Zn14  Zn    Zn3+2 0.087890 0.500020 0.224030 1.027289
Zn15  Zn    Zn3+2 0.912110 0.499980 0.775970 1.028173
Zn16  Zn    Zn3+2 0.999980 0.587890 0.724030 0.998290

loop_
_geom_bond_atom_site_label_1
_geom_bond_atom_site_label_2
_ccdc_geom_bond_type
C84   C137  S    
C63   O36   A    
C19   C37   A    
N1    N13   A    
C102  C144  S    
C117  C135  S    
C88   C141  S    
C3    H21   S    
O34   Zn16  S    
C135  H10   S    
C89   C117  S    
C113  C138  S    
C137  H13   S    
C61   N11   A    
C89   C107  S    
C42   H61   S    
O4    Zn5   S    
O21   Zn16  S    
C88   H63   S    
C78   O42   A    
C62   N14   A    
Br14  C105  S    
C76   C131  S    
C88   C131  S    
C2    C9    A    
C91   C108  S    
C6    C106  S    
C39   H58   S    
C83   C100  S    
C17   C34   A    
C78   O29   A    
C93   H4    S    
C7    C97   S    
C89   C142  S    
C91   H2    S    
C107  C125  S    
C111  C129  S    
C15   C32   A    
O26   Zn12  S    
C64   O37   A    
C87   C105  S    
C4    C104  S    
C65   C120  S    
C25   C53   A    
C54   N2    A    
C58   N7    A    
O41   Zn6   S    
C7    H26   S    
C101  O10   A    
C89   H64   S    
C7    C132  S    
C123  C134  S    
C103  C120  S    
C55   N16   A    
C142  H18   S    
C5    C103  S    
C5    C130  S    
C70   C116  S    
O9    Zn11  S    
O3    Zn6   S    
O23   Zn2   S    
O47   Zn3   S    
O8    Zn1   S    
O48   Zn4   S    
C81   C126  S    
C42   C51   A    
C68   O50   A    
C23   H42   S    
O51   Zn16  S    
C67   C122  S    
C36   C49   A    
C35   C79   S    
C22   C46   A    
C108  C133  S    
C1    C53   S    
C96   C124  S    
C26   H44   S    
C20   H39   S    
C41   C50   A    
C9    C27   A    
O1    Zn4   S    
C10   C28   A    
C127  C144  S    
C77   O28   A    
C101  O6    A    
O19   Zn7   S    
O12   Zn13  S    
C64   C119  S    
C8    H27   S    
C133  H9    S    
C69   O32   A    
C115  C140  S    
C25   C42   A    
C95   C120  S    
C21   H40   S    
C88   C106  S    
C49   C54   S    
C50   C58   S    
O46   Zn2   S    
C67   O18   A    
C51   C56   S    
O23   Zn6   S    
C144  H20   S    
Br7   C114  S    
C2    C112  S    
C110  C136  S    
C57   O2    A    
C17   H36   S    
C14   H32   S    
C83   H23   S    
O11   Zn13  S    
C82   H12   S    
O7    Zn9   S    
C27   H46   S    
C71   O35   A    
C72   O44   A    
C10   H29   S    
O42   Zn7   S    
O1    Zn8   S    
C3    C93   S    
C112  O11   A    
C138  H14   S    
C99   C142  S    
C97   C122  S    
O49   Zn7   S    
C70   O33   A    
O52   Zn4   S    
C74   O25   A    
C92   C119  S    
O34   Zn5   S    
C15   H33   S    
C34   H53   S    
O10   Zn10  S    
C96   H7    S    
C28   H47   S    
C76   O40   A    
O16   Zn6   S    
Br12  C103  S    
C87   C140  S    
C11   C24   A    
C62   N10   A    
Br8   C115  S    
C36   H54   S    
C55   N5    A    
C60   N12   A    
C69   O19   A    
C69   C124  S    
C70   O20   A    
C8    C134  A    
C4    C94   S    
C86   H56   S    
O20   Zn2   S    
C29   H48   S    
C81   H1    S    
O45   Zn8   S    
N11   N14   A    
C12   H31   S    
Br13  C104  S    
Br10  C100  S    
C24   C90   S    
C63   C118  S    
C46   C68   S    
C56   N8    A    
C114  C131  S    
O50   Zn2   S    
C112  O7    A    
C91   C116  S    
C26   C43   A    
O12   Zn9   S    
C41   H60   S    
Br2   C108  S    
C28   C45   A    
C83   C136  S    
C6    C96   S    
Br4   C110  S    
C12   C30   A    
C106  C124  S    
O29   Zn9   S    
O44   Zn16  S    
C82   C99   S    
C3    C100  S    
C109  C127  S    
C33   H52   S    
C110  C128  S    
N4    N7    A    
C90   O5    A    
N9    N12   A    
C16   C33   A    
C20   C38   A    
C21   C39   A    
O35   Zn15  S    
C93   C110  S    
C22   C40   A    
C81   C133  S    
C57   O49   A    
C96   C114  S    
C81   C98   S    
Br11  C102  S    
C43   C60   S    
O5    Zn15  S    
C5    H24   S    
C3    C128  S    
C116  C133  S    
Br15  C106  S    
O12   Zn3   S    
C8    C26   A    
C23   C52   A    
C126  C143  S    
O34   Zn11  S    
C7    C105  S    
C74   C129  S    
C86   C129  S    
O1    Zn1   S    
C94   H5    S    
C100  C118  S    
C18   C46   A    
C77   C132  S    
C48   C55   S    
C95   C113  S    
C11   H30   S    
C71   O21   A    
C72   C127  S    
C79   O4    A    
C11   C29   A    
C60   N1    A    
C73   O46   A    
C37   H55   S    
O40   Zn5   S    
C75   O48   A    
O12   Zn7   S    
C98   C116  S    
O31   Zn12  S    
C97   H8    S    
C16   H35   S    
C123  O8    A    
C5    C95   S    
O34   Zn15  S    
O37   Zn9   S    
C82   C135  S    
C92   H3    S    
C107  C135  S    
C80   O43   A    
O39   Zn11  S    
O22   Zn11  S    
C72   O22   A    
C65   O38   A    
Br9   C99   S    
O23   Zn10  S    
C83   C128  S    
O2    Zn3   S    
O32   Zn13  S    
O15   Zn3   S    
C111  C139  S    
C99   C117  S    
O33   Zn14  S    
C120  C138  S    
C32   H51   S    
C118  C136  S    
Br5   C111  S    
C67   O31   A    
C113  C130  S    
O1    Zn12  S    
O6    Zn14  S    
O17   Zn5   S    
C114  C141  S    
C59   N13   A    
C84   C102  S    
Br1   C98   S    
C86   C104  S    
C38   H57   S    
C139  H15   S    
C140  H16   S    
C93   C118  S    
C94   C121  S    
O23   Zn14  S    
C143  H19   S    
C84   C127  S    
O28   Zn14  S    
C1    O52   A    
C17   C35   A    
C73   C128  S    
C44   C59   S    
C18   C36   A    
O36   Zn1   S    
C63   O14   A    
C68   O3    A    
C125  C142  S    
C6    C131  S    
C56   N4    A    
C74   O47   A    
C61   N15   A    
C4    C129  S    
C104  C121  S    
O13   Zn12  S    
C40   H59   S    
C102  C119  S    
C12   C134  A    
C33   C47   A    
C64   O15   A    
C30   C43   A    
C34   C48   A    
C71   C117  S    
N6    N16   A    
C66   O39   A    
C77   O41   A    
C121  C139  S    
C85   C138  S    
C90   O9    A    
C123  O13   A    
Br16  C107  S    
C66   C121  S    
O14   Zn4   S    
C87   H62   S    
C21   C35   A    
C80   O30   A    
C40   C49   A    
C23   C41   A    
C31   C44   A    
C76   O27   A    
O43   Zn8   S    
O18   Zn8   S    
C22   H41   S    
C2    C14   A    
C92   C109  S    
C25   H43   S    
C75   O26   A    
C94   C111  S    
N3    N8    A    
C66   O17   A    
C108  C126  S    
Br6   C113  S    
C109  C137  S    
C87   C132  S    
C85   C130  S    
C85   C103  S    
C30   H49   S    
C14   C31   A    
O25   Zn13  S    
C136  H11   S    
C38   C51   A    
C52   C57   S    
C13   C101  S    
C29   C47   A    
C105  C122  S    
C54   N6    A    
C58   N3    A    
C9    H28   S    
C124  C141  S    
C1    O45   A    
C45   C62   S    
C39   C48   A    
C115  C132  S    
C73   O24   A    
C141  H17   S    
C37   C50   A    
C85   H45   S    
C27   C44   A    
O38   Zn10  S    
C79   O51   A    
C82   C125  S    
C20   C53   A    
C4    H22   S    
C47   C61   S    
C122  C140  S    
C97   C115  S    
C78   C125  S    
C95   H6    S    
C91   C143  S    
Br3   C109  S    
C92   C144  S    
C84   H34   S    
N2    N5    A    
C119  C137  S    
C6    H25   S    
C13   C15   A    
O30   Zn1   S    
C18   H37   S    
C32   C45   A    
C19   C52   A    
C59   N9    A    
N10   N15   A    
C16   C24   A    
C65   O16   A    
O27   Zn15  S    
O24   Zn10  S    
C98   C143  S    
C80   C126  S    
C10   C13   A    
C31   H50   S    
C86   C139  S    
C75   C130  S    
C19   H38   S    
