data_mof_unit_51830.cif
_audit_creation_date              2013-03-05T15:44:17-0500
_audit_creation_method            fapswitch 2.2
_symmetry_space_group_name_H-M    P1
_symmetry_Int_Tables_number       1
_space_group_crystal_system       triclinic
_cell_length_a                    20.882455
_cell_length_b                    7.099017
_cell_length_c                    16.336122
_cell_angle_alpha                 91.389517
_cell_angle_beta                  92.593959
_cell_angle_gamma                 91.009556
_cell_volume                      2418.12918973

loop_
_atom_site_label
_atom_site_type_symbol
_atom_site_description
_atom_site_fract_x
_atom_site_fract_y
_atom_site_fract_z
_atom_type_partial_charge
O1    O     O_R   0.564840 0.505290 0.579830 -0.553014
O2    O     O_R   0.435160 0.005290 0.420170 -0.557136
O3    O     O_R   0.556720 0.179930 0.409350 -0.558936
O4    O     O_R   0.443280 0.679930 0.590650 -0.557951
C1    C     C_R   0.570389 0.344025 0.380979 0.823447
C2    C     C_R   0.429777 0.845760 0.619226 0.824360
O5    O     O_R   0.572280 0.175810 0.578530 -0.557955
O6    O     O_R   0.427720 0.675810 0.421470 -0.548247
O7    O     O_R   0.450830 0.001920 0.590540 -0.556640
O8    O     O_R   0.549170 0.501920 0.409460 -0.556070
C3    C     C_R   0.589730 0.347814 0.605201 0.808686
C4    C     C_R   0.409535 0.841198 0.395334 0.807864
O9    O     O_3   0.460130 0.338030 0.503750 -0.271811
O10   O     O_3   0.539870 0.838030 0.496250 -0.273431
V1    V     V_3+5 0.507400 0.064560 0.499310 1.145834
V2    V     V_3+5 0.492600 0.564560 0.500690 1.156220
C5    C     C_R   0.142859 0.929548 0.170449 -0.204828
C6    C     C_R   0.858964 0.391422 0.828346 -0.200478
C7    C     C_R   0.354695 0.838643 0.333623 -0.116521
C8    C     C_R   0.643134 0.372946 0.668003 -0.117028
C9    C     C_R   0.295004 0.679977 0.219212 0.016470
C10   C     C_R   0.694976 0.565209 0.778711 0.003401
C11   C     C_R   0.348135 0.691485 0.274583 -0.044830
C12   C     C_R   0.642411 0.525073 0.724771 -0.070749
C13   C     C_R   0.306673 0.974739 0.336218 -0.071082
C14   C     C_R   0.697432 0.259707 0.666991 -0.073564
C15   C     C_R   0.252028 0.963544 0.281237 -0.049727
C16   C     C_R   0.751373 0.299799 0.720774 -0.050190
C17   C     C_R   0.246355 0.813534 0.222373 0.051811
C18   C     C_R   0.750072 0.455643 0.776628 0.058943
C19   C     C_R   0.192206 0.797895 0.167712 -0.140455
C20   C     C_R   0.803564 0.500139 0.829703 -0.141265
C21   C     C_R   0.147248 0.076006 0.231279 0.279828
C22   C     C_R   0.861169 0.239407 0.770327 0.288876
C23   C     C_R   0.201858 0.094281 0.285749 0.285547
C24   C     C_R   0.807393 0.192116 0.717821 0.285530
H1    H     H_    0.189179 0.685450 0.121493 0.105158
H2    H     H_    0.801261 0.615639 0.874079 0.102168
H3    H     H_    0.291463 0.564250 0.174645 0.055288
H4    H     H_    0.692925 0.684439 0.821154 0.058379
H5    H     H_    0.384273 0.584249 0.271402 0.071124
H6    H     H_    0.601143 0.615190 0.726736 0.072359
H7    H     H_    0.311251 0.084329 0.383391 0.138735
H8    H     H_    0.698261 0.146491 0.621525 0.136828
C25   C     C_R   0.381213 0.905045 0.837216 -0.074580
C26   C     C_R   0.620286 0.323675 0.162590 -0.074810
H9    H     H_    0.470291 0.886262 0.777455 0.052809
H10   H     H_    0.531120 0.306406 0.222314 0.053507
H11   H     H_    0.301648 0.946776 0.957988 0.062255
H12   H     H_    0.700463 0.323137 0.041436 0.063480
H13   H     H_    0.405079 0.923647 0.897250 0.059310
H14   H     H_    0.596968 0.304309 0.102265 0.059595
C27   C     C_R   0.389432 0.859002 0.690859 -0.078568
C28   C     C_R   0.610979 0.349525 0.309475 -0.078075
C29   C     C_R   0.078582 0.872875 0.732232 -0.029369
C30   C     C_R   0.921077 0.443940 0.268249 -0.034313
C31   C     C_R   0.112921 0.851772 0.661865 -0.028875
C32   C     C_R   0.886432 0.446020 0.338890 -0.028523
C33   C     C_R   0.179653 0.855936 0.666438 -0.062565
C34   C     C_R   0.820030 0.421025 0.334242 -0.065712
C35   C     C_R   0.214200 0.880941 0.742551 0.042679
C36   C     C_R   0.786102 0.393447 0.257811 0.041793
C37   C     C_R   0.178420 0.905436 0.814807 0.004011
C38   C     C_R   0.822238 0.389636 0.185261 0.005579
C39   C     C_R   0.282933 0.880518 0.749340 0.048918
C40   C     C_R   0.717611 0.371001 0.250972 0.048962
C41   C     C_R   0.314010 0.904533 0.828225 0.065596
C42   C     C_R   0.687203 0.345799 0.171728 0.065352
C43   C     C_R   0.278019 0.928447 0.897783 -0.098296
C44   C     C_R   0.723579 0.342414 0.101901 -0.098945
C45   C     C_R   0.211416 0.929057 0.891326 -0.081661
C46   C     C_R   0.789908 0.363736 0.108411 -0.080750
C47   C     C_R   0.322213 0.857333 0.680879 -0.104981
C48   C     C_R   0.677922 0.372441 0.319662 -0.106432
C49   C     C_R   0.418505 0.883214 0.769133 -0.101292
C50   C     C_R   0.582618 0.325174 0.230832 -0.101295
C51   C     C_R   0.110174 0.902485 0.808865 -0.104066
C52   C     C_R   0.890102 0.414150 0.191272 -0.101287
H15   H     H_    0.302390 0.840145 0.619054 0.058962
H16   H     H_    0.697307 0.389348 0.381712 0.056047
H17   H     H_    0.026842 0.864391 0.726737 0.166289
H18   H     H_    0.972534 0.466775 0.273662 0.153031
H19   H     H_    0.202652 0.837311 0.609213 0.092057
H20   H     H_    0.796702 0.425416 0.391682 0.089620
H21   H     H_    0.087502 0.830120 0.603046 0.122591
H22   H     H_    0.911289 0.468489 0.398026 0.121768
H23   H     H_    0.185884 0.947538 0.947117 0.033936
H24   H     H_    0.815732 0.360361 0.052394 0.036335
O11   O     O_R   0.950790 0.256670 0.090520 -0.529237
O12   O     O_R   0.049210 0.756670 0.909480 -0.556685
O13   O     O_R   0.927720 0.590370 0.921470 -0.541067
O14   O     O_R   0.072280 0.090370 0.078530 -0.540790
C53   C     C_R   0.911022 0.417946 0.893648 0.870024
C54   C     C_R   0.089634 0.924870 0.105876 0.869580
O15   O     O_R   0.943270 0.586180 0.090640 -0.565400
O16   O     O_R   0.056730 0.086180 0.909360 -0.533993
O17   O     O_R   0.064850 0.759970 0.079840 -0.544607
O18   O     O_R   0.935150 0.259970 0.920160 -0.535393
C55   C     C_R   0.930125 0.418585 0.118859 0.837049
C56   C     C_R   0.070081 0.916532 0.881228 0.850938
O19   O     O_3   0.039850 0.428050 0.996240 -0.280223
O20   O     O_3   0.960150 0.928050 0.003760 -0.275943
V3    V     V_3+5 0.992610 0.701540 0.000700 1.201309
V4    V     V_3+5 0.007390 0.201540 0.999300 1.231170
N1    N     N_R   0.095637 0.205389 0.238956 0.112206
O21   O     O_R   0.106775 0.386395 0.240034 -0.331794
O22   O     O_R   0.037381 0.142005 0.246216 -0.370653
N2    N     N_R   0.917889 0.129476 0.765221 0.109772
O23   O     O_R   0.914670 0.947577 0.772898 -0.342282
O24   O     O_R   0.972985 0.211497 0.754484 -0.369948
N3    N     N_R   0.204696 0.241885 0.347527 0.104713
O25   O     O_R   0.159961 0.254246 0.400199 -0.297514
O26   O     O_R   0.249315 0.372060 0.347488 -0.377422
N4    N     N_R   0.810587 0.035752 0.660818 0.103939
O27   O     O_R   0.854905 0.032156 0.607357 -0.302148
O28   O     O_R   0.772983 0.889258 0.667213 -0.370639

loop_
_geom_bond_atom_site_label_1
_geom_bond_atom_site_label_2
_geom_bond_distance
_ccdc_geom_bond_type
C30   C52   1.397541 A    
C40   C42   1.421774 A    
C15   C17   1.417169 A    
C12   H6    1.083477 S    
H10   C50   1.083564 S    
N3    O25   1.301053 A    
O1    C3    1.309634 A    
C24   N4    1.435916 S    
C13   H7    1.081620 S    
C2    O7    1.291702 A    
C26   C50   1.393112 A    
N4    O27   1.301070 A    
C14   H8    1.081958 S    
O5    C3    1.325800 A    
N1    O22   1.301084 A    
O11   C55   1.315865 A    
C33   H19   1.076540 S    
C29   C51   1.397943 A    
O15   C55   1.315273 A    
C31   C33   1.391897 A    
C25   H13   1.083879 S    
C32   C34   1.393250 A    
C40   C48   1.424812 A    
C26   H14   1.083894 S    
C39   C47   1.424632 A    
N2    O23   1.301262 A    
C51   C56   1.481608 S    
C34   C36   1.415084 A    
C43   C45   1.390138 A    
C36   C38   1.433506 A    
C28   C48   1.406425 A    
C8    C12   1.407054 A    
C31   H21   1.082798 S    
C39   C41   1.421482 A    
C25   C41   1.404344 A    
C20   H2    1.084375 S    
C29   H17   1.080620 S    
C22   C24   1.412484 A    
H11   C43   1.084121 S    
O5    V1    1.971850 S    
O2    C4    1.320373 A    
O6    V2    2.015624 S    
C48   H16   1.077495 S    
C27   C49   1.395929 A    
C5    C21   1.419571 A    
C32   H22   1.082755 S    
O12   C56   1.310363 A    
C46   H24   1.082973 S    
O15   V3    2.014117 S    
C3    C8    1.486154 S    
C33   C35   1.414777 A    
C36   C40   1.435333 A    
C1    C28   1.474820 S    
C21   N1    1.436130 S    
O4    C2    1.296246 A    
C54   O17   1.324271 A    
C15   C23   1.415043 A    
C9    C17   1.403559 A    
C19   H1    1.084409 S    
C41   C43   1.399051 A    
O4    V2    1.999899 S    
C7    C11   1.405155 A    
C26   C42   1.404229 A    
O13   C53   1.330435 A    
C9    H3    1.083713 S    
O6    C4    1.315423 A    
C10   H4    1.083740 S    
O14   C54   1.317974 A    
C47   H15   1.077369 S    
N3    O26   1.300730 A    
O1    V2    1.999103 S    
O20   V4    2.166519 S    
O2    V1    1.974565 S    
C6    C22   1.421661 A    
O17   V3    1.973480 S    
C28   C50   1.395672 A    
C42   C44   1.398757 A    
C37   C45   1.404724 A    
O19   V4    1.736718 S    
C29   C31   1.388560 A    
O11   V4    1.979457 S    
C5    C19   1.404802 A    
C45   H23   1.082949 S    
C6    C20   1.402665 A    
C2    C27   1.474694 S    
C23   N3    1.435658 S    
C37   C51   1.423815 A    
O16   V4    1.999856 S    
C10   C18   1.401313 A    
C38   C52   1.423427 A    
C35   C37   1.433964 A    
C27   C47   1.405603 A    
O13   V3    1.971874 S    
O3    C1    1.296050 A    
N4    O28   1.301152 A    
N2    O24   1.301220 A    
C30   H18   1.083200 S    
C13   C15   1.419776 A    
N1    O21   1.301367 A    
C14   C16   1.417306 A    
C11   H5    1.083333 S    
C25   C49   1.393461 A    
C22   N2    1.434312 S    
C9    C11   1.399386 A    
H12   C44   1.084144 S    
H9    C49   1.083578 S    
C1    O8    1.296193 A    
C17   C19   1.409865 A    
O8    V2    1.990001 S    
C18   C20   1.409235 A    
C34   H20   1.076687 S    
C8    C14   1.401901 A    
O18   V4    1.997684 S    
O16   C56   1.317552 A    
C4    C7    1.490638 S    
C16   C18   1.418314 A    
C21   C23   1.416493 A    
C30   C32   1.389409 A    
C10   C12   1.397075 A    
C38   C46   1.404797 A    
O7    V1    1.996843 S    
O20   V3    1.756477 S    
C7    C13   1.406024 A    
O12   V3    1.985502 S    
O14   V4    2.015623 S    
C35   C39   1.434635 A    
C16   C24   1.410688 A    
O19   V3    2.194326 S    
O9    V2    1.736928 S    
C52   C55   1.479614 S    
C6    C53   1.494445 S    
O10   V1    1.756692 S    
O3    V1    2.014171 S    
C44   C46   1.389696 A    
C5    C54   1.496708 S    
C53   O18   1.312578 A    
