data_mof_unit_12150.cif
_audit_creation_date              2012-12-10T17:43:39-0500
_audit_creation_method            fapswitch 2.2
_symmetry_space_group_name_H-M    P1
_symmetry_Int_Tables_number       1
_space_group_crystal_system       triclinic
_cell_length_a                    14.985662
_cell_length_b                    10.613552
_cell_length_c                    9.964875
_cell_angle_alpha                 88.838919
_cell_angle_beta                  90.917843
_cell_angle_gamma                 92.226839
_cell_volume                      1583.21825585

loop_
_atom_site_label
_atom_site_type_symbol
_atom_type_description
_atom_site_fract_x
_atom_site_fract_y
_atom_site_fract_z
_atom_type_partial_charge
C1    C     C_R   0.502167 0.260877 0.501203 0.878168
C2    C     C_R   0.184042 0.431091 0.414588 -0.254725
C3    C     C_R   0.231954 0.511179 0.499659 -0.129733
C4    C     C_R   0.327430 0.504563 0.499397 0.828660
C5    C     C_R   0.189233 0.587528 0.591252 -0.074682
C6    C     C_R   0.647769 0.136227 0.639453 -0.088471
C7    C     C_R   0.716906 0.072874 0.703016 -0.117314
C8    C     C_R   0.718301 0.942078 0.699031 -0.130301
C9    C     C_R   0.650605 0.874170 0.631468 -0.189559
C10   C     C_R   0.579280 0.936868 0.567861 0.098019
C11   C     C_R   0.577935 0.068698 0.571550 0.139294
C12   C     C_R   0.907699 0.565318 0.601509 0.028873
C13   C     C_R   0.507651 0.128666 0.503154 -0.029854
C14   C     C_R   0.442063 0.062450 0.430009 -0.203889
C15   C     C_R   0.443146 0.933949 0.427086 -0.193271
C16   C     C_R   0.503063 0.739302 0.498970 0.847773
C17   C     C_R   0.509885 0.872048 0.497189 -0.089246
C18   C     C_R   0.363040 0.371489 0.141796 -0.132985
C19   C     C_R   0.283388 0.337948 0.076811 -0.191398
C20   C     C_R   0.277859 0.346801 0.938508 -0.160433
C21   C     C_R   0.355971 0.371504 0.866192 0.029264
C22   C     C_R   0.430667 0.436586 0.928779 0.159080
C23   C     C_R   0.953277 0.335826 0.332098 -0.215847
C24   C     C_R   0.431828 0.437254 0.072902 0.168409
C25   C     C_R   0.565566 0.560071 0.071413 -0.093160
C26   C     C_R   0.565650 0.559886 0.928719 -0.097504
C27   C     C_R   0.672676 0.495606 0.500966 0.902473
C28   C     C_R   0.815052 0.561413 0.596264 -0.292488
C29   C     C_R   0.768185 0.486494 0.504219 -0.082539
C30   C     C_R   0.812039 0.408774 0.415553 -0.079889
C31   C     C_R   0.905751 0.411893 0.417918 0.049593
C32   C     C_R   0.953363 0.492020 0.509449 0.069295
C33   C     C_2   0.366672 0.271730 0.769453 0.496557
C34   C     C_R   0.045463 0.342495 0.331911 -0.188716
C35   C     C_2   0.760698 0.325667 0.320721 0.415697
C36   C     C_2   0.244064 0.674380 0.677756 0.427373
C37   C     C_2   0.911748 0.715779 0.798512 0.380740
C38   C     C_R   0.092167 0.424396 0.417613 0.134097
C39   C     C_R   0.046909 0.498929 0.508135 0.047644
C40   C     C_R   0.095246 0.580913 0.595819 0.025027
C41   C     C_R   0.048565 0.654407 0.684569 -0.158983
C42   C     C_R   0.955744 0.644571 0.692208 -0.028544
H1    H     H_    0.777590 0.621507 0.658868 0.129874
H2    H     H_    0.218859 0.305139 0.889752 0.140114
H3    H     H_    0.920322 0.270209 0.264246 0.144350
H4    H     H_    0.083804 0.719053 0.750842 0.231763
H5    H     H_    0.389075 0.110541 0.377004 0.137343
H6    H     H_    0.325698 0.268026 0.678672 0.029836
H7    H     H_    0.779656 0.322292 0.216300 0.057226
H8    H     H_    0.619271 0.609360 0.875640 0.137052
H9    H     H_    0.080326 0.283671 0.263933 0.142850
H10   H     H_    0.218947 0.370322 0.349008 0.137552
H11   H     H_    0.296063 0.734962 0.633160 0.067656
H12   H     H_    0.650810 0.237963 0.642317 0.158877
H13   H     H_    0.846872 0.685459 0.836308 0.047335
H14   H     H_    0.770043 0.125555 0.754303 0.149023
H15   H     H_    0.772417 0.893215 0.747361 0.158265
H16   H     H_    0.655588 0.773010 0.627862 0.137201
H17   H     H_    0.390552 0.882280 0.373033 0.158521
H18   H     H_    0.619191 0.609683 0.124720 0.146257
H19   H     H_    0.370229 0.341660 0.244177 0.186721
H20   H     H_    0.228535 0.294089 0.132009 0.140768
N1    N     N_R   0.499150 0.498800 0.142780 -0.118653
N2    N     N_R   0.499120 0.498720 0.857170 -0.120625
O1    O     O_R   0.500000 0.316780 0.614690 -0.617219
O2    O     O_2   0.697826 0.258702 0.359176 -0.576746
O3    O     O_2   0.235798 0.672465 0.799488 -0.555612
O4    O     O_2   0.948767 0.808799 0.847844 -0.566273
O5    O     O_R   0.499990 0.316750 0.385360 -0.606652
O6    O     O_R   0.367850 0.499980 0.614680 -0.640883
O7    O     O_R   0.367840 0.499960 0.385350 -0.630652
O8    O     O_R   0.500010 0.683250 0.614640 -0.614251
O9    O     O_R   0.500000 0.683220 0.385310 -0.607371
O10   O     O_R   0.632160 0.500040 0.614650 -0.648955
O11   O     O_R   0.632150 0.500020 0.385320 -0.602145
O12   O     O_2   0.414874 0.184451 0.797665 -0.566611
Zn1   Zn    Zn3+2 0.500010 0.500020 0.653130 0.961017
Zn2   Zn    Zn3+2 0.499990 0.499980 0.346870 0.970542

loop_
_geom_bond_atom_site_label_1
_geom_bond_atom_site_label_2
_ccdc_geom_bond_type
C37   O4    D    
C23   H3    S    
C27   C29   S    
C41   C42   A    
C19   C20   A    
C16   O8    A    
C4    O6    A    
C36   O3    D    
C7    C8    A    
C34   H9    S    
C29   C30   A    
C30   C35   S    
C12   C28   A    
C18   C24   A    
C28   C29   A    
C18   C19   A    
C26   H8    S    
C25   N1    A    
C38   C39   A    
C21   C33   S    
C19   H20   S    
C5    C36   S    
C9    H16   S    
N2    Zn1   S    
C32   C39   A    
C37   C42   S    
C26   N2    A    
C12   C42   A    
C36   H11   S    
C8    C9    A    
O10   Zn1   S    
C35   H7    S    
C1    O1    A    
O9    Zn2   S    
C25   H18   S    
C27   O10   A    
C9    C10   A    
C13   C14   A    
C12   C32   A    
O6    Zn1   S    
O5    Zn2   S    
C7    H14   S    
C6    H12   S    
C27   O11   A    
C20   H2    S    
O1    Zn1   S    
C16   O9    A    
C6    C11   A    
C16   C17   S    
C35   O2    D    
C25   C26   A    
C1    O5    A    
C23   C31   A    
O8    Zn1   S    
C8    H15   S    
C2    C38   A    
C33   O12   D    
C31   C32   A    
C41   H4    S    
C23   C34   A    
C14   H5    S    
C2    H10   S    
C40   C41   A    
C24   N1    A    
C22   C24   A    
C1    C13   S    
C3    C4    S    
C39   C40   A    
C15   C17   A    
C34   C38   A    
C15   H17   S    
C3    C5    A    
C18   H19   S    
C6    C7    A    
C28   H1    S    
C2    C3    A    
C11   C13   A    
C30   C31   A    
O7    Zn2   S    
O11   Zn2   S    
C10   C11   A    
C22   N2    A    
C37   H13   S    
C20   C21   A    
C5    C40   A    
C33   H6    S    
C14   C15   A    
C10   C17   A    
C21   C22   A    
C4    O7    A    
N1    Zn2   S    
