data_mof_unit_43281.cif
_audit_creation_date              2012-12-10T18:02:55-0500
_audit_creation_method            fapswitch 2.2
_symmetry_space_group_name_H-M    P1
_symmetry_Int_Tables_number       1
_space_group_crystal_system       triclinic
_cell_length_a                    10.819898
_cell_length_b                    9.514171
_cell_length_c                    27.824726
_cell_angle_alpha                 89.999981
_cell_angle_beta                  89.942904
_cell_angle_gamma                 90.0
_cell_volume                      2864.34153232

loop_
_atom_site_label
_atom_site_type_symbol
_atom_type_description
_atom_site_fract_x
_atom_site_fract_y
_atom_site_fract_z
_atom_type_partial_charge
C1    C     C_R   0.262062 0.500009 0.499965 0.814746
C2    C     C_R   0.737938 0.500009 0.500035 0.814747
C3    C     C_R   0.508344 0.458278 0.101953 -0.097452
C4    C     C_R   0.491655 0.458277 0.898046 -0.097451
C5    C     C_R   0.397306 0.444168 0.128199 -0.025761
C6    C     C_R   0.602693 0.444166 0.871801 -0.025761
C7    C     C_R   0.285338 0.425477 0.104047 -0.084668
C8    C     C_R   0.714660 0.425473 0.895953 -0.084668
C9    C     C_R   0.622271 0.475832 0.126741 -0.155692
C10   C     C_R   0.377727 0.475832 0.873259 -0.155693
C11   C     C_R   0.498588 0.497672 0.354339 -0.177781
C12   C     C_R   0.501412 0.497671 0.645661 -0.177781
C13   C     C_R   0.384838 0.460244 0.975774 -0.028146
C14   C     C_R   0.615161 0.460242 0.024226 -0.028146
C15   C     C_R   0.611150 0.447781 0.973323 0.069255
C16   C     C_R   0.388849 0.447783 0.026677 0.069256
C17   C     C_R   0.495713 0.455289 0.949141 0.086214
C18   C     C_R   0.504286 0.455290 0.050859 0.086214
C19   C     C_R   0.273133 0.481410 0.950923 -0.258847
C20   C     C_R   0.726866 0.481409 0.049077 -0.258847
C21   C     C_R   0.267047 0.490127 0.900796 0.459806
C22   C     C_R   0.732952 0.490127 0.099204 0.459806
C23   C     C_R   0.497780 0.499993 0.407403 0.866021
C24   C     C_R   0.502220 0.499993 0.592597 0.866023
C25   C     C_R   0.280953 0.427123 0.054317 -0.165344
C26   C     C_R   0.719046 0.427120 0.945682 -0.165344
C27   C     C_R   0.063887 0.372287 0.499964 -0.168899
C28   C     C_R   0.936106 0.627818 0.500057 -0.133256
C29   C     C_R   0.936113 0.372287 0.500036 -0.168899
C30   C     C_R   0.063893 0.627818 0.499943 -0.133256
C31   C     C_R   0.871764 0.500044 0.500068 -0.009841
C32   C     C_R   0.128236 0.500044 0.499932 -0.009842
C33   C     C_R   0.406187 0.074403 0.478832 -0.007503
C34   C     C_R   0.594258 0.925704 0.520839 0.049566
C35   C     C_R   0.593813 0.074403 0.521168 -0.007503
C36   C     C_R   0.405742 0.925704 0.479161 0.049566
C37   C     C_R   0.399906 0.448415 0.178349 0.564847
C38   C     C_R   0.600093 0.448413 0.821651 0.564847
C39   C     C_R   0.618582 0.480362 0.177836 0.610478
C40   C     C_R   0.381417 0.480364 0.822163 0.610478
C41   C     C_R   0.563404 0.375630 0.281664 -0.068191
C42   C     C_R   0.436595 0.375630 0.718336 -0.068191
C43   C     C_R   0.559450 0.385158 0.331547 -0.252666
C44   C     C_R   0.440549 0.385158 0.668453 -0.252666
C45   C     C_R   0.439671 0.601632 0.325732 0.415527
C46   C     C_R   0.560329 0.601631 0.674268 0.415527
C47   C     C_R   0.446525 0.591562 0.275589 -0.142128
C48   C     C_R   0.553476 0.591561 0.724411 -0.142128
C49   C     C_R   0.507191 0.478859 0.253498 0.248214
C50   C     C_R   0.492808 0.478859 0.746502 0.248214
Cu1   Cu    Cu3+1 0.500000 0.640660 0.500000 1.046656
Cu2   Cu    Cu3+1 0.500000 0.359340 0.500000 0.970207
H1    H     H_    0.331258 0.130163 0.461608 0.132037
H2    H     H_    0.669953 0.870097 0.537532 0.170281
H3    H     H_    0.668742 0.130163 0.538392 0.132037
H4    H     H_    0.330047 0.870097 0.462468 0.170282
H5    H     H_    0.403159 0.670409 0.253194 0.202247
H6    H     H_    0.596842 0.670407 0.746806 0.202247
H7    H     H_    0.199680 0.410280 0.123570 0.233828
H8    H     H_    0.800318 0.410275 0.876430 0.233827
H9    H     H_    0.395171 0.304154 0.647548 0.190252
H10   H     H_    0.604828 0.304153 0.352452 0.190252
H11   H     H_    0.390137 0.287602 0.735157 0.173900
H12   H     H_    0.609861 0.287601 0.264843 0.173900
H13   H     H_    0.188635 0.497896 0.970473 0.199381
H14   H     H_    0.811364 0.497893 0.029527 0.199380
H15   H     H_    0.191673 0.407757 0.038463 0.179400
H16   H     H_    0.808326 0.407753 0.961536 0.179400
H17   H     H_    0.111969 0.272415 0.499943 0.149553
H18   H     H_    0.888009 0.727681 0.500118 0.151147
H19   H     H_    0.888031 0.272415 0.500057 0.149553
H20   H     H_    0.111991 0.727681 0.499882 0.151147
N1    N     N_R   0.508838 0.468060 0.201977 -0.467718
N2    N     N_R   0.491162 0.468059 0.798023 -0.467718
N3    N     N_R   0.500000 0.852070 0.500000 -0.175450
N4    N     N_R   0.500000 0.147930 0.500000 -0.172170
O1    O     O_R   0.319640 0.618740 0.500000 -0.586211
O2    O     O_R   0.680360 0.381260 0.500000 -0.604199
O3    O     O_R   0.680360 0.618740 0.500000 -0.586211
O4    O     O_R   0.319640 0.381260 0.500000 -0.604199
O5    O     O_R   0.500020 0.618770 0.430260 -0.515991
O6    O     O_R   0.499980 0.381230 0.569740 -0.587124
O7    O     O_R   0.499980 0.618770 0.569740 -0.515992
O8    O     O_R   0.500020 0.381230 0.430260 -0.587124
O9    O     O_2   0.294028 0.432857 0.203544 -0.495303
O10   O     O_2   0.705970 0.432853 0.796456 -0.495303
O11   O     O_2   0.277683 0.497830 0.796277 -0.432329
O12   O     O_2   0.722317 0.497825 0.203723 -0.432329
S1    S     S_3+6 0.351400 0.741053 0.350229 -0.000065
O13   O     O_2   0.269197 0.686581 0.389632 -0.322616
O14   O     O_2   0.437747 0.850170 0.370123 -0.305044
O15   O     O_3   0.263106 0.815202 0.307441 -0.512518
H21   H     H_    0.220143 0.893775 0.323784 0.382470
S2    S     S_3+6 0.648601 0.741052 0.649771 -0.000065
O16   O     O_2   0.730803 0.686579 0.610367 -0.322619
O17   O     O_2   0.562255 0.850169 0.629877 -0.305042
O18   O     O_3   0.736896 0.815199 0.692558 -0.512517
H22   H     H_    0.779864 0.893768 0.676215 0.382469
S3    S     S_3+6 0.117527 0.521068 0.875916 0.050173
O19   O     O_2   0.081162 0.398536 0.844869 -0.231775
O20   O     O_2   0.022161 0.538534 0.914809 -0.327968
O21   O     O_3   0.120388 0.668842 0.842722 -0.462803
H23   H     H_    0.037650 0.674008 0.827612 0.393873
S4    S     S_3+6 0.882471 0.521070 0.124084 0.050172
O22   O     O_2   0.918839 0.398537 0.155130 -0.231775
O23   O     O_2   0.977837 0.538540 0.085190 -0.327967
O24   O     O_3   0.879608 0.668842 0.157279 -0.462804
H24   H     H_    0.962347 0.674009 0.172389 0.393873

loop_
_geom_bond_atom_site_label_1
_geom_bond_atom_site_label_2
_ccdc_geom_bond_type
C5    C37   A    
C27   C29   A    
C1    O1    A    
C14   C18   A    
C25   H15   S    
S4    O23   D    
O18   H22   S    
C22   S4    S    
C47   C49   A    
C38   O10   S    
C36   H4    S    
C40   O11   S    
C37   O9    S    
C19   C21   A    
C24   O7    A    
Cu1   N3    S    
C50   N2    S    
C21   S3    S    
C9    C22   A    
C9    C39   A    
C33   C36   A    
C8    C26   A    
C3    C18   A    
C10   C40   A    
C34   C35   A    
C7    H7    S    
Cu2   O8    S    
C24   O6    A    
C2    O3    A    
O24   H24   S    
C6    C38   A    
C11   C43   A    
S1    O14   D    
C45   S1    S    
Cu1   O5    S    
C27   H17   S    
C34   N3    A    
C48   C50   A    
C41   C43   A    
S2    O16   D    
C42   C44   A    
C39   O12   S    
Cu2   O2    S    
C41   C49   A    
S4    O22   D    
C45   C47   A    
C10   C21   A    
C33   H1    S    
C46   C48   A    
C35   N4    A    
C23   O8    A    
C13   C19   A    
C35   H3    S    
Cu1   Cu2   S    
C14   C20   A    
C4    C6    A    
C5    C7    A    
C15   C26   A    
C6    C8    A    
S2    O18   S    
Cu2   N4    S    
C1    C32   S    
C2    C31   S    
S2    O17   D    
Cu1   O1    S    
C2    O2    A    
C36   N3    A    
C47   H5    S    
C33   N4    A    
S3    O19   D    
C46   S2    S    
S1    O15   S    
Cu2   O6    S    
C3    C9    A    
C42   C50   A    
C4    C17   A    
C12   C46   A    
S3    O20   D    
C20   C22   A    
C34   H2    S    
C49   N1    S    
C11   C45   A    
C4    C10   A    
Cu1   O7    S    
C38   N2    A    
C20   H14   S    
C16   C25   A    
C15   C17   A    
C37   N1    A    
C23   O5    A    
C27   C32   A    
C28   C31   A    
C28   H18   S    
C3    C5    A    
C30   H20   S    
C48   H6    S    
C44   H9    S    
C12   C24   S    
C7    C25   A    
C13   C17   A    
C26   H16   S    
C28   C30   A    
C29   C31   A    
C8    H8    S    
C30   C32   A    
C11   C23   S    
O15   H21   S    
C40   N2    A    
C19   H13   S    
C39   N1    A    
O21   H23   S    
Cu1   O3    S    
S3    O21   S    
C16   C18   A    
C13   C16   A    
C1    O4    A    
C14   C15   A    
C12   C44   A    
C41   H12   S    
S1    O13   D    
Cu2   O4    S    
C42   H11   S    
S4    O24   S    
C43   H10   S    
C29   H19   S    
