data_mof_unit_37690.cif
_audit_creation_date              2012-12-11T15:39:18-0500
_audit_creation_method            fapswitch 2.2
_symmetry_space_group_name_H-M    P1
_symmetry_Int_Tables_number       1
_space_group_crystal_system       triclinic
_cell_length_a                    17.393138
_cell_length_b                    24.347103
_cell_length_c                    14.905715
_cell_angle_alpha                 90.284331
_cell_angle_beta                  125.495882
_cell_angle_gamma                 89.706904
_cell_volume                      5139.00881281

loop_
_atom_site_label
_atom_site_type_symbol
_atom_type_description
_atom_site_fract_x
_atom_site_fract_y
_atom_site_fract_z
_atom_type_partial_charge
C1    C     C_R   0.355540 0.347676 0.908180 -0.115059
C2    C     C_R   0.645933 0.347522 0.089601 -0.134689
C3    C     C_R   0.853603 0.848004 0.909197 -0.119027
C4    C     C_R   0.143682 0.846982 0.089861 -0.132750
C5    C     C_R   0.318438 0.645363 0.999364 0.054511
C6    C     C_R   0.678428 0.645000 0.995677 0.056129
C7    C     C_R   0.813292 0.136961 0.001843 0.051908
C8    C     C_R   0.158158 0.164411 0.998570 0.057279
C9    C     C_R   0.459281 0.498846 0.285649 0.040960
C10   C     C_R   0.432436 0.499062 0.631579 0.047288
C11   C     C_R   0.065354 0.999218 0.367668 0.045757
C12   C     C_R   0.045971 0.998746 0.720236 0.040307
C13   C     C_R   0.199422 0.500432 0.632029 0.079860
C14   C     C_R   0.826769 0.500011 0.292620 0.071705
C15   C     C_R   0.697577 0.000218 0.633004 0.077523
C16   C     C_R   0.326036 0.000019 0.283983 0.071538
C17   C     C_R   0.073537 0.551469 0.467330 0.172391
C18   C     C_R   0.978271 0.551304 0.384388 0.168794
C19   C     C_R   0.572065 0.051104 0.467644 0.171477
C20   C     C_R   0.477911 0.051218 0.380673 0.170473
C21   C     C_R   0.120430 0.501897 0.516148 0.028220
C22   C     C_R   0.928531 0.501597 0.347171 0.032591
C23   C     C_R   0.618226 0.001497 0.517020 0.029022
C24   C     C_R   0.428140 0.001605 0.340041 0.031463
C25   C     C_R   0.077423 0.452855 0.458252 -0.200953
C26   C     C_R   0.980933 0.452720 0.373303 -0.196891
C27   C     C_R   0.576098 0.952540 0.458008 -0.202446
C28   C     C_R   0.480747 0.952644 0.368934 -0.197896
C29   C     C_3   0.962287 0.603164 0.426124 -0.525828
C30   C     C_3   0.066384 0.603564 0.516124 -0.522922
C31   C     C_3   0.459526 0.102560 0.421621 -0.523053
C32   C     C_3   0.562494 0.102504 0.516012 -0.521079
C33   C     C_R   0.158520 0.685602 0.902286 -0.225308
C34   C     C_R   0.837011 0.685071 0.090990 -0.226105
C35   C     C_R   0.655537 0.180324 0.905960 -0.225900
C36   C     C_R   0.320112 0.199667 0.094223 -0.224191
C37   C     C_R   0.603747 0.225508 0.901574 0.026393
C38   C     C_R   0.386696 0.231300 0.094942 0.032942
C39   C     C_R   0.100948 0.726495 0.899525 0.031681
C40   C     C_R   0.892681 0.727385 0.095695 0.029015
C41   C     C_R   0.642110 0.257926 0.998328 0.066199
C42   C     C_R   0.357918 0.258854 0.996671 0.050106
C43   C     C_R   0.135045 0.756513 0.997880 0.056951
C44   C     C_R   0.856931 0.758936 0.998955 0.060677
C45   C     C_R   0.408438 0.633173 0.090828 -0.130461
C46   C     C_R   0.592695 0.627256 0.905143 -0.132284
C47   C     C_R   0.902955 0.123795 0.093191 -0.128287
C48   C     C_R   0.077272 0.142403 0.907478 -0.135340
C49   C     C_R   0.718494 0.237057 0.099407 -0.195883
C50   C     C_R   0.275866 0.241774 0.896559 -0.178994
C51   C     C_R   0.210756 0.735001 0.098619 -0.190817
C52   C     C_R   0.779003 0.739244 0.897564 -0.188802
C53   C     C_R   0.265402 0.693554 0.100167 -0.161296
C54   C     C_R   0.725297 0.697301 0.894573 -0.163317
C55   C     C_R   0.766859 0.191431 0.102644 -0.166773
C56   C     C_R   0.210487 0.210826 0.896958 -0.166967
C57   C     C_R   0.245588 0.673810 0.000794 0.135232
C58   C     C_R   0.749032 0.674461 0.993074 0.136196
C59   C     C_R   0.741900 0.167059 0.004268 0.136609
C60   C     C_R   0.229262 0.193817 0.997115 0.139592
C61   C     C_R   0.388427 0.547898 0.462852 -0.169347
C62   C     C_R   0.396066 0.547783 0.375581 -0.167083
C63   C     C_R   0.106546 0.047610 0.628112 -0.167600
C64   C     C_R   0.110176 0.047849 0.537858 -0.170507
C65   C     C_R   0.414414 0.498237 0.343066 0.146473
C66   C     C_R   0.398663 0.498395 0.516472 0.141421
C67   C     C_R   0.098799 0.998438 0.482808 0.142779
C68   C     C_R   0.090139 0.998064 0.661818 0.145538
C69   C     C_R   0.402355 0.448344 0.379863 -0.168189
C70   C     C_R   0.394339 0.448427 0.466715 -0.172441
C71   C     C_R   0.104456 0.948405 0.532562 -0.172524
C72   C     C_R   0.100288 0.948226 0.622313 -0.169073
C73   C     C_R   0.484667 0.453300 0.252657 -0.125751
C74   C     C_R   0.451021 0.453711 0.696597 -0.127414
C75   C     C_R   0.047651 0.953811 0.302582 -0.126233
C76   C     C_R   0.017612 0.953268 0.749456 -0.126379
C77   C     C_R   0.248093 0.545687 0.695456 -0.159561
C78   C     C_R   0.769220 0.545510 0.264159 -0.137440
C79   C     C_R   0.746855 0.045600 0.695931 -0.161198
C80   C     C_R   0.268547 0.045609 0.254454 -0.136836
C81   C     C_R   0.491912 0.544871 0.262756 -0.123446
C82   C     C_R   0.449002 0.545076 0.695103 -0.136277
C83   C     C_R   0.050046 0.045183 0.304842 -0.140782
C84   C     C_R   0.014012 0.044990 0.744292 -0.119962
C85   C     C_R   0.244925 0.454424 0.696149 -0.119471
C86   C     C_R   0.769433 0.453775 0.257844 -0.124699
C87   C     C_R   0.744116 0.954289 0.696867 -0.119055
C88   C     C_R   0.269134 0.953817 0.254159 -0.124879
C89   C     C_R   0.312654 0.627895 0.907019 -0.132716
C90   C     C_R   0.681772 0.633227 0.088844 -0.133078
C91   C     C_R   0.810205 0.124295 0.908628 -0.129231
C92   C     C_R   0.168973 0.143112 0.090883 -0.143507
C93   C     C_R   0.445860 0.347535 0.090963 -0.142359
C94   C     C_R   0.559039 0.349300 0.906733 -0.130710
C95   C     C_R   0.941772 0.849159 0.092432 -0.130217
C96   C     C_R   0.054765 0.847956 0.907403 -0.146483
C97   C     C_R   0.388306 0.314931 0.999307 0.053975
C98   C     C_R   0.617016 0.315930 0.997080 0.051591
C99   C     C_R   0.883547 0.816220 0.001277 0.047280
C100  C     C_R   0.111383 0.814558 0.997569 0.057929
H1    H     H_    0.317920 0.335061 0.823111 0.084856
H2    H     H_    0.680346 0.333301 0.173167 0.091576
H3    H     H_    0.817670 0.834505 0.824839 0.087819
H4    H     H_    0.179112 0.833367 0.173934 0.087521
H5    H     H_    0.939590 0.637939 0.367722 0.191443
H6    H     H_    0.081216 0.598275 0.598900 0.199524
H7    H     H_    0.439541 0.137879 0.365015 0.192531
H8    H     H_    0.573913 0.096098 0.596794 0.199533
H9    H     H_    0.920090 0.597085 0.459636 0.201898
H10   H     H_    0.103834 0.638271 0.509005 0.199007
H11   H     H_    0.413616 0.095932 0.450027 0.201565
H12   H     H_    0.601841 0.137475 0.513131 0.195982
H13   H     H_    0.136932 0.664962 0.826606 0.116873
H14   H     H_    0.860092 0.662552 0.165191 0.114958
H15   H     H_    0.631047 0.157746 0.831114 0.118073
H16   H     H_    0.339581 0.179671 0.169386 0.109991
H17   H     H_    0.748927 0.258838 0.176085 0.110831
H18   H     H_    0.254590 0.258181 0.818237 0.107015
H19   H     H_    0.236164 0.754014 0.176544 0.108011
H20   H     H_    0.750969 0.759995 0.820724 0.109733
H21   H     H_    0.327851 0.681467 0.179111 0.101855
H22   H     H_    0.660247 0.687597 0.816109 0.106666
H23   H     H_    0.830160 0.180161 0.181482 0.106236
H24   H     H_    0.143852 0.203142 0.818860 0.103250
H25   H     H_    0.384714 0.587121 0.494395 0.105515
H26   H     H_    0.396888 0.586820 0.341853 0.104420
H27   H     H_    0.106918 0.086660 0.663188 0.107531
H28   H     H_    0.112440 0.087098 0.505957 0.106753
H29   H     H_    0.408972 0.409130 0.350669 0.107798
H30   H     H_    0.395587 0.409274 0.501355 0.108479
H31   H     H_    0.102093 0.909261 0.496605 0.109622
H32   H     H_    0.094889 0.909013 0.651863 0.108431
H33   H     H_    0.441253 0.647591 0.173606 0.081924
H34   H     H_    0.564583 0.630734 0.819170 0.093237
H35   H     H_    0.930815 0.128025 0.178992 0.093026
H36   H     H_    0.039926 0.155620 0.823186 0.080302
H37   H     H_    0.473570 0.410600 0.260444 0.095372
H38   H     H_    0.434433 0.411345 0.670601 0.090697
H39   H     H_    0.063764 0.911397 0.328045 0.092247
H40   H     H_    0.028199 0.910565 0.740199 0.095690
H41   H     H_    0.243696 0.586983 0.666758 0.101489
H42   H     H_    0.789989 0.587244 0.285542 0.098642
H43   H     H_    0.741218 0.086995 0.667008 0.102982
H44   H     H_    0.289339 0.087570 0.265946 0.102149
H45   H     H_    0.495221 0.585970 0.291122 0.083648
H46   H     H_    0.429685 0.586950 0.666856 0.081982
H47   H     H_    0.069131 0.087037 0.333633 0.085271
H48   H     H_    0.017024 0.086661 0.723599 0.084800
H49   H     H_    0.234027 0.412183 0.668812 0.083645
H50   H     H_    0.790165 0.411147 0.267322 0.093193
H51   H     H_    0.733013 0.912023 0.669633 0.085844
H52   H     H_    0.289985 0.911177 0.264524 0.093230
H53   H     H_    0.254497 0.632330 0.821391 0.092444
H54   H     H_    0.732119 0.649045 0.170394 0.084022
H55   H     H_    0.751962 0.129887 0.823351 0.093053
H56   H     H_    0.215461 0.158024 0.174315 0.083719
H57   H     H_    0.490563 0.335225 0.175962 0.114302
H58   H     H_    0.517898 0.338898 0.820641 0.118459
H59   H     H_    0.983493 0.838435 0.178280 0.118426
H60   H     H_    0.010068 0.836596 0.821936 0.117093
H61   H     H_    0.113653 0.413807 0.487119 0.123087
H62   H     H_    0.946708 0.413635 0.338951 0.125993
H63   H     H_    0.611879 0.913426 0.487926 0.124273
H64   H     H_    0.446767 0.913646 0.333213 0.126405
N1    N     N_R   0.394180 0.396910 0.943210 -0.039216
N2    N     N_R   0.605820 0.396910 0.056790 -0.038376
N3    N     N_R   0.894180 0.896910 0.943210 -0.039264
N4    N     N_R   0.105820 0.896910 0.056790 -0.037764
N5    N     N_R   0.450950 0.603070 0.056740 -0.039444
N6    N     N_R   0.549050 0.603070 0.943260 -0.040704
N7    N     N_R   0.950950 0.103070 0.056740 -0.041348
N8    N     N_R   0.049050 0.103070 0.943260 -0.036842
N9    N     N_R   0.525650 0.471570 0.206150 -0.041228
N10   N     N_R   0.474350 0.471570 0.793850 -0.038442
N11   N     N_R   0.025650 0.971570 0.206150 -0.039304
N12   N     N_R   0.974350 0.971570 0.793850 -0.040789
N13   N     N_R   0.319480 0.528420 0.793810 -0.037873
N14   N     N_R   0.680520 0.528420 0.206190 -0.041088
N15   N     N_R   0.819480 0.028420 0.793810 -0.039312
N16   N     N_R   0.180520 0.028420 0.206190 -0.040488
N17   N     N_R   0.525640 0.528390 0.206120 -0.040079
N18   N     N_R   0.474360 0.528390 0.793880 -0.037217
N19   N     N_R   0.025640 0.028390 0.206120 -0.038637
N20   N     N_R   0.974360 0.028390 0.793880 -0.039941
N21   N     N_R   0.319490 0.471590 0.793840 -0.039485
N22   N     N_R   0.680510 0.471590 0.206160 -0.041882
N23   N     N_R   0.819490 0.971590 0.793840 -0.040348
N24   N     N_R   0.180510 0.971590 0.206160 -0.041338
N25   N     N_R   0.394130 0.603080 0.943110 -0.040477
N26   N     N_R   0.605870 0.603080 0.056890 -0.039359
N27   N     N_R   0.894130 0.103080 0.943110 -0.041048
N28   N     N_R   0.105870 0.103080 0.056890 -0.036653
N29   N     N_R   0.450990 0.396900 0.056840 -0.040839
N30   N     N_R   0.549010 0.396900 0.943160 -0.040598
N31   N     N_R   0.950990 0.896900 0.056840 -0.041180
N32   N     N_R   0.049010 0.896900 0.943160 -0.039619
Ni1   Ni    Ni4+2 0.434860 0.434850 0.869700 0.210493
Ni2   Ni    Ni4+2 0.565140 0.434850 0.130300 0.214449
Ni3   Ni    Ni4+2 0.934860 0.934850 0.869700 0.212458
Ni4   Ni    Ni4+2 0.065140 0.934850 0.130300 0.212177
Ni5   Ni    Ni4+2 0.565130 0.565140 0.130240 0.214481
Ni6   Ni    Ni4+2 0.434870 0.565140 0.869760 0.207901
Ni7   Ni    Ni4+2 0.065130 0.065140 0.130240 0.211311
Ni8   Ni    Ni4+2 0.934870 0.065140 0.869760 0.210277
C101  C     C_R   0.513418 0.237677 0.794538 0.109430
C102  C     C_R   0.428869 0.240938 0.786286 -0.150766
C103  C     C_R   0.343661 0.252086 0.684599 -0.126048
C104  C     C_R   0.342229 0.259849 0.590814 -0.102297
C105  C     C_R   0.425876 0.256154 0.598151 -0.114192
C106  C     C_R   0.511148 0.244897 0.699399 -0.165677
H65   H     H_    0.429218 0.234915 0.858423 0.116786
H66   H     H_    0.278517 0.254637 0.678047 0.096449
H67   H     H_    0.276217 0.268557 0.512362 0.098706
H68   H     H_    0.424671 0.262012 0.525394 0.104461
H69   H     H_    0.575526 0.242403 0.703939 0.109794
C107  C     C_R   0.483854 0.233927 0.197842 0.110689
C108  C     C_R   0.562276 0.225353 0.194816 -0.142482
C109  C     C_R   0.653543 0.225136 0.292630 -0.117905
C110  C     C_R   0.667364 0.234275 0.393646 -0.096461
C111  C     C_R   0.589949 0.243419 0.397356 -0.114785
C112  C     C_R   0.498561 0.243042 0.300146 -0.181933
H70   H     H_    0.552576 0.217826 0.117169 0.119407
H71   H     H_    0.713729 0.217307 0.290624 0.107032
H72   H     H_    0.738081 0.234077 0.469105 0.097487
H73   H     H_    0.600676 0.250469 0.475653 0.104414
H74   H     H_    0.439381 0.250216 0.304656 0.105176
C113  C     C_R   0.008636 0.736615 0.793203 0.109901
C114  C     C_R   0.925078 0.736622 0.787368 -0.149941
C115  C     C_R   0.837897 0.745251 0.686389 -0.125500
C116  C     C_R   0.833501 0.753963 0.590921 -0.093420
C117  C     C_R   0.916202 0.753834 0.595910 -0.107647
C118  C     C_R   0.003438 0.745050 0.696416 -0.175607
H75   H     H_    0.927663 0.729724 0.860759 0.121691
H76   H     H_    0.773498 0.744974 0.681646 0.100293
H77   H     H_    0.765940 0.760662 0.512998 0.098173
H78   H     H_    0.912745 0.760495 0.521886 0.104859
H79   H     H_    0.066962 0.745383 0.698983 0.108251
C119  C     C_R   0.983952 0.737630 0.203036 0.113099
C120  C     C_R   0.068585 0.737534 0.211346 -0.151980
C121  C     C_R   0.154800 0.745722 0.313714 -0.119589
C122  C     C_R   0.157073 0.754054 0.408046 -0.100908
C123  C     C_R   0.073226 0.754032 0.400530 -0.126254
C124  C     C_R   0.986999 0.745671 0.298658 -0.172607
H80   H     H_    0.067509 0.730795 0.138826 0.120849
H81   H     H_    0.220124 0.745363 0.320503 0.097321
H82   H     H_    0.223876 0.760349 0.487050 0.099325
H83   H     H_    0.075034 0.760323 0.473682 0.105884
H84   H     H_    0.922549 0.745813 0.294131 0.107211

loop_
_geom_bond_atom_site_label_1
_geom_bond_atom_site_label_2
_ccdc_geom_bond_type
C13   C21   S    
C45   N5    A    
C104  H67   S    
N20   Ni8   S    
C55   C59   A    
C10   C74   A    
C6    C58   S    
C120  C121  A    
N5    N25   A    
N16   Ni7   S    
C47   N7    A    
N10   N18   A    
N2    Ni2   S    
C82   N18   A    
N3    Ni3   S    
C3    N3    A    
C109  H71   S    
C94   C98   A    
C66   C70   A    
C101  C102  A    
N8    N28   A    
C12   C68   S    
C33   C39   A    
C73   H37   S    
C30   H10   S    
C37   C41   A    
C34   C40   A    
C56   H24   S    
C29   H9    S    
C35   C37   A    
C74   N10   A    
C86   H50   S    
C54   C58   A    
C44   C99   S    
C95   C99   A    
N30   Ni1   S    
N15   N23   A    
N24   Ni4   S    
N29   Ni2   S    
C96   C100  A    
C70   H30   S    
N13   N21   A    
C12   C84   A    
C35   C59   A    
C122  C123  A    
C31   H7    S    
C41   C49   A    
C115  H76   S    
N8    Ni8   S    
C107  C112  A    
C111  C112  A    
C40   C119  S    
N16   N24   A    
C27   H63   S    
C110  H72   S    
C48   N8    A    
C96   N32   A    
C102  H65   S    
C49   H17   S    
C19   C20   A    
C25   H61   S    
C104  C105  A    
C80   H44   S    
C67   C71   A    
C51   H19   S    
C78   N14   A    
C117  H78   S    
C8    C92   A    
C23   C27   A    
C90   H54   S    
C29   C30   S    
C32   H12   S    
C2    N2    A    
C39   C113  S    
C95   N31   A    
C63   H27   S    
C47   H35   S    
C33   H13   S    
C44   C52   A    
C15   C23   S    
C113  C118  A    
C54   H22   S    
N9    N17   A    
C16   C24   S    
C87   H51   S    
C30   H6    S    
N7    Ni7   S    
C17   C30   S    
C88   H52   S    
C29   H5    S    
C61   C62   A    
C88   N24   A    
C9    C73   A    
C11   C75   A    
N32   Ni3   S    
C92   N28   A    
C19   C32   S    
C61   C66   A    
C7    C59   S    
C114  C115  A    
C82   H46   S    
C52   C54   A    
C72   H32   S    
C55   H23   S    
C10   C66   S    
C85   N21   A    
C18   C22   A    
C13   C77   A    
N7    N27   A    
C122  H82   S    
C64   C67   A    
C20   C24   A    
C84   N20   A    
C76   N12   A    
C37   C101  S    
C107  C108  A    
C14   C86   A    
C105  C106  A    
C16   C88   A    
C42   C97   S    
C1    C97   A    
C110  C111  A    
C62   H26   S    
C53   C57   A    
C102  C103  A    
C75   H39   S    
C87   N23   A    
C11   C83   A    
C25   C26   A    
C6    C90   A    
C91   N27   A    
C119  C124  A    
C10   C82   A    
C116  C117  A    
C50   C56   A    
C103  C104  A    
N23   Ni3   S    
C51   C53   A    
C7    C47   A    
C84   H48   S    
C19   C23   A    
N18   Ni6   S    
C8    C48   A    
C91   H55   S    
C115  C116  A    
N1    Ni1   S    
N15   Ni8   S    
C46   H34   S    
C77   N13   A    
C93   C97   A    
C89   H53   S    
C113  C114  A    
C1    N1    A    
C68   C72   A    
C7    C91   A    
C9    C65   S    
C64   H28   S    
C17   C18   A    
C83   N19   A    
C116  H77   S    
C92   H56   S    
C18   C29   S    
C43   C100  S    
C93   H57   S    
C114  H75   S    
C120  H80   S    
C46   N6    A    
C42   C50   A    
C83   H47   S    
C52   H20   S    
C69   H29   S    
C96   H60   S    
C86   N22   A    
C1    H1    S    
C81   H45   S    
C50   H18   S    
C12   C76   A    
C22   C26   A    
C118  H79   S    
C95   H59   S    
N14   Ni5   S    
N2    N30   A    
N27   Ni8   S    
C11   C67   S    
C76   H40   S    
C13   C85   A    
C36   H16   S    
C80   N16   A    
C117  C118  A    
C28   H64   S    
N11   N19   A    
N31   Ni4   S    
C90   N26   A    
C3    H3    S    
C108  H70   S    
N12   N20   A    
C75   N11   A    
C21   C25   A    
C119  C120  A    
C16   C80   A    
N10   Ni1   S    
C33   C57   A    
C6    C46   A    
C62   C65   A    
C123  C124  A    
N9    Ni2   S    
C94   N30   A    
C4    N4    A    
N3    N31   A    
C48   H36   S    
C31   C32   S    
N17   Ni5   S    
C24   C28   A    
C38   C107  S    
C36   C60   A    
C49   C55   A    
N1    N29   A    
C39   C43   A    
C103  H66   S    
C112  H74   S    
N26   Ni5   S    
C38   C42   A    
C79   H43   S    
C15   C79   A    
N25   Ni6   S    
C34   H14   S    
C81   N17   A    
N6    N26   A    
C45   H33   S    
C105  H68   S    
C4    C100  A    
C5    C57   S    
C123  H83   S    
N19   Ni7   S    
C14   C22   S    
C78   H42   S    
C108  C109  A    
N4    N32   A    
C71   C72   A    
C53   H21   S    
C89   N25   A    
C8    C60   S    
N13   Ni6   S    
C74   H38   S    
C43   C51   A    
C109  C110  A    
C121  H81   S    
C5    C45   A    
C101  C106  A    
C65   C69   A    
C4    H4    S    
C36   C38   A    
C121  C122  A    
N28   Ni7   S    
C26   H62   S    
C111  H73   S    
C31   H11   S    
C79   N15   A    
C14   C78   A    
C73   N9    A    
C69   C70   A    
N4    Ni4   S    
C85   H49   S    
N11   Ni4   S    
N6    Ni6   S    
N5    Ni5   S    
C63   C64   A    
N14   N22   A    
C3    C99   A    
C40   C44   A    
C56   C60   A    
C35   H15   S    
C2    C98   A    
C71   H31   S    
C94   H58   S    
C124  H84   S    
C32   H8    S    
C15   C87   A    
C93   N29   A    
C27   C28   A    
C34   C58   A    
C2    H2    S    
C41   C98   S    
N22   Ni2   S    
C63   C68   A    
C61   H25   S    
N12   Ni3   S    
N21   Ni1   S    
C77   H41   S    
C5    C89   A    
C106  H69   S    
C9    C81   A    
C20   C31   S    
C17   C21   A    
