data_mof_unit_17461.cif
_audit_creation_date              2012-12-11T15:53:45-0500
_audit_creation_method            fapswitch 2.2
_symmetry_space_group_name_H-M    P1
_symmetry_Int_Tables_number       1
_space_group_crystal_system       triclinic
_cell_length_a                    10.749501
_cell_length_b                    10.672497
_cell_length_c                    17.072408
_cell_angle_alpha                 80.653277
_cell_angle_beta                  99.77834
_cell_angle_gamma                 118.842589
_cell_volume                      1683.35737471

loop_
_atom_site_label
_atom_site_type_symbol
_atom_type_description
_atom_site_fract_x
_atom_site_fract_y
_atom_site_fract_z
_atom_type_partial_charge
C1    C     C_R   0.361887 0.230346 0.627672 0.540876
C2    C     C_R   0.514887 0.713039 0.736373 0.222990
C3    C     C_R   0.492405 0.723706 0.813823 0.364985
C4    C     C_3   0.093357 0.488775 0.772700 0.205751
C5    C     C_3   0.116537 0.477496 0.688928 0.518167
C6    C     C_R   0.398129 0.622304 0.685546 -0.015822
C7    C     C_1   0.850498 0.669682 0.702734 0.028237
C8    C     C_1   0.897340 0.703873 0.769479 -0.027566
C9    C     C_1   0.345727 0.188418 0.710005 -0.024053
C10   C     C_1   0.320193 0.160005 0.778144 -0.028305
C11   C     C_1   0.338897 0.663420 0.277343 0.008388
C12   C     C_R   0.413038 0.621191 0.601925 0.593487
C13   C     C_1   0.327111 0.673364 0.206624 0.032793
C14   C     C_R   0.817446 0.662106 0.154230 -0.005267
C15   C     C_R   0.796926 0.537608 0.204629 -0.030351
C16   C     C_R   0.787260 0.531663 0.283822 -0.117692
C17   C     C_R   0.795325 0.763779 0.265436 0.337191
C18   C     C_R   0.801767 0.770385 0.182868 0.221852
C19   C     C_3   0.875843 0.449160 0.222921 0.456539
C20   C     C_3   0.863146 0.443400 0.310673 0.205218
C21   C     C_R   0.799382 0.647672 0.316935 -0.038975
C22   C     C_R   0.303604 0.120690 0.172589 -0.048387
C23   C     C_R   0.781350 0.621375 0.626217 0.570266
C24   C     C_R   0.194876 0.130825 0.200149 -0.001994
C25   C     C_R   0.195582 0.140143 0.278701 -0.032428
C26   C     C_R   0.393851 0.087734 0.312247 0.235421
C27   C     C_R   0.398863 0.086833 0.230511 0.232783
C28   C     C_3   0.131081 0.229590 0.171727 0.119165
C29   C     C_3   0.132861 0.242304 0.259067 -0.213808
C30   C     C_R   0.307079 0.139008 0.334184 -0.050327
C31   C     C_R   0.947414 0.724965 0.851752 0.531519
C32   C     C_R   0.315946 0.704725 0.899042 0.564113
C33   C     C_R   0.283647 0.113691 0.857595 0.538953
C34   C     C_R   0.347634 0.220482 0.402420 0.528415
C35   C     C_R   0.885147 0.690264 0.082719 0.615302
C36   C     C_R   0.313878 0.700451 0.123577 0.601616
C37   C     C_R   0.281601 0.098549 0.088664 0.562740
C38   C     C_R   0.366167 0.653780 0.360475 0.555801
C39   C     C_R   0.768721 0.621426 0.398561 0.564792
C40   C     C_R   0.353379 0.648898 0.838599 -0.026416
C41   C     C_R   0.249593 0.537573 0.794539 -0.095550
C42   C     C_R   0.271375 0.525574 0.719080 -0.061823
Cr1   Cr    Cr6+3 0.608440 0.389080 0.519680 1.104236
Cr2   Cr    Cr6+3 0.288640 0.400090 0.490760 1.058047
Cr3   Cr    Cr6+3 0.602940 0.710800 0.489510 1.156510
Cr4   Cr    Cr6+3 0.052530 0.947560 0.964210 1.137519
Cr5   Cr    Cr6+3 0.059970 0.626800 0.992920 1.062051
Cr6   Cr    Cr6+3 0.373320 0.938440 0.995370 1.097484
H1    H     H_    0.966265 0.500595 0.347872 0.142823
H2    H     H_    0.022212 0.175951 0.139741 0.201218
H3    H     H_    0.207386 0.351681 0.277318 0.142298
H4    H     H_    0.024001 0.194565 0.278210 0.200904
H5    H     H_    0.060488 0.571389 0.776227 0.122054
O1    O     O_R   0.754020 0.497590 0.609930 -0.471343
O2    O     O_R   0.295080 0.533620 0.397890 -0.529530
O3    O     O_R   0.485280 0.746620 0.388440 -0.418728
O4    O     O_R   0.720550 0.696220 0.420010 -0.435169
O5    O     O_3   0.500010 0.499990 0.499980 -0.323910
O6    O     O_R   0.163320 0.092900 0.874450 -0.489768
O7    O     O_R   0.934650 0.822080 0.882840 -0.450090
O8    O     O_R   0.915520 0.604140 0.893670 -0.514459
O9    O     O_R   0.191760 0.638110 0.923230 -0.544115
O10   O     O_R   0.406180 0.826930 0.920660 -0.426157
O11   O     O_R   0.358620 0.062870 0.901950 -0.495614
O12   O     O_R   0.481420 0.271390 0.600630 -0.484325
O13   O     O_R   0.163910 0.085460 0.050210 -0.470951
O14   O     O_R   0.935200 0.815170 0.045770 -0.431858
O15   O     O_R   0.916120 0.596690 0.069430 -0.493306
O16   O     O_R   0.192310 0.631200 0.086170 -0.439854
O17   O     O_R   0.406770 0.819480 0.096420 -0.472091
O18   O     O_R   0.359170 0.055960 0.064880 -0.512034
O19   O     O_3   0.161940 0.837600 0.984160 -0.317522
O20   O     O_R   0.263810 0.254550 0.589590 -0.502003
O21   O     O_R   0.300820 0.531200 0.560890 -0.501751
O22   O     O_R   0.491480 0.744020 0.564270 -0.444340
O23   O     O_R   0.726290 0.693800 0.583010 -0.486010
O24   O     O_R   0.747830 0.500190 0.434090 -0.489972
O25   O     O_R   0.475680 0.273800 0.437630 -0.484032
O26   O     O_R   0.257620 0.257160 0.413750 -0.503567
O27   O     O_3   0.646072 0.796719 0.707404 -0.664764
H6    H     H_    0.716018 0.856046 0.749188 0.385126
O28   O     O_3   0.800950 0.315099 0.191541 -0.679944
H7    H     H_    0.807464 0.334128 0.133187 0.343747
O29   O     O_3   0.776140 0.305203 0.345461 -0.593283
H8    H     H_    0.680092 0.269193 0.315313 0.393473
O30   O     O_3   0.480843 0.047621 0.367630 -0.603700
H9    H     H_    0.448446 0.031425 0.421074 0.332872
O31   O     O_3   0.498119 0.054418 0.210427 -0.588147
H10   H     H_    0.544179 0.123995 0.165385 0.355526
O32   O     O_3   0.222808 0.358600 0.129993 -0.687228
H11   H     H_    0.319277 0.398400 0.160305 0.313514
F1    F     F_    0.602509 0.817345 0.861163 -0.597785
O33   O     O_3   0.010444 0.354817 0.812762 -0.649252
H12   H     H_    0.003064 0.374847 0.866058 0.343658
O34   O     O_3   0.042175 0.337063 0.664343 -0.606116
H13   H     H_    0.080856 0.276801 0.698955 0.348769
O35   O     O_3   0.095005 0.579189 0.632874 -0.697465
H14   H     H_    0.078253 0.546279 0.579197 0.371412
F2    F     F_    0.790738 0.871974 0.295211 -0.601837
O36   O     O_3   0.802145 0.884176 0.130770 -0.659654
H15   H     H_    0.786378 0.947923 0.159538 0.376259
O37   O     O_3   0.018105 0.524551 0.206797 -0.699450
H16   H     H_    0.057238 0.456204 0.223500 0.333028

loop_
_geom_bond_atom_site_label_1
_geom_bond_atom_site_label_2
_ccdc_geom_bond_type
C5    C42   S    
O33   H12   S    
C12   O21   A    
C4    H5    S    
C41   C42   A    
C14   C18   A    
C19   C20   S    
C23   O23   A    
Cr5   O9    S    
O35   H14   S    
C7    C8    T    
Cr1   O25   S    
C15   C19   S    
Cr3   O4    S    
C26   C27   A    
C16   C21   A    
Cr3   O23   S    
C39   O24   A    
C28   C29   S    
Cr4   O13   S    
C6    C12   S    
Cr4   O6    S    
C19   O37   S    
Cr6   O11   S    
C4    C41   S    
C15   C16   A    
C39   O4    A    
C31   O8    A    
Cr5   O16   S    
Cr1   O5    S    
C28   H2    S    
C38   O2    A    
O34   H13   S    
Cr3   O3    S    
Cr2   O5    S    
C1    O12   A    
C19   O28   S    
C9    C10   T    
Cr4   O19   S    
C16   C20   S    
C33   O6    A    
C2    C6    A    
C18   O36   S    
Cr6   O19   S    
C5    O34   S    
C36   O17   A    
C25   C29   S    
Cr3   O5    S    
C30   C34   S    
O37   H16   S    
C1    C9    S    
C24   C25   A    
C13   C36   S    
C14   C35   S    
O30   H9    S    
C4    C5    S    
Cr6   O10   S    
C26   O30   S    
C22   C37   S    
C17   C21   A    
C3    F1    S    
C31   O7    A    
C11   C38   S    
C20   H1    S    
C34   O26   A    
Cr1   O1    S    
C21   C39   S    
C35   O14   A    
Cr1   O12   S    
C37   O13   A    
C17   C18   A    
O29   H8    S    
Cr2   O21   S    
C17   F2    S    
C40   C41   A    
C5    O35   S    
C3    C40   A    
C26   C30   A    
C22   C27   A    
C37   O18   A    
C22   C24   A    
Cr6   O18   S    
Cr5   O15   S    
C36   O16   A    
C23   O1    A    
C29   H3    S    
C25   C30   A    
Cr4   O7    S    
C8    C31   S    
Cr2   O26   S    
C24   C28   S    
C32   O10   A    
Cr6   O17   S    
O27   H6    S    
Cr5   O8    S    
Cr1   O24   S    
Cr3   O22   S    
C1    O20   A    
C20   O29   S    
C2    C3    A    
C32   O9    A    
Cr4   O14   S    
C34   O25   A    
C11   C13   T    
Cr2   O2    S    
O32   H11   S    
C35   O15   A    
C33   O11   A    
C7    C23   S    
O36   H15   S    
C10   C33   S    
C32   C40   S    
C27   O31   S    
Cr5   O19   S    
C2    O27   S    
C4    O33   S    
C38   O3    A    
O31   H10   S    
O28   H7    S    
C6    C42   A    
C12   O22   A    
C14   C15   A    
C28   O32   S    
C29   H4    S    
Cr2   O20   S    
