data_mof_unit_14371.cif
_audit_creation_date              2012-12-11T18:13:29-0500
_audit_creation_method            fapswitch 2.2
_symmetry_space_group_name_H-M    P1
_symmetry_Int_Tables_number       1
_space_group_crystal_system       triclinic
_cell_length_a                    8.198507
_cell_length_b                    12.607061
_cell_length_c                    18.702798
_cell_angle_alpha                 99.227704
_cell_angle_beta                  91.347993
_cell_angle_gamma                 98.374769
_cell_volume                      1885.56401536

loop_
_atom_site_label
_atom_site_type_symbol
_atom_type_description
_atom_site_fract_x
_atom_site_fract_y
_atom_site_fract_z
_atom_type_partial_charge
Ba1   Ba    Ba6+2 0.852780 0.548340 0.465070 1.638357
Ba2   Ba    Ba6+2 0.337060 0.451750 0.534940 1.638769
C1    C     C_3   0.540692 0.870205 0.227554 -0.435480
C2    C     C_R   0.893035 0.396366 0.095953 0.034444
C3    C     C_R   0.731037 0.348603 0.072746 -0.083940
C4    C     C_3   0.120190 0.761214 0.264823 0.375807
C5    C     C_R   0.669724 0.353323 0.003102 -0.089580
C6    C     C_R   0.770162 0.404151 0.954803 0.032128
C7    C     C_R   0.932819 0.452626 0.977395 0.013820
C8    C     C_R   0.710755 0.405484 0.884099 -0.109235
C9    C     C_R   0.812948 0.451683 0.833883 -0.042529
C10   C     C_R   0.975531 0.503130 0.856855 -0.004889
C11   C     C_R   0.034375 0.503657 0.928987 -0.008272
C12   C     C_3   0.618835 0.821555 0.286771 0.338151
C13   C     C_R   0.758956 0.445813 0.760854 -0.005226
C14   C     C_R   0.867453 0.486702 0.711674 -0.298167
C15   C     C_R   0.024568 0.543430 0.733796 0.044678
C16   C     C_3   0.099233 0.786594 0.188569 -0.372295
C17   C     C_R   0.079619 0.553471 0.807919 -0.045540
C18   C     C_R   0.155471 0.498979 0.071871 -0.007682
C19   C     C_R   0.213971 0.500135 0.144157 -0.006002
C20   C     C_R   0.109781 0.450368 0.193249 -0.049112
C21   C     C_R   0.953938 0.392983 0.166247 -0.039924
C22   C     C_R   0.236359 0.609738 0.834578 -0.043168
C23   C     C_3   0.456611 0.284055 0.313246 0.300733
C24   C     C_R   0.297378 0.605713 0.904780 0.033961
C25   C     C_R   0.196331 0.552635 0.952265 0.006552
C26   C     C_R   0.257318 0.549454 0.023339 0.014695
C27   C     C_R   0.459785 0.652589 0.927897 -0.084365
C28   C     C_3   0.237160 0.787701 0.619241 0.277456
C29   C     C_R   0.521251 0.647307 0.997397 -0.090518
C30   C     C_R   0.420447 0.596965 0.045747 0.033810
C31   C     C_R   0.376744 0.550895 0.166953 -0.044670
C32   C     C_R   0.479914 0.595284 0.116365 -0.116715
C33   C     C_R   0.430279 0.557551 0.240080 -0.009124
C34   C     C_3   0.395074 0.246036 0.234441 -0.407635
C35   C     C_R   0.321617 0.517429 0.289609 -0.294680
C36   C     C_R   0.164203 0.461146 0.267634 0.058455
C37   C     C_R   0.767342 0.181692 0.523067 -0.269846
C38   C     C_R   0.427610 0.806927 0.469125 -0.282027
C39   C     C_R   0.402264 0.983981 0.441695 -0.109635
C40   C     C_3   0.251258 0.910617 0.634472 -0.345006
C41   C     C_R   0.337037 0.875638 0.439151 -0.014795
C42   C     C_R   0.577258 0.847833 0.508134 0.070430
C43   C     C_R   0.642417 0.959893 0.514413 -0.054981
C44   C     C_R   0.554464 0.027800 0.479155 -0.062185
C45   C     C_3   0.062296 0.238158 0.734284 0.363181
C46   C     C_R   0.619045 0.138616 0.483933 0.031020
C47   C     C_R   0.857181 0.115757 0.555924 -0.010595
C48   C     C_R   0.792876 0.006268 0.553803 -0.089589
C49   C     C_3   0.900166 0.192697 0.340904 0.345842
C50   C     C_3   0.791767 0.131578 0.275635 -0.341986
C51   C     C_3   0.729090 0.707628 0.683168 0.315122
C52   C     C_3   0.750979 0.746313 0.764620 -0.406465
C53   C     C_3   0.967508 0.110671 0.380943 -0.314978
C54   C     C_3   0.083263 0.214338 0.810892 -0.366380
C55   C     C_3   0.560947 0.177374 0.700632 0.345903
C56   C     C_3   0.615632 0.097287 0.745547 -0.416583
C57   C     C_R   0.993734 0.449709 0.048519 0.005596
H1    H     H_    0.700958 0.887302 0.322788 0.060991
H2    H     H_    0.628638 0.637036 0.672585 0.065359
H3    H     H_    0.463737 0.930785 0.252078 0.097347
H4    H     H_    0.857300 0.812959 0.776852 0.127939
H5    H     H_    0.773900 0.678696 0.792882 0.058056
H6    H     H_    0.637585 0.776740 0.785243 0.117418
H7    H     H_    0.520339 0.789210 0.320798 -0.045107
H8    H     H_    0.461531 0.805436 0.189716 0.114295
H9    H     H_    0.361082 0.324587 0.342832 0.047160
H10   H     H_    0.571568 0.343011 0.314887 0.050151
H11   H     H_    0.273178 0.193712 0.231755 0.148846
H12   H     H_    0.334551 0.943367 0.682856 0.114720
H13   H     H_    0.383145 0.316779 0.207457 0.058566
H14   H     H_    0.482432 0.198512 0.204173 0.108209
H15   H     H_    0.638049 0.910342 0.196367 0.123987
H16   H     H_    0.178140 0.864154 0.183476 0.111601
H17   H     H_    0.146536 0.313925 0.729925 0.096751
H18   H     H_    0.932884 0.250594 0.725042 -0.071635
H19   H     H_    0.214079 0.207388 0.823100 0.149669
H20   H     H_    0.046835 0.280978 0.850594 0.071495
H21   H     H_    0.004641 0.136915 0.816552 0.110861
H22   H     H_    0.670855 0.212581 0.673871 -0.055307
H23   H     H_    0.301828 0.945855 0.587688 0.079725
H24   H     H_    0.469618 0.133017 0.657380 0.077446
H25   H     H_    0.710210 0.140549 0.787712 0.113869
H26   H     H_    0.668887 0.032859 0.710123 0.096615
H27   H     H_    0.035647 0.685462 0.268836 0.099223
H28   H     H_    0.509155 0.059367 0.772967 0.128721
H29   H     H_    0.651026 0.308404 0.108759 0.059089
H30   H     H_    0.543972 0.316162 0.986751 0.070350
H31   H     H_    0.825819 0.478613 0.655473 0.070030
H32   H     H_    0.585112 0.368173 0.868630 0.108173
H33   H     H_    0.875314 0.347964 0.199900 0.085371
H34   H     H_    0.127682 0.934324 0.644731 0.144197
H35   H     H_    0.315130 0.654615 0.800735 0.096294
H36   H     H_    0.540046 0.692587 0.891976 0.061795
H37   H     H_    0.647344 0.683810 0.013634 0.069893
H38   H     H_    0.605996 0.631799 0.131684 0.105460
H39   H     H_    0.249258 0.747848 0.273779 -0.079190
H40   H     H_    0.363663 0.524923 0.345700 0.072181
H41   H     H_    0.329494 0.033101 0.415830 0.104793
H42   H     H_    0.863435 0.958994 0.582232 0.101511
H43   H     H_    0.817417 0.266490 0.525114 0.072570
H44   H     H_    0.376065 0.722194 0.466028 0.069722
H45   H     H_    0.828286 0.243026 0.378300 0.015592
H46   H     H_    0.135248 0.720445 0.148333 0.070768
H47   H     H_    0.968723 0.794207 0.176447 0.150482
H48   H     H_    0.359291 0.764911 0.606643 0.008352
H49   H     H_    0.148532 0.756974 0.572161 0.074540
H50   H     H_    0.039329 0.154341 0.430405 0.125090
H51   H     H_    0.865820 0.051933 0.396518 0.063850
H52   H     H_    0.050503 0.064742 0.346242 0.147807
H53   H     H_    0.744250 0.190397 0.245643 0.094186
H54   H     H_    0.687285 0.077846 0.293597 0.099229
H55   H     H_    0.864020 0.080948 0.238168 0.108551
H56   H     H_    0.845733 0.683316 0.662747 0.013651
O1    O     O_2   0.873090 0.425890 0.325140 -0.488627
O2    O     O_2   0.197940 0.120974 0.552878 -0.481819
O3    O     O_3   0.101111 0.150396 0.684697 -0.602143
O4    O     O_3   0.122420 0.434370 0.414380 -0.471981
O5    O     O_3   0.578370 0.633800 0.536380 -0.489908
O6    O     O_2   0.341510 0.231850 0.465510 -0.446590
O7    O     O_3   0.487772 0.193723 0.343349 -0.658000
O8    O     O_2   0.417935 0.452064 0.757130 -0.497861
O9    O     O_3   0.485384 0.254523 0.745985 -0.598202
O10   O     O_3   0.659500 0.627100 0.368810 -0.464531
O11   O     O_2   0.767639 0.544293 0.243386 -0.497360
O12   O     O_3   0.689733 0.793352 0.650416 -0.644424
O13   O     O_3   0.034372 0.253598 0.314638 -0.644880
O14   O     O_3   0.715669 0.744897 0.254728 -0.591617
O15   O     O_2   0.848200 0.768190 0.534530 -0.471785
O16   O     O_3   0.081160 0.685950 0.404810 -0.489253
O17   O     O_2   0.000644 0.880405 0.450024 -0.478046
O18   O     O_3   0.082154 0.848333 0.315199 -0.598615
O19   O     O_2   0.316610 0.574140 0.674900 -0.470337
O20   O     O_3   0.067290 0.565720 0.585630 -0.493818
O21   O     O_3   0.530210 0.372990 0.631200 -0.464176
O22   O     O_3   0.184393 0.747419 0.681494 -0.639204
O23   O     O_3   0.611340 0.366290 0.463630 -0.480065
O24   O     O_3   0.108550 0.314140 0.595200 -0.480488
P1    P     P_3+3 0.041040 0.394770 0.336330 0.976695
P2    P     P_3+3 0.672880 0.754030 0.556100 0.969492
P3    P     P_3+3 0.125697 0.824316 0.402772 0.955356
P4    P     P_3+3 0.148670 0.605320 0.663680 0.972058
P5    P     P_3+3 0.064851 0.174380 0.596457 0.953767
P6    P     P_3+3 0.641908 0.616490 0.275249 0.951848
P7    P     P_3+3 0.519529 0.230839 0.437345 0.929052
P8    P     P_3+3 0.548676 0.384033 0.724920 0.949041

loop_
_geom_bond_atom_site_label_1
_geom_bond_atom_site_label_2
_ccdc_geom_bond_type
C14   H31   S    
C16   H16   S    
C28   H48   S    
C40   H34   S    
C40   H23   S    
C56   H28   S    
C5    C6    A    
C52   H6    S    
C51   C52   S    
O18   P3    S    
Ba2   O19   S    
C54   H20   S    
O4    P1    S    
C4    H39   S    
C33   C35   A    
Ba1   O10   S    
C45   H17   S    
C4    O18   S    
O3    P5    S    
O12   P2    S    
C1    H3    S    
C19   C31   A    
C52   H4    S    
C50   H53   S    
C29   H37   S    
C20   C36   A    
C47   P5    S    
C32   H38   S    
C54   H19   S    
C10   C17   A    
Ba1   Ba2   S    
Ba1   O4    S    
O15   P2    D    
C1    H15   S    
C7    C11   A    
C51   O12   S    
C31   C33   A    
O19   P4    D    
C3    H29   S    
C51   H2    S    
C38   C41   A    
Ba2   O24   S    
C6    C7    A    
C46   P7    S    
C39   C44   A    
C55   H24   S    
Ba1   O1    S    
C23   O7    S    
O14   P6    S    
C53   H52   S    
O20   P4    S    
O22   P4    S    
C28   O22   S    
C19   C20   A    
C53   H50   S    
Ba2   P4    S    
C39   C41   A    
C23   H9    S    
C9    C13   A    
O11   P6    D    
C34   H11   S    
C45   O3    S    
O17   P3    D    
C4    C16   S    
O9    P8    S    
C44   C46   A    
C49   C50   S    
Ba2   O23   S    
C26   C30   A    
O2    P5    D    
Ba1   O15   S    
C8    C9    A    
C3    C5    A    
C2    C21   A    
Ba2   O5    S    
C42   P2    S    
C18   C26   A    
C49   H45   S    
C43   C44   A    
Ba2   O21   S    
C7    C57   A    
Ba1   O5    S    
C30   C32   A    
C16   H47   S    
C35   C36   A    
C22   H35   S    
O24   P5    S    
C29   C30   A    
Ba2   O4    S    
C31   C32   A    
C12   H7    S    
C39   H41   S    
C10   C11   A    
C18   C57   A    
Ba1   P1    S    
C1    C12   S    
C48   H42   S    
O16   P3    S    
C37   C47   A    
C45   C54   S    
O8    P8    D    
C8    H32   S    
C53   H51   S    
C24   C25   A    
C55   H22   S    
C23   H10   S    
C49   O13   S    
C56   H26   S    
C35   H40   S    
C42   C43   A    
C37   H43   S    
C27   H36   S    
Ba2   O6    S    
C33   P6    S    
C36   P1    S    
C28   H49   S    
C20   C21   A    
C28   C40   S    
C1    H8    S    
O5    P2    S    
C22   C24   A    
C2    C3    A    
Ba1   O16   S    
C54   H21   S    
C51   H56   S    
C9    C10   A    
C50   H55   S    
C12   H1    S    
Ba2   O20   S    
C4    H27   S    
C15   P4    S    
C17   C22   A    
O13   P1    S    
C16   H46   S    
C27   C29   A    
O10   P6    S    
C55   O9    S    
C13   P8    S    
C55   C56   S    
C14   C15   A    
C52   H5    S    
C43   C48   A    
O23   P7    S    
C50   H54   S    
C2    C57   A    
C40   H12   S    
C15   C17   A    
C49   C53   S    
O7    P7    S    
C56   H25   S    
O21   P8    S    
Ba1   P2    S    
C34   H14   S    
C23   C34   S    
O6    P7    D    
C34   H13   S    
C38   C42   A    
C18   C19   A    
C24   C27   A    
C6    C8    A    
C47   C48   A    
C25   C26   A    
C45   H18   S    
C21   H33   S    
C11   C25   A    
C41   P3    S    
O1    P1    D    
Ba1   O20   S    
Ba1   O23   S    
C13   C14   A    
C37   C46   A    
C38   H44   S    
C12   O14   S    
C5    H30   S    
