data_mof_unit_18153.cif
_audit_creation_date              2012-12-11T17:01:18-0500
_audit_creation_method            fapswitch 2.2
_symmetry_space_group_name_H-M    P1
_symmetry_Int_Tables_number       1
_space_group_crystal_system       triclinic
_cell_length_a                    19.401461
_cell_length_b                    7.101604
_cell_length_c                    17.597394
_cell_angle_alpha                 90.094788
_cell_angle_beta                  108.566988
_cell_angle_gamma                 89.885723
_cell_volume                      2298.39405191

loop_
_atom_site_label
_atom_site_type_symbol
_atom_type_description
_atom_site_fract_x
_atom_site_fract_y
_atom_site_fract_z
_atom_type_partial_charge
O1    O     O_R   0.413720 0.494330 0.415730 -0.535844
O2    O     O_R   0.586280 0.994330 0.584270 -0.542037
O3    O     O_R   0.560210 0.819300 0.430070 -0.546576
O4    O     O_R   0.439790 0.319300 0.569930 -0.515188
C1    C     C_R   0.581881 0.655005 0.414859 0.802062
C2    C     C_R   0.417750 0.155816 0.584696 0.800743
O5    O     O_R   0.412670 0.823730 0.406310 -0.537357
O6    O     O_R   0.587330 0.323730 0.593690 -0.530673
O7    O     O_R   0.437690 0.998790 0.560340 -0.544070
O8    O     O_R   0.562310 0.498790 0.439660 -0.507871
C3    C     C_R   0.385369 0.655235 0.383512 0.745214
C4    C     C_R   0.614621 0.155173 0.616504 0.751335
O9    O     O_3   0.508380 0.662350 0.550560 -0.384093
O10   O     O_3   0.491620 0.162350 0.449440 -0.380227
V1    V     V_3+5 0.498450 0.935370 0.490620 1.535922
V2    V     V_3+5 0.501550 0.435370 0.509380 1.593518
C5    C     C_R   0.733936 0.999280 0.689932 0.113963
C6    C     C_R   0.265952 0.500214 0.310294 0.127777
C7    C     C_R   0.684445 0.147356 0.683102 -0.231040
C8    C     C_R   0.315530 0.647524 0.316932 -0.236033
C9    C     C_R   0.705079 0.293213 0.740231 -0.210896
C10   C     C_R   0.294949 0.792761 0.259618 -0.216881
H1    H     H_    0.669146 0.411834 0.736962 0.145738
H2    H     H_    0.330906 0.910915 0.262770 0.147546
C11   C     C_R   0.769731 0.281083 0.805729 0.591094
C12   C     C_R   0.230311 0.780515 0.194099 0.591023
C13   C     C_R   0.816862 0.124398 0.814821 -0.204123
C14   C     C_R   0.183151 0.624330 0.185159 -0.203140
C15   C     C_R   0.798518 0.988395 0.753910 -0.086199
C16   C     C_R   0.201400 0.489219 0.246308 -0.089386
C17   C     C_3   0.792442 0.780162 0.760200 -0.393107
C18   C     C_3   0.207266 0.280673 0.240540 -0.400239
C19   C     C_3   0.722197 0.791902 0.690382 0.515008
C20   C     C_3   0.277501 0.292561 0.310385 0.521818
H3    H     H_    0.783922 0.739310 0.817386 0.195002
H4    H     H_    0.215782 0.238049 0.183489 0.196307
H5    H     H_    0.836841 0.703843 0.745847 0.212909
H6    H     H_    0.162773 0.205804 0.255054 0.212729
H7    H     H_    0.672674 0.751684 0.705297 0.022303
H8    H     H_    0.327007 0.250775 0.295623 0.020072
C21   C     C_R   0.320591 0.303032 0.632281 0.589079
C22   C     C_R   0.676385 0.487317 0.368761 0.584127
C23   C     C_R   0.367235 0.149557 0.632838 -0.189651
C24   C     C_R   0.631611 0.646093 0.365780 -0.188380
C25   C     C_R   0.365270 0.990152 0.679493 -0.280387
C26   C     C_R   0.635401 0.799257 0.316517 -0.281747
C27   C     C_R   0.318714 0.984111 0.726381 0.099901
C28   C     C_R   0.682421 0.795072 0.270277 0.095103
C29   C     C_R   0.272272 0.137952 0.725572 -0.025110
C30   C     C_R   0.727302 0.636629 0.273886 -0.022726
C31   C     C_R   0.272884 0.297416 0.678009 -0.032709
C32   C     C_R   0.724454 0.482473 0.323420 -0.030429
C33   C     C_R   0.318009 0.827079 0.774455 -0.151040
C34   C     C_R   0.685330 0.946870 0.220392 -0.153664
C35   C     C_R   0.271267 0.821450 0.820761 -0.196075
C36   C     C_R   0.732782 0.942731 0.174921 -0.195910
C37   C     C_R   0.224304 0.972657 0.819799 0.085660
C38   C     C_R   0.778142 0.786630 0.178452 0.090516
C39   C     C_R   0.225058 0.132217 0.772409 0.090964
C40   C     C_R   0.775204 0.632464 0.227885 0.091154
C41   C     C_R   0.178699 0.286087 0.771839 0.097855
C42   C     C_R   0.820030 0.474008 0.231297 0.094506
C43   C     C_R   0.179121 0.442779 0.723623 -0.208896
C44   C     C_R   0.817368 0.322471 0.281270 -0.205990
C45   C     C_R   0.225601 0.448316 0.677078 -0.115202
C46   C     C_R   0.770111 0.326598 0.326896 -0.117469
C47   C     C_R   0.176756 0.967224 0.865505 -0.194846
C48   C     C_R   0.826013 0.781526 0.133079 -0.207399
C49   C     C_R   0.130859 0.120939 0.865926 -0.081111
C50   C     C_R   0.870167 0.622684 0.135276 -0.075853
C51   C     C_R   0.132579 0.280441 0.819242 -0.219084
C52   C     C_R   0.866677 0.469489 0.184632 -0.209531
H9    H     H_    0.400907 0.871810 0.680331 0.164508
H10   H     H_    0.601210 0.921762 0.313596 0.166333
H11   H     H_    0.271634 0.698188 0.857105 0.136484
H12   H     H_    0.734173 0.062129 0.137170 0.136832
H13   H     H_    0.176277 0.844204 0.901752 0.137852
H14   H     H_    0.827879 0.899879 0.094944 0.129939
H15   H     H_    0.143685 0.561815 0.722168 0.140868
H16   H     H_    0.851624 0.199937 0.284780 0.142054
H17   H     H_    0.224743 0.571895 0.640784 0.193567
H18   H     H_    0.769165 0.206750 0.364551 0.193619
O11   O     O_R   0.937800 0.775460 0.060470 -0.546417
O12   O     O_R   0.062200 0.275460 0.939530 -0.545250
O13   O     O_R   0.087350 0.441340 0.093710 -0.545274
O14   O     O_R   0.912650 0.941340 0.906290 -0.545521
C53   C     C_R   0.115188 0.610304 0.115886 0.753660
C54   C     C_R   0.884813 0.110370 0.884108 0.753222
O15   O     O_R   0.939820 0.446010 0.069950 -0.540921
O16   O     O_R   0.060180 0.946010 0.930050 -0.541926
O17   O     O_R   0.913690 0.271230 0.915700 -0.504208
O18   O     O_R   0.086310 0.771230 0.084300 -0.504817
C55   C     C_R   0.918867 0.614564 0.085177 0.730598
C56   C     C_R   0.081454 0.114077 0.915195 0.730379
O19   O     O_3   0.991670 0.603050 0.949510 -0.376346
O20   O     O_3   0.008330 0.103050 0.050490 -0.375983
V3    V     V_3+5 0.001550 0.329940 0.009370 1.491431
V4    V     V_3+5 0.998450 0.829940 0.990630 1.489452
H19   H     H_    0.097181 0.399061 0.818805 0.130984
H20   H     H_    0.900704 0.346795 0.187263 0.131042
F1    F     F_    0.782877 0.415054 0.863576 -0.714076
F2    F     F_    0.217188 0.913864 0.136125 -0.715327
F3    F     F_    0.727916 0.707366 0.621702 -0.646776
F4    F     F_    0.271648 0.209986 0.379262 -0.643529
F5    F     F_    0.320379 0.456262 0.585946 -0.675710
F6    F     F_    0.674645 0.339426 0.417106 -0.678346
H21   H     H_    0.353433 0.707977 0.775995 0.132692
H22   H     H_    0.651092 0.069463 0.216805 0.132155

loop_
_geom_bond_atom_site_label_1
_geom_bond_atom_site_label_2
_ccdc_geom_bond_type
C43   C45   A    
C36   H12   S    
C13   C15   A    
C5    C15   A    
C47   H13   S    
O2    C4    A    
C2    O7    A    
O19   V4    S    
O18   V4    S    
C27   C29   A    
C43   H15   S    
O5    C3    A    
C19   H7    S    
C21   F5    S    
C20   H8    S    
O12   V3    S    
C18   H4    S    
C25   H9    S    
C7    C9    A    
O14   C54   A    
C37   C39   A    
C38   C40   A    
O11   C55   A    
C40   C42   A    
C31   C45   A    
C25   C27   A    
C49   C51   A    
C42   C44   A    
C44   H16   S    
C29   C31   A    
O11   V4    S    
O20   V4    S    
C30   C32   A    
C17   C19   S    
C6    C16   A    
C18   H6    S    
C6    C8    A    
C27   C33   A    
C35   H11   S    
C41   C51   A    
C28   C30   A    
O6    V2    S    
C53   O18   A    
C21   C23   A    
C22   C24   A    
C37   C47   A    
C24   C26   A    
O16   C56   A    
C26   C28   A    
C33   C35   A    
C48   H14   S    
C34   C36   A    
C3    C8    S    
C39   C41   A    
O13   C53   A    
C50   C55   S    
O4    C2    A    
C49   C56   S    
O5    V1    S    
C51   H19   S    
C20   F4    S    
C17   H5    S    
O15   V3    S    
C47   C49   A    
C44   C46   A    
O4    V2    S    
C28   C34   A    
C46   H18   S    
C23   C25   A    
C33   H21   S    
C45   H17   S    
C54   O17   A    
O6    C4    A    
O20   V3    S    
C14   C53   S    
C41   C43   A    
C42   C52   A    
C5    C19   S    
O1    V2    S    
O12   C56   A    
O17   V3    S    
O2    V1    S    
C6    C20   S    
C38   C48   A    
C1    C24   S    
C8    C10   A    
C2    C23   S    
C9    H1    S    
C17   H3    S    
C26   H10   S    
O3    V1    S    
C52   H20   S    
C9    C11   A    
C19   F3    S    
O3    C1    A    
O19   V3    S    
C21   C31   A    
C11   C13   A    
C12   C14   A    
C29   C39   A    
C34   H22   S    
C30   C40   A    
C35   C37   A    
O7    V1    S    
C1    O8    A    
C15   C17   S    
O8    V2    S    
C12   F2    S    
C16   C18   S    
C11   F1    S    
C4    C7    S    
C14   C16   A    
C5    C7    A    
C36   C38   A    
C10   H2    S    
O15   C55   A    
C13   C54   S    
O14   V4    S    
O13   V3    S    
C22   F6    S    
C32   C46   A    
C48   C50   A    
C10   C12   A    
O9    V2    S    
C22   C32   A    
O10   V1    S    
C50   C52   A    
O1    C3    A    
O16   V4    S    
C18   C20   S    
