data_mof_unit_29691.cif
_audit_creation_date              2012-12-10T18:47:41-0500
_audit_creation_method            fapswitch 2.2
_symmetry_space_group_name_H-M    P1
_symmetry_Int_Tables_number       1
_space_group_crystal_system       triclinic
_cell_length_a                    9.995364
_cell_length_b                    10.742756
_cell_length_c                    15.637225
_cell_angle_alpha                 94.727884
_cell_angle_beta                  69.548241
_cell_angle_gamma                 90.065579
_cell_volume                      1567.21061489

loop_
_atom_site_label
_atom_site_type_symbol
_atom_type_description
_atom_site_fract_x
_atom_site_fract_y
_atom_site_fract_z
_atom_type_partial_charge
C1    C     C_R   0.499738 0.739840 0.499428 0.892564
C2    C     C_R   0.496246 0.261701 0.507820 0.892937
C3    C     C_R   0.322038 0.473982 0.101199 0.162035
C4    C     C_R   0.629753 0.344281 0.907860 0.165840
C5    C     C_R   0.227066 0.511049 0.060229 -0.219356
C6    C     C_R   0.728977 0.326210 0.950839 -0.236231
C7    C     C_R   0.596397 0.937291 0.532948 -0.242554
C8    C     C_R   0.378677 0.066544 0.504194 -0.257524
C9    C     C_R   0.595516 0.065779 0.540804 0.164117
C10   C     C_R   0.383641 0.939022 0.490450 0.191397
C11   C     C_R   0.490274 0.130444 0.519696 -0.107313
C12   C     C_R   0.494476 0.873386 0.505095 -0.115254
C13   C     C_R   0.960353 0.419750 0.439870 0.231683
C14   C     C_R   0.039895 0.583958 0.558588 0.181603
C15   C     C_R   0.101039 0.414281 0.443970 0.200182
C16   C     C_R   0.897534 0.587708 0.555040 0.220535
C17   C     C_R   0.411355 0.499755 0.674760 0.864699
C18   C     C_R   0.589108 0.496312 0.324611 0.870385
C19   C     C_R   0.359400 0.498278 0.774178 -0.104084
C20   C     C_R   0.640636 0.471043 0.224278 -0.101474
C21   C     C_R   0.176597 0.548271 0.922493 0.193226
C22   C     C_R   0.801801 0.357429 0.085353 0.200643
C23   C     C_R   0.219601 0.536136 0.827399 -0.215899
C24   C     C_R   0.769659 0.405340 0.176305 -0.231676
C25   C     C_R   0.453983 0.463534 0.816122 -0.221582
C26   C     C_R   0.546965 0.493660 0.178890 -0.180005
C27   C     C_R   0.410172 0.461637 0.911023 0.075509
C28   C     C_R   0.572131 0.440612 0.089554 0.075804
C29   C     C_R   0.271020 0.509883 0.965188 0.090129
C30   C     C_R   0.703437 0.376076 0.040767 0.091230
C31   C     C_R   0.505049 0.421275 0.953625 0.000470
C32   C     C_R   0.467922 0.451474 0.048309 0.003207
H1    H     H_    0.116316 0.529471 0.102659 0.184546
H2    H     H_    0.823240 0.268325 0.914159 0.186963
H3    H     H_    0.451541 0.550687 0.215102 0.185718
H4    H     H_    0.563541 0.441413 0.773882 0.197394
H5    H     H_    0.843432 0.385718 0.209818 0.168135
H6    H     H_    0.145483 0.560833 0.795107 0.176748
H7    H     H_    0.677231 0.887793 0.549050 0.199573
H8    H     H_    0.289096 0.116099 0.499365 0.198493
N1    N     N_R   0.142780 0.500030 0.500020 -0.171040
N2    N     N_R   0.857220 0.499970 0.499980 -0.138997
O1    O     O_R   0.385370 0.683250 0.500010 -0.611838
O2    O     O_R   0.614630 0.316750 0.499990 -0.587037
O3    O     O_R   0.614700 0.683220 0.500000 -0.597621
O4    O     O_R   0.385300 0.316780 0.500000 -0.634567
O5    O     O_R   0.319830 0.500020 0.632250 -0.632970
O6    O     O_R   0.680170 0.499980 0.367750 -0.617947
O7    O     O_R   0.549160 0.499990 0.632240 -0.604952
O8    O     O_R   0.450840 0.500010 0.367760 -0.626024
Zn1   Zn    Zn3+2 0.346870 0.500020 0.500000 0.950414
Zn2   Zn    Zn3+2 0.653130 0.499980 0.500000 0.971260
I1    I     I_    0.972698 0.635335 0.994420 -0.401106
I2    I     I_    0.995577 0.249710 0.024268 -0.429490
N3    N     N_2   0.265182 0.420688 0.186032 -0.308016
H9    H     H_    0.170039 0.460736 0.230144 0.230383
C33   C     C_3   0.269226 0.284786 0.176342 -0.668450
H10   H     H_    0.338572 0.249054 0.211318 0.247650
H11   H     H_    0.312873 0.245230 0.103547 0.238954
H12   H     H_    0.160255 0.249568 0.205388 0.246229
N4    N     N_2   0.644759 0.267099 0.826378 -0.314207
H13   H     H_    0.747883 0.237572 0.787444 0.253445
C34   C     C_3   0.540469 0.170129 0.835554 -0.671934
H14   H     H_    0.594271 0.076496 0.823162 0.234740
H15   H     H_    0.488156 0.178504 0.784230 0.261276
H16   H     H_    0.455972 0.176784 0.904759 0.241001
I3    I     I_    0.748098 0.147313 0.593809 -0.462009
I4    I     I_    0.226076 0.863400 0.438443 -0.400453
N5    N     N_2   0.943943 0.373149 0.356371 -0.301362
H17   H     H_    0.931207 0.441427 0.317356 0.222276
C35   C     C_3   0.872076 0.257507 0.349970 -0.661399
H18   H     H_    0.766595 0.275697 0.344673 0.243227
H19   H     H_    0.861422 0.202032 0.408078 0.270672
H20   H     H_    0.933759 0.200520 0.285967 0.209080
N6    N     N_2   0.079359 0.674102 0.617742 -0.280124
H21   H     H_    0.182106 0.665926 0.614771 0.299408
C36   C     C_3   0.985761 0.701602 0.711861 -0.776411
H22   H     H_    0.049356 0.720853 0.756820 0.235267
H23   H     H_    0.915109 0.622717 0.737282 0.250000
H24   H     H_    0.925898 0.790265 0.718126 0.263843
N7    N     N_2   0.201501 0.324061 0.383589 -0.290555
H25   H     H_    0.306265 0.337945 0.374394 0.287741
C37   C     C_3   0.165346 0.193828 0.390951 -0.754646
H26   H     H_    0.110185 0.162775 0.343685 0.264025
H27   H     H_    0.098301 0.176653 0.462166 0.267772
H28   H     H_    0.264695 0.134858 0.367185 0.235945
N8    N     N_2   0.810725 0.698771 0.590090 -0.267588
H29   H     H_    0.865707 0.780717 0.579233 0.244281
C38   C     C_3   0.695991 0.701328 0.678209 -0.674130
H30   H     H_    0.705007 0.782109 0.724549 0.203602
H31   H     H_    0.695875 0.614563 0.711988 0.235028
H32   H     H_    0.592285 0.716791 0.669408 0.244537

loop_
_geom_bond_atom_site_label_1
_geom_bond_atom_site_label_2
_ccdc_geom_bond_type
N3    H9    S    
C34   H15   S    
C27   C29   A    
N8    H29   S    
C1    O3    A    
N7    H25   S    
C22   I2    S    
C36   H22   S    
C2    O4    A    
C13   N5    S    
C22   C24   A    
C33   H11   S    
N5    C35   S    
N4    C34   S    
C3    N3    S    
C1    O1    A    
C31   C32   A    
C2    O2    A    
C5    H1    S    
C16   N8    S    
C38   H31   S    
N4    H13   S    
O2    Zn2   S    
C34   H16   S    
N5    H17   S    
C1    C12   S    
C2    C11   S    
C13   N2    A    
N7    C37   S    
O8    Zn1   S    
C5    C29   A    
C36   H23   S    
C7    C12   A    
C15   N7    S    
C27   C31   A    
C20   C24   A    
C28   C32   A    
C15   N1    A    
C4    C6    A    
C17   O7    A    
C35   H19   S    
C33   H12   S    
O5    Zn1   S    
O3    Zn2   S    
C21   C29   A    
C4    N4    S    
C6    H2    S    
C19   C23   A    
N6    H21   S    
C9    I3    S    
C9    C11   A    
C37   H26   S    
O7    Zn2   S    
C24   H5    S    
N3    C33   S    
C38   H32   S    
N6    C36   S    
C10   C12   A    
C14   N1    A    
C37   H27   S    
C13   C15   A    
C14   C16   A    
C16   N2    A    
C18   O8    A    
C36   H24   S    
C7    C9    A    
C22   C30   A    
C6    C30   A    
C17   O5    A    
C3    C5    A    
C18   O6    A    
C35   H20   S    
C10   I4    S    
C25   C27   A    
C23   H6    S    
C26   C28   A    
C14   N6    S    
C21   C23   A    
C35   H18   S    
C21   I1    S    
O1    Zn1   S    
C33   H10   S    
C20   C26   A    
C8    C11   A    
O4    Zn1   S    
C28   C30   A    
C17   C19   S    
C18   C20   S    
C3    C32   A    
C19   C25   A    
C4    C31   A    
C25   H4    S    
C34   H14   S    
C26   H3    S    
O6    Zn2   S    
C37   H28   S    
C8    C10   A    
N8    C38   S    
C7    H7    S    
C8    H8    S    
C38   H30   S    
N1    Zn1   S    
N2    Zn2   S    
