data_mof_unit_15606.cif
_audit_creation_date              2012-12-10T21:34:56-0500
_audit_creation_method            fapswitch 2.2
_symmetry_space_group_name_H-M    P1
_symmetry_Int_Tables_number       1
_space_group_crystal_system       triclinic
_cell_length_a                    10.626793
_cell_length_b                    16.083321
_cell_length_c                    16.649
_cell_angle_alpha                 88.596217
_cell_angle_beta                  89.564208
_cell_angle_gamma                 92.157092
_cell_volume                      2842.57583548

loop_
_atom_site_label
_atom_site_type_symbol
_atom_type_description
_atom_site_fract_x
_atom_site_fract_y
_atom_site_fract_z
_atom_type_partial_charge
C1    C     C_R   0.493862 0.489674 0.653809 0.874368
C2    C     C_R   0.488392 0.410337 0.784701 -0.036757
C3    C     C_R   0.397861 0.445848 0.142477 -0.178175
C4    C     C_R   0.742532 0.500038 0.497864 0.855775
C5    C     C_R   0.420897 0.444096 0.223941 -0.254909
C6    C     C_R   0.425787 0.518878 0.096615 0.328045
C7    C     C_R   0.471967 0.514894 0.261004 -0.019273
C8    C     C_R   0.495398 0.588726 0.216214 -0.214796
C9    C     C_R   0.473061 0.590290 0.133989 -0.210084
C10   C     C_R   0.419341 0.762275 0.480966 -0.004027
C11   C     C_R   0.426028 0.849447 0.482485 -0.309241
C12   C     C_3   0.121633 0.500925 0.497430 0.175880
C13   C     C_R   0.533583 0.891437 0.513622 0.272203
C14   C     C_R   0.632163 0.842675 0.543302 -0.110616
C15   C     C_R   0.620075 0.755196 0.540430 -0.055296
C16   C     C_R   0.495944 0.510434 0.346680 0.884238
C17   C     C_R   0.577385 0.151501 0.518875 -0.284330
C18   C     C_R   0.582250 0.238895 0.519011 -0.003147
C19   C     C_R   0.470215 0.108564 0.488595 0.325586
C20   C     C_R   0.380729 0.243144 0.460000 -0.014114
C21   C     C_R   0.371903 0.155921 0.458762 -0.307816
C22   C     C_R   0.257567 0.500443 0.499245 0.840660
C23   C     C_3   0.076909 0.591703 0.494832 -0.410040
C24   C     C_3   0.928359 0.452311 0.421936 -0.131228
C25   C     C_3   0.073753 0.456324 0.421414 -0.435870
C26   C     C_3   0.934157 0.591569 0.496490 -0.402074
C27   C     C_3   0.923652 0.455725 0.573573 -0.452328
C28   C     C_3   0.878956 0.500506 0.495975 0.145630
C29   C     C_R   0.873898 0.476753 0.340334 0.114732
C30   C     C_R   0.792395 0.419903 0.301331 -0.156149
C31   C     C_R   0.748860 0.437576 0.224013 -0.127740
C32   C     C_R   0.784312 0.512638 0.184920 -0.100913
C33   C     C_R   0.863926 0.570028 0.222940 -0.152148
C34   C     C_3   0.067844 0.454565 0.573624 -0.406091
C35   C     C_R   0.909285 0.552177 0.299815 -0.144389
C36   C     C_R   0.571725 0.345977 0.754544 0.166725
C37   C     C_R   0.525584 0.263533 0.747021 -0.132761
C38   C     C_R   0.606194 0.201666 0.723497 -0.142952
C39   C     C_R   0.733419 0.221494 0.708206 -0.142021
C40   C     C_R   0.780099 0.303251 0.716082 -0.162883
C41   C     C_R   0.699514 0.365565 0.738578 -0.143186
C42   C     C_R   0.258813 0.592896 0.893042 0.149580
C43   C     C_R   0.133072 0.569631 0.911568 -0.152511
C44   C     C_R   0.055057 0.625620 0.948641 -0.137557
C45   C     C_R   0.461581 0.483667 0.739993 -0.160949
C46   C     C_R   0.102214 0.704932 0.967741 -0.112593
C47   C     C_R   0.227588 0.728286 0.950050 -0.141089
C48   C     C_R   0.305936 0.672455 0.913075 -0.118359
C49   C     C_R   0.359460 0.625387 0.733933 0.176688
C50   C     C_R   0.451275 0.690609 0.730046 -0.117921
C51   C     C_R   0.420917 0.769073 0.699684 -0.135759
C52   C     C_R   0.299061 0.782998 0.672887 -0.104137
C53   C     C_R   0.207120 0.718592 0.676868 -0.153948
C54   C     C_R   0.236912 0.640079 0.707510 -0.139452
C55   C     C_R   0.748602 0.881076 0.577307 0.130422
C56   C     C_R   0.387822 0.545621 0.775835 -0.110037
C57   C     C_R   0.742107 0.940618 0.637551 -0.145036
C58   C     C_R   0.852413 0.974996 0.670465 -0.156920
C59   C     C_R   0.969925 0.950122 0.643880 -0.104692
C60   C     C_R   0.977403 0.890652 0.584439 -0.145726
C61   C     C_R   0.867417 0.856032 0.551401 -0.169656
C62   C     C_R   0.341536 0.532418 0.854727 -0.036876
C63   C     C_R   0.375834 0.461303 0.898864 0.240597
C64   C     C_R   0.443732 0.399977 0.863130 -0.255856
H1    H     H_    0.104566 0.484330 0.628636 0.155092
H2    H     H_    0.694225 0.717358 0.563675 0.132282
H3    H     H_    0.347766 0.883327 0.458910 0.156656
H4    H     H_    0.288237 0.125282 0.434928 0.142842
H5    H     H_    0.337143 0.730796 0.456355 0.127169
H6    H     H_    0.108137 0.391781 0.420200 0.161553
H7    H     H_    0.113574 0.489127 0.366816 0.160830
H8    H     H_    0.898997 0.629574 0.445468 0.171588
H9    H     H_    0.113029 0.625324 0.439617 0.161832
H10   H     H_    0.890104 0.487831 0.627794 0.163107
H11   H     H_    0.884351 0.390649 0.576917 0.175271
H12   H     H_    0.903582 0.622582 0.552134 0.171646
H13   H     H_    0.097412 0.388858 0.575379 0.177473
H14   H     H_    0.763466 0.361166 0.330279 0.128921
H15   H     H_    0.687211 0.393045 0.194450 0.139496
H16   H     H_    0.750139 0.526285 0.125135 0.131701
H17   H     H_    0.892264 0.627914 0.192259 0.127142
H18   H     H_    0.975384 0.596218 0.325795 0.122171
H19   H     H_    0.361872 0.389336 0.115398 0.149022
H20   H     H_    0.427463 0.247283 0.759621 0.119786
H21   H     H_    0.570189 0.138298 0.717378 0.128658
H22   H     H_    0.795825 0.173550 0.690248 0.122454
H23   H     H_    0.113500 0.626145 0.547310 0.186244
H24   H     H_    0.879041 0.318139 0.705407 0.127827
H25   H     H_    0.737026 0.428544 0.745263 0.103221
H26   H     H_    0.095596 0.508316 0.897041 0.120184
H27   H     H_    0.958090 0.607493 0.962654 0.124503
H28   H     H_    0.041735 0.748175 0.996503 0.118831
H29   H     H_    0.264221 0.789530 0.965312 0.123608
H30   H     H_    0.403382 0.690795 0.900787 0.118403
H31   H     H_    0.545358 0.681005 0.752128 0.112660
H32   H     H_    0.491622 0.819293 0.697545 0.124797
H33   H     H_    0.275714 0.843860 0.649586 0.122278
H34   H     H_    0.399610 0.386795 0.257725 0.162419
H35   H     H_    0.112229 0.729859 0.657322 0.125799
H36   H     H_    0.163792 0.591652 0.713152 0.106722
H37   H     H_    0.663982 0.271476 0.542927 0.144761
H38   H     H_    0.651882 0.959576 0.659906 0.121761
H39   H     H_    0.846755 0.020539 0.717007 0.121218
H40   H     H_    0.055176 0.976703 0.669531 0.119784
H41   H     H_    0.068436 0.871289 0.563967 0.119659
H42   H     H_    0.874974 0.810041 0.505313 0.117904
H43   H     H_    0.304015 0.278891 0.437126 0.126404
H44   H     H_    0.470694 0.346548 0.899200 0.150135
H45   H     H_    0.533835 0.644104 0.244200 0.158847
H46   H     H_    0.495456 0.646532 0.098826 0.135814
H47   H     H_    0.900358 0.385541 0.433623 0.131085
H48   H     H_    0.656206 0.118372 0.542773 0.156977
N1    N     N_2   0.366277 0.458102 0.983058 -0.200020
N2    N     N_2   0.419419 0.520702 0.012176 -0.190806
N3    N     N_R   0.515460 0.716920 0.509720 -0.082005
N4    N     N_2   0.547462 0.980772 0.514355 -0.189254
N5    N     N_2   0.456301 0.019446 0.487247 -0.193176
N6    N     N_R   0.484530 0.283060 0.490290 -0.087610
O1    O     O_R   0.494470 0.422540 0.612660 -0.595385
O2    O     O_R   0.504400 0.561840 0.618900 -0.604989
O3    O     O_R   0.680240 0.430340 0.496890 -0.637488
O4    O     O_R   0.690170 0.569650 0.503130 -0.635034
O5    O     O_R   0.495600 0.438160 0.381100 -0.623076
O6    O     O_R   0.505530 0.577460 0.387340 -0.618331
O7    O     O_R   0.309830 0.430350 0.496870 -0.638297
O8    O     O_R   0.319760 0.569660 0.503110 -0.629833
Zn1   Zn    Zn3+2 0.493370 0.406980 0.495830 0.937300
Zn2   Zn    Zn3+2 0.506630 0.593020 0.504170 0.942767

loop_
_geom_bond_atom_site_label_1
_geom_bond_atom_site_label_2
_ccdc_geom_bond_type
C41   H25   S    
C26   H8    S    
C3    C6    A    
C6    C9    A    
C20   N6    A    
C7    C8    A    
C53   C54   A    
C53   H35   S    
C57   H38   S    
C12   C23   S    
C62   C63   A    
C48   H30   S    
C59   H40   S    
C36   C37   A    
C19   C21   A    
C16   O5    A    
O3    Zn1   S    
C34   H13   S    
C30   C31   A    
C50   H31   S    
C22   O8    A    
C46   H28   S    
C49   C54   A    
C12   C22   S    
C52   H33   S    
N4    N5    D    
C1    O1    A    
C23   C26   S    
C24   C29   S    
C6    N2    S    
C17   C19   A    
C47   C48   A    
C45   C56   A    
C2    C64   A    
C8    C9    A    
C26   H12   S    
C37   H20   S    
C25   H7    S    
C27   H10   S    
C18   N6    A    
C51   H32   S    
O6    Zn2   S    
C20   H43   S    
C14   C55   S    
C59   C60   A    
C27   C34   S    
C23   H23   S    
C13   C14   A    
C54   H36   S    
C36   C41   A    
C24   H47   S    
C23   H9    S    
C27   H11   S    
C34   H1    S    
C4    C28   S    
C35   H18   S    
C11   H3    S    
C64   H44   S    
C2    C45   A    
C43   H26   S    
C38   H21   S    
C51   C52   A    
C24   C25   S    
C39   C40   A    
C5    C7    A    
C22   O7    A    
C44   C46   A    
C50   C51   A    
C58   C59   A    
C15   H2    S    
N3    Zn2   S    
C60   C61   A    
C1    O2    A    
C63   N1    S    
C43   C44   A    
C37   C38   A    
C32   H16   S    
O5    Zn1   S    
C31   C32   A    
C17   C18   A    
C47   H29   S    
C4    O4    A    
C42   C48   A    
C5    H34   S    
C61   H42   S    
C44   H27   S    
C40   C41   A    
C55   C57   A    
C21   H4    S    
C3    H19   S    
C15   N3    A    
C42   C43   A    
C12   C34   S    
C17   H48   S    
C52   C53   A    
N1    N2    D    
C2    C36   S    
C9    H46   S    
C42   C62   S    
C46   C47   A    
C7    C16   S    
O8    Zn2   S    
C24   C28   S    
C3    C5    A    
O2    Zn2   S    
C31   H15   S    
C58   H39   S    
C49   C56   S    
C29   C35   A    
C26   C28   S    
C12   C25   S    
C32   C33   A    
C40   H24   S    
C16   O6    A    
C8    H45   S    
C11   C13   A    
C1    C45   S    
C57   C58   A    
C38   C39   A    
C55   C61   A    
C33   C35   A    
C4    O3    A    
C56   C62   A    
O4    Zn2   S    
C13   N4    S    
C10   C11   A    
C60   H41   S    
C29   C30   A    
C63   C64   A    
C30   H14   S    
C10   H5    S    
C20   C21   A    
C19   N5    S    
C49   C50   A    
N6    Zn1   S    
C27   C28   S    
O7    Zn1   S    
C14   C15   A    
C25   H6    S    
C39   H22   S    
C33   H17   S    
C18   H37   S    
C10   N3    A    
O1    Zn1   S    
