data_mof_unit_32877.cif
_audit_creation_date              2012-10-26T18:34:43-0400
_audit_creation_method            fapswitch 2.2
_symmetry_space_group_name_H-M    P1
_symmetry_Int_Tables_number       1
_space_group_crystal_system       triclinic
_cell_length_a                    10.91201
_cell_length_b                    9.513072
_cell_length_c                    17.709089
_cell_angle_alpha                 89.998992
_cell_angle_beta                  90.128397
_cell_angle_gamma                 90.164914
_cell_volume                      1838.31050986

loop_
_atom_site_label
_atom_site_type_symbol
_atom_type_description
_atom_site_fract_x
_atom_site_fract_y
_atom_site_fract_z
_atom_type_partial_charge
C1    C     C_R   0.261787 0.499837 0.501254 0.567141
C2    C     C_R   0.500017 0.500011 0.644539 0.526531
C3    C     C_R   0.870980 0.501566 0.503078 -0.095430
C4    C     C_R   0.127323 0.500147 0.503549 -0.095274
C5    C     C_R   0.506202 0.627302 0.846306 -0.118015
C6    C     C_R   0.516662 0.374312 0.153787 -0.118624
C7    C     C_R   0.478963 0.625390 0.153798 -0.120177
C8    C     C_R   0.493713 0.372791 0.846277 -0.119046
C9    C     C_R   0.506265 0.627488 0.767597 -0.138084
C10   C     C_R   0.516695 0.374074 0.232493 -0.139342
C11   C     C_R   0.478792 0.625436 0.232504 -0.144088
C12   C     C_R   0.737615 0.500398 0.500914 0.563249
C13   C     C_R   0.493562 0.372657 0.767574 -0.141673
C14   C     C_R   0.500008 0.500051 0.727542 0.009342
C15   C     C_R   0.498352 0.499856 0.272516 0.009619
C16   C     C_R   0.445259 0.074131 0.442894 -0.006529
C17   C     C_R   0.557480 0.925777 0.556146 0.016031
C18   C     C_R   0.556853 0.074538 0.556370 0.030491
C19   C     C_R   0.443569 0.925427 0.443476 -0.007730
C20   C     C_R   0.499909 0.500041 0.885534 0.039971
C21   C     C_R   0.498071 0.499934 0.114549 0.039511
C22   C     C_3   0.140089 0.180737 0.455090 0.036001
C23   C     C_1   0.499345 0.500071 0.966186 -0.036595
C24   C     C_3   0.025383 0.117566 0.418134 -0.252398
C25   C     C_3   0.059982 0.044534 0.344420 -0.493245
C26   C     C_3   0.858689 0.739258 0.382577 0.034251
C27   C     C_3   0.762074 0.847437 0.359866 -0.247491
C28   C     C_3   0.741522 0.848730 0.274595 -0.500377
C29   C     C_3   0.845052 0.298199 0.633402 0.031305
C30   C     C_3   0.865621 0.168474 0.682194 -0.266735
C31   C     C_3   0.818157 0.189960 0.762327 -0.496558
C32   C     C_3   0.147871 0.795847 0.572834 0.044623
C33   C     C_3   0.035883 0.849571 0.616278 -0.269033
C34   C     C_1   0.498747 0.500066 0.033897 -0.036552
C35   C     C_3   0.069208 0.878756 0.698612 -0.503756
C36   C     C_R   0.060708 0.373661 0.514930 0.219113
C37   C     C_R   0.936375 0.624339 0.484207 0.199162
C38   C     C_R   0.934783 0.380377 0.525497 0.208065
C39   C     C_R   0.062317 0.628391 0.495777 0.210606
C40   C     C_R   0.499536 0.499988 0.355482 0.534178
Cu1   Cu    Cu3+1 0.500000 0.640660 0.500000 0.930261
Cu2   Cu    Cu3+1 0.500000 0.359340 0.500000 0.946539
H1    H     H_    0.510992 0.726216 0.876533 0.103785
H2    H     H_    0.604008 0.870075 0.601010 0.108896
H3    H     H_    0.602237 0.130456 0.601624 0.108044
H4    H     H_    0.397546 0.869474 0.398404 0.117135
H5    H     H_    0.204671 0.093305 0.465704 0.162367
H6    H     H_    0.184988 0.254057 0.414550 0.124188
H7    H     H_    0.981866 0.040600 0.456965 0.228356
H8    H     H_    0.958341 0.201667 0.404936 0.161982
H9    H     H_    0.111338 0.117518 0.307014 0.132460
H10   H     H_    0.976263 0.011223 0.313942 0.145520
H11   H     H_    0.117423 0.950783 0.356195 0.172432
H12   H     H_    0.531398 0.276780 0.123570 0.104090
H13   H     H_    0.825251 0.633796 0.363745 0.112128
H14   H     H_    0.946380 0.762669 0.353218 0.140321
H15   H     H_    0.674325 0.821045 0.387927 0.212653
H16   H     H_    0.790273 0.953866 0.379055 0.169636
H17   H     H_    0.826426 0.880827 0.244763 0.140754
H18   H     H_    0.667605 0.924287 0.260369 0.139422
H19   H     H_    0.714027 0.742641 0.254616 0.160193
H20   H     H_    0.746916 0.328056 0.636145 0.156224
H21   H     H_    0.900120 0.386190 0.658352 0.103604
H22   H     H_    0.818454 0.076278 0.656594 0.162000
H23   H     H_    0.464349 0.723007 0.123600 0.105078
H24   H     H_    0.965520 0.147493 0.684496 0.185693
H25   H     H_    0.863673 0.282056 0.789008 0.154630
H26   H     H_    0.837964 0.095114 0.796731 0.142451
H27   H     H_    0.717572 0.206714 0.761507 0.145761
H28   H     H_    0.217573 0.881185 0.571160 0.162809
H29   H     H_    0.190384 0.707406 0.604706 0.131917
H30   H     H_    0.001262 0.947108 0.589301 0.205048
H31   H     H_    0.961571 0.769700 0.615581 0.171474
H32   H     H_    0.108144 0.783173 0.725441 0.147218
H33   H     H_    0.985787 0.908524 0.730462 0.143999
H34   H     H_    0.488822 0.273861 0.876469 0.104591
H35   H     H_    0.137201 0.965645 0.702208 0.157498
H36   H     H_    0.511305 0.727210 0.738238 0.115124
H37   H     H_    0.531858 0.275785 0.261898 0.118162
H38   H     H_    0.463700 0.723661 0.261939 0.116159
H39   H     H_    0.488334 0.272970 0.738182 0.117048
H40   H     H_    0.401188 0.129744 0.397086 0.093103
N1    N     N_R   0.500000 0.852070 0.500000 -0.235383
N2    N     N_R   0.500000 0.147930 0.500000 -0.217603
O1    O     O_R   0.319640 0.618740 0.499990 -0.471991
O2    O     O_3   0.877023 0.745613 0.461590 -0.528130
O3    O     O_3   0.875979 0.265973 0.557551 -0.530561
O4    O     O_3   0.119160 0.758951 0.497029 -0.538934
O5    O     O_R   0.680360 0.381260 0.500010 -0.469951
O6    O     O_R   0.680360 0.618740 0.500010 -0.464878
O7    O     O_R   0.319640 0.381260 0.499990 -0.473556
O8    O     O_R   0.500000 0.618830 0.391250 -0.522049
O9    O     O_R   0.500000 0.381170 0.608750 -0.516807
O10   O     O_R   0.500000 0.618830 0.608750 -0.520715
O11   O     O_R   0.500000 0.381170 0.391250 -0.516712
O12   O     O_3   0.116933 0.244975 0.525881 -0.525925

loop_
_geom_bond_atom_site_label_1
_geom_bond_atom_site_label_2
_ccdc_geom_bond_type
C22   H6    S    
C29   H21   S    
C35   H32   S    
C8    C13   A    
C30   H22   S    
Cu2   O9    S    
Cu1   Cu2   S    
C8    H34   S    
C26   H13   S    
C4    C36   A    
C19   H4    S    
C5    C20   A    
C7    C11   A    
C35   H33   S    
C26   C27   S    
C8    C20   A    
C12   O6    A    
C25   H11   S    
C10   C15   A    
C30   C31   S    
C32   O4    S    
C13   H39   S    
C16   N2    A    
Cu2   O7    S    
C3    C12   S    
C33   H30   S    
C17   H2    S    
C11   C15   A    
C37   O2    S    
C3    C38   A    
C18   N2    A    
C20   C23   S    
C28   H19   S    
C22   H5    S    
C5    H1    S    
C1    O7    A    
C13   C14   A    
C1    O1    A    
C39   O4    S    
C6    H12   S    
C19   N1    A    
C32   H29   S    
C28   H18   S    
C24   H8    S    
C31   H26   S    
Cu2   O11   S    
C12   O5    A    
C2    O10   A    
Cu2   N2    S    
C24   C25   S    
C27   H15   S    
C32   H28   S    
C21   C34   S    
C7    C21   A    
C6    C21   A    
C35   H35   S    
C17   N1    A    
C31   H25   S    
C9    C14   A    
C25   H9    S    
C5    C9    A    
C29   C30   S    
C7    H23   S    
C36   O12   S    
Cu1   O10   S    
C4    C39   A    
C26   O2    S    
C23   C34   T    
C16   H40   S    
C17   C18   A    
C40   O8    A    
C30   H24   S    
C33   H31   S    
C22   C24   S    
C40   O11   A    
C18   H3    S    
C28   H17   S    
C24   H7    S    
C29   H20   S    
C22   O12   S    
C2    O9    A    
C27   H16   S    
C26   H14   S    
C6    C10   A    
C10   H37   S    
Cu1   O1    S    
C38   O3    S    
Cu2   O5    S    
C32   C33   S    
C1    C4    S    
C36   C38   A    
C25   H10   S    
C37   C39   A    
C16   C19   A    
C33   C35   S    
Cu1   O6    S    
C9    H36   S    
C2    C14   S    
C15   C40   S    
C29   O3    S    
C11   H38   S    
C31   H27   S    
Cu1   O8    S    
C3    C37   A    
C27   C28   S    
Cu1   N1    S    
