data_mof_unit_23363.cif
_audit_creation_date              2012-12-11T21:15:15-0500
_audit_creation_method            fapswitch 2.2
_symmetry_space_group_name_H-M    P1
_symmetry_Int_Tables_number       1
_space_group_crystal_system       triclinic
_cell_length_a                    8.209791
_cell_length_b                    18.9043
_cell_length_c                    26.963539
_cell_angle_alpha                 98.815125
_cell_angle_beta                  91.830387
_cell_angle_gamma                 89.056959
_cell_volume                      4132.92702173

loop_
_atom_site_label
_atom_site_type_symbol
_atom_type_description
_atom_site_fract_x
_atom_site_fract_y
_atom_site_fract_z
_atom_type_partial_charge
Ba1   Ba    Ba6+2 0.160810 0.465630 0.521640 1.666449
Ba2   Ba    Ba6+2 0.649380 0.534380 0.478400 1.655678
C1    C     C_3   0.446490 0.303511 0.701922 -0.341110
C2    C     C_R   0.066121 0.098293 0.449887 0.003998
C3    C     C_R   0.217432 0.080502 0.429480 -0.089629
C4    C     C_3   0.952747 0.280900 0.637545 0.290237
C5    C     C_R   0.292141 0.014539 0.433038 -0.038017
C6    C     C_R   0.203125 0.960083 0.451970 -0.028420
C7    C     C_R   0.052637 0.979351 0.474870 0.019551
C8    C     C_R   0.254971 0.886868 0.445762 -0.097601
C9    C     C_R   0.173158 0.834735 0.469379 -0.061793
C10   C     C_R   0.028892 0.857110 0.496032 0.008315
C11   C     C_R   0.968484 0.928967 0.497684 0.000920
C12   C     C_3   0.385491 0.319469 0.650884 0.318168
C13   C     C_R   0.224184 0.760795 0.466731 -0.033032
C14   C     C_R   0.127793 0.712638 0.487990 -0.272337
C15   C     C_R   0.988887 0.734009 0.515344 0.048028
C16   C     C_3   0.010110 0.215244 0.660295 -0.394975
C17   C     C_R   0.940584 0.807508 0.520007 -0.041978
C18   C     C_R   0.835326 0.070094 0.497163 0.019160
C19   C     C_R   0.769709 0.140675 0.496563 0.021297
C20   C     C_R   0.861434 0.191069 0.474610 -0.030139
C21   C     C_R   0.003175 0.167162 0.449240 -0.035111
C22   C     C_R   0.802617 0.832585 0.547081 -0.047355
C23   C     C_3   0.469244 0.313959 0.394735 0.276961
C24   C     C_R   0.738942 0.901227 0.545833 0.033451
C25   C     C_R   0.820906 0.950312 0.521537 0.009154
C26   C     C_R   0.753654 0.020397 0.520986 0.005090
C27   C     C_R   0.589904 0.920284 0.567545 -0.094025
C28   C     C_3   0.827606 0.634691 0.635428 0.296118
C29   C     C_R   0.520511 0.986972 0.565044 -0.089266
C30   C     C_R   0.601577 0.039173 0.542719 0.002899
C31   C     C_R   0.614988 0.160683 0.517942 -0.099802
C32   C     C_R   0.529894 0.107721 0.540064 -0.076622
C33   C     C_R   0.558238 0.233507 0.517520 0.031214
C34   C     C_3   0.475455 0.233941 0.375976 -0.352973
C35   C     C_R   0.657804 0.282394 0.498229 -0.215473
C36   C     C_R   0.810508 0.263914 0.478594 0.035370
C37   C     C_R   0.299745 0.447751 0.174243 0.590792
C38   C     C_R   0.167560 0.561717 0.173792 0.573429
C39   C     C_2   0.028316 0.522104 0.269304 -0.067449
C40   C     C_3   0.792493 0.666181 0.689526 -0.361462
C41   C     C_3   0.993654 0.518407 0.323823 -0.056954
C42   C     C_1   0.280525 0.492269 0.336172 0.018319
C43   C     C_2   0.315251 0.494386 0.288848 -0.113206
C44   C     C_2   0.181518 0.508787 0.252112 0.190929
C45   C     C_3   0.868579 0.720941 0.375429 0.338832
C46   C     C_R   0.297699 0.502763 0.098008 -0.078408
C47   C     C_R   0.342988 0.445756 0.123793 -0.033768
C48   C     C_R   0.431352 0.387901 0.098779 -0.058487
C49   C     C_R   0.208221 0.560827 0.123219 -0.030514
C50   C     C_2   0.148944 0.524478 0.355661 -0.292161
C51   C     C_2   0.654957 0.480518 0.639641 -0.243501
C52   C     C_3   0.978870 0.370306 0.365331 0.290315
C53   C     C_R   0.469429 0.440059 0.970456 0.020622
C54   C     C_R   0.345941 0.560174 0.971413 0.020984
C55   C     C_R   0.429848 0.499682 0.945781 0.050233
C56   C     C_3   0.882064 0.794356 0.359579 -0.305547
C57   C     C_R   0.548196 0.380296 0.942615 -0.099166
C58   C     C_R   0.590070 0.379844 0.893019 -0.059106
C59   C     C_R   0.555297 0.438781 0.868658 -0.030356
C60   C     C_R   0.474899 0.498842 0.894891 -0.079106
C61   C     C_R   0.440109 0.558170 0.870294 -0.032821
C62   C     C_R   0.486299 0.556818 0.820167 0.589687
C63   C     C_R   0.598376 0.438511 0.818372 0.581650
C64   C     C_3   0.015369 0.340354 0.311002 -0.349768
C65   C     C_2   0.760259 0.481523 0.727522 -0.062828
C66   C     C_3   0.804027 0.486245 0.674021 -0.047060
C67   C     C_3   0.344039 0.684619 0.346859 0.286106
C68   C     C_1   0.519873 0.512326 0.656914 0.016326
C69   C     C_2   0.479323 0.512754 0.704191 -0.109605
C70   C     C_2   0.605439 0.495950 0.742419 0.194612
C71   C     C_R   0.428961 0.441883 0.021743 0.020775
C72   C     C_R   0.341400 0.501591 0.046961 0.050943
C73   C     C_R   0.297097 0.560164 0.021750 0.020062
C74   C     C_R   0.473814 0.385974 0.049089 -0.098501
C75   C     C_R   0.161289 0.617079 0.097471 -0.048724
C76   C     C_3   0.329629 0.683420 0.589726 0.312796
C77   C     C_R   0.315067 0.619131 0.945665 -0.097982
C78   C     C_3   0.345705 0.701268 0.293222 -0.263114
C79   C     C_R   0.361022 0.618000 0.896366 -0.059957
C80   C     C_R   0.204152 0.616813 0.047978 -0.096912
C81   C     C_3   0.315401 0.763783 0.606456 -0.395302
C82   C     C_2   0.500670 0.676364 0.267860 0.601177
C83   C     C_2   0.468587 0.008223 0.421680 0.539448
C84   C     C_2   0.369892 0.864668 0.405626 0.511479
C85   C     C_2   0.360829 0.119039 0.557037 0.525429
C86   C     C_2   0.783007 0.269691 0.617564 0.412007
C87   C     C_R   0.984936 0.049289 0.474289 0.023761
H1    H     H_    0.257730 0.336226 0.653794 0.076127
H2    H     H_    0.207457 0.661936 0.578551 0.011495
H3    H     H_    0.410849 0.673262 0.557251 0.069101
H4    H     H_    0.415921 0.349369 0.731145 0.109349
H5    H     H_    0.220908 0.775491 0.635242 0.136009
H6    H     H_    0.281498 0.791398 0.574154 0.055501
H7    H     H_    0.434040 0.784715 0.622865 0.120577
H8    H     H_    0.458477 0.364051 0.641776 0.075156
H9    H     H_    0.580654 0.295339 0.702097 0.153594
H10   H     H_    0.595775 0.332779 0.403384 0.027034
H11   H     H_    0.396675 0.323308 0.429245 0.041389
H12   H     H_    0.708786 0.713072 0.690202 0.143194
H13   H     H_    0.553056 0.222854 0.342616 0.151735
H14   H     H_    0.527337 0.204952 0.405724 0.079325
H15   H     H_    0.350591 0.214163 0.365411 0.122281
H16   H     H_    0.388892 0.254721 0.711194 0.132849
H17   H     H_    0.930104 0.206392 0.691213 0.124260
H18   H     H_    0.757827 0.720508 0.397614 0.117166
H19   H     H_    0.976485 0.711728 0.399205 -0.044441
H20   H     H_    0.885777 0.836248 0.393270 0.068478
H21   H     H_    0.995200 0.797072 0.338469 0.150228
H22   H     H_    0.774896 0.804849 0.335481 0.181516
H23   H     H_    0.733737 0.626365 0.708963 0.078243
H24   H     H_    0.218453 0.695309 0.360292 -0.027303
H25   H     H_    0.375049 0.627532 0.346690 0.039821
H26   H     H_    0.242558 0.673461 0.271529 0.084817
H27   H     H_    0.033932 0.286410 0.606349 0.075774
H28   H     H_    0.327072 0.759486 0.293148 0.186940
H29   H     H_    0.283575 0.120809 0.414083 0.097213
H30   H     H_    0.165446 0.657102 0.484899 0.062624
H31   H     H_    0.068925 0.202077 0.429065 0.091708
H32   H     H_    0.738467 0.798452 0.568254 0.101316
H33   H     H_    0.523706 0.882645 0.585450 0.066392
H34   H     H_    0.907827 0.683553 0.710119 0.123540
H35   H     H_    0.401500 0.995936 0.580822 0.120320
H36   H     H_    0.617846 0.337551 0.500229 0.070068
H37   H     H_    0.439576 0.485878 0.276602 0.113441
H38   H     H_    0.469253 0.343523 0.117732 0.126196
H39   H     H_    0.856044 0.472393 0.754605 0.106188
H40   H     H_    0.650331 0.332562 0.873687 0.124381
H41   H     H_    0.578081 0.332046 0.957681 0.071752
H42   H     H_    0.544189 0.339827 0.033564 0.072223
H43   H     H_    0.927283 0.529242 0.243506 0.110807
H44   H     H_    0.090698 0.662112 0.115629 0.134569
H45   H     H_    0.090885 0.392794 0.384826 0.022860
H46   H     H_    0.257462 0.668008 0.962674 0.073782
H47   H     H_    0.008565 0.166858 0.631087 0.111709
H48   H     H_    0.333975 0.664736 0.878642 0.124753
H49   H     H_    0.356423 0.527054 0.715811 0.134308
H50   H     H_    0.160042 0.661886 0.031265 0.074364
H51   H     H_    0.150371 0.551053 0.394370 0.066947
H52   H     H_    0.664520 0.458945 0.600124 0.116353
H53   H     H_    0.136050 0.222771 0.675715 0.163055
H54   H     H_    0.712724 0.614292 0.616471 0.017269
H55   H     H_    0.919601 0.591024 0.634741 0.030564
H56   H     H_    0.882718 0.412296 0.366402 0.037920
H57   H     H_    0.528009 0.619580 0.259255 -0.007926
H58   H     H_    0.547486 0.972526 0.439471 -0.061902
H59   H     H_    0.496019 0.853000 0.414778 0.025390
H60   H     H_    0.263811 0.125173 0.530260 -0.008456
H61   H     H_    0.723042 0.218644 0.616178 0.013813
H62   H     H_    0.100641 0.293925 0.309812 0.155687
H63   H     H_    0.072511 0.380846 0.291917 0.080487
H64   H     H_    0.900724 0.322476 0.290193 0.119419
N1    N     N_R   0.215762 0.506049 0.199154 -0.429291
N2    N     N_R   0.562878 0.497034 0.794498 -0.426189
O1    O     O_2   0.106080 0.324280 0.466820 -0.480714
O2    O     O_2   0.664028 0.562165 0.332385 -0.502802
O3    O     O_3   0.860927 0.668407 0.332648 -0.572261
O4    O     O_3   0.859130 0.413620 0.470620 -0.483233
O5    O     O_3   0.459240 0.537930 0.559910 -0.489212
O6    O     O_2   0.583120 0.462390 0.379940 -0.465904
O7    O     O_3   0.396287 0.348516 0.357177 -0.628492
O8    O     O_2   0.569633 0.754339 0.470811 -0.516295
O9    O     O_3   0.457770 0.726970 0.377551 -0.592699
O10   O     O_2   0.335305 0.397036 0.195846 -0.592048
O11   O     O_2   0.666522 0.385868 0.795707 -0.599715
O12   O     O_3   0.393684 0.652262 0.629994 -0.624921
O13   O     O_2   0.090366 0.612475 0.195332 -0.587348
O14   O     O_2   0.460179 0.609333 0.799561 -0.597877
O15   O     O_3   0.376230 0.370290 0.556910 -0.475045
O16   O     O_2   0.213877 0.250091 0.532578 -0.526875
O17   O     O_3   0.922575 0.314135 0.387470 -0.642718
O18   O     O_3   0.396074 0.257292 0.615233 -0.571062
O19   O     O_2   0.227190 0.537650 0.620070 -0.466335
O20   O     O_3   0.971110 0.406970 0.583250 -0.457276
O21   O     O_2   0.131497 0.451293 0.670303 -0.521481
O22   O     O_2   0.595083 0.719495 0.255809 -0.527268
O23   O     O_3   0.956429 0.341357 0.675219 -0.589694
O24   O     O_2   0.528874 0.044230 0.393227 -0.565790
O25   O     O_2   0.327083 0.865219 0.361930 -0.565106
O26   O     O_2   0.328515 0.119142 0.600957 -0.569184
O27   O     O_2   0.710486 0.319055 0.602463 -0.645195
O28   O     O_2   0.704230 0.675760 0.533200 -0.476994
O29   O     O_3   0.951180 0.586390 0.529420 -0.491265
O30   O     O_3   0.434080 0.629720 0.443130 -0.465886
O31   O     O_3   0.890836 0.688673 0.612390 -0.641640
O32   O     O_3   0.351080 0.462080 0.440130 -0.473633
O33   O     O_3   0.839200 0.593040 0.416790 -0.484664
P1    P     P_3+3 0.929380 0.335110 0.452880 0.985096
P2    P     P_3+3 0.398530 0.559060 0.613740 0.992137
P3    P     P_3+3 0.965058 0.421596 0.649528 1.005357
P4    P     P_3+3 0.880940 0.664900 0.547160 0.972034
P5    P     P_3+3 0.838285 0.584265 0.351252 0.983783
P6    P     P_3+3 0.382576 0.277414 0.553595 0.988730
P7    P     P_3+3 0.399249 0.441070 0.376922 0.965953
P8    P     P_3+3 0.419899 0.720591 0.440385 0.918324

loop_
_geom_bond_atom_site_label_1
_geom_bond_atom_site_label_2
_ccdc_geom_bond_type
C57   H41   S    
C53   C57   A    
C56   H20   S    
C71   C72   A    
O4    P1    S    
C67   O9    S    
C78   C82   S    
O28   P4    D    
C49   C75   A    
C28   H55   S    
C55   C60   A    
C5    C83   S    
C43   C44   S    
C1    H16   S    
C79   H48   S    
C62   N2    Am   
C67   H24   S    
C76   O12   S    
C35   C36   A    
C54   C77   A    
C61   C79   A    
C34   H14   S    
O2    P5    D    
C28   O31   S    
C33   C35   A    
Ba2   P4    S    
C29   H35   S    
C65   C70   D    
C12   O18   S    
C48   C74   A    
O20   P3    S    
C74   H42   S    
C41   C50   S    
C19   C31   A    
C13   C14   A    
C20   C36   A    
Ba1   O15   S    
C4    C86   S    
C54   C55   A    
O6    P7    D    
C34   H13   S    
Ba1   Ba2   S    
C62   O14   D    
C51   C66   S    
C40   H23   S    
Ba2   O32   S    
C12   H1    S    
C7    C11   A    
C33   P6    S    
C31   C33   A    
C9    C13   A    
C76   C81   S    
C23   H10   S    
C46   C49   A    
Ba1   O20   S    
Ba2   O4    S    
C42   P7    S    
O7    P7    S    
C39   C44   D    
O29   P4    S    
C16   H47   S    
C68   C69   D    
C43   H37   S    
C53   C71   A    
Ba2   O28   S    
Ba1   P2    S    
C42   C50   D    
C75   C80   A    
C57   C58   A    
C70   N2    S    
C19   C20   A    
C4    O23   S    
C27   C29   A    
C39   C41   S    
C38   N1    Am   
C59   C60   A    
C75   H44   S    
O16   P6    D    
C44   N1    S    
C51   C68   D    
Ba2   O6    S    
Ba1   O29   S    
C40   H34   S    
C69   H49   S    
C35   H36   S    
Ba1   O32   S    
C15   P4    S    
C4    C16   S    
Ba1   O19   S    
O3    P5    S    
C72   C73   A    
C37   N1    Am   
C65   C66   S    
C46   C72   A    
C26   C30   A    
C14   H30   S    
C7    C87   A    
C21   H31   S    
O15   P6    S    
C2    C21   A    
C52   H45   S    
C6    C7    A    
O21   P3    D    
C18   C26   A    
C66   P3    S    
C76   H3    S    
C81   H5    S    
C63   O11   D    
C28   H54   S    
C56   H22   S    
C58   C59   A    
C30   C32   A    
C37   O10   D    
Ba1   O1    S    
C16   H17   S    
C64   H63   S    
C80   H50   S    
C52   O17   S    
C64   H64   S    
C23   H11   S    
C86   O27   D    
C29   C30   A    
C78   H26   S    
Ba1   O4    S    
C23   O7    S    
C83   O24   D    
C36   P1    S    
C81   H6    S    
C27   H33   S    
C60   C61   A    
C84   O25   D    
C31   C32   A    
C24   C25   A    
C1    H4    S    
Ba2   O29   S    
C18   C19   A    
C4    H27   S    
C67   H25   S    
C1    C12   S    
O19   P2    D    
C52   H56   S    
C13   P8    S    
Ba2   O5    S    
C46   C47   A    
C37   C47   A    
O33   P5    S    
C47   C48   A    
C45   H18   S    
C53   C55   A    
O17   P1    S    
C71   C74   A    
O30   P8    S    
C40   H12   S    
O18   P6    S    
C42   C43   D    
C68   P2    S    
C12   H8    S    
C3    C5    A    
C2    C87   A    
O12   P2    S    
C78   H28   S    
C8    C84   S    
C16   H53   S    
O32   P7    S    
C56   H21   S    
C86   H61   S    
Ba1   O5    S    
C28   C40   S    
C83   H58   S    
C22   C24   A    
C2    C3    A    
C84   H59   S    
C58   H40   S    
C85   O26   D    
C39   H43   S    
C9    C10   A    
O9    P8    S    
C73   C80   A    
C52   C64   S    
C82   H57   S    
C76   H2    S    
C38   C49   A    
C77   H46   S    
C18   C87   A    
C77   C79   A    
C41   P5    S    
C3    H29   S    
C34   H15   S    
C17   C22   A    
Ba2   O30   S    
O5    P2    S    
C64   H62   S    
C63   N2    Am   
C65   H39   S    
O1    P1    D    
C45   C56   S    
O23   P3    S    
C1    H9    S    
C14   C15   A    
O8    P8    D    
C81   H7    S    
C10   C17   A    
C22   H32   S    
C15   C17   A    
C51   H52   S    
C32   C85   S    
O31   P4    S    
C82   O22   D    
Ba2   O33   S    
C38   O13   D    
C5    C6    A    
C8    C9    A    
C23   C34   S    
C61   C62   A    
C50   H51   S    
C59   C63   A    
C69   C70   S    
C10   C11   A    
C24   C27   A    
C6    C8    A    
C45   H19   S    
C85   H60   S    
C25   C26   A    
C54   C73   A    
C20   C21   A    
C11   C25   A    
C67   C78   S    
C48   H38   S    
C45   O3    S    
Ba1   P1    S    
