data_mof_unit_40718.cif
_audit_creation_date              2012-12-11T14:07:18-0500
_audit_creation_method            fapswitch 2.2
_symmetry_space_group_name_H-M    P1
_symmetry_Int_Tables_number       1
_space_group_crystal_system       triclinic
_cell_length_a                    19.83078
_cell_length_b                    17.057456
_cell_length_c                    15.438802
_cell_angle_alpha                 89.781461
_cell_angle_beta                  53.23363
_cell_angle_gamma                 89.628768
_cell_volume                      4183.46327741

loop_
_atom_site_label
_atom_site_type_symbol
_atom_type_description
_atom_site_fract_x
_atom_site_fract_y
_atom_site_fract_z
_atom_type_partial_charge
C1    C     C_R   0.341886 0.177398 0.044988 0.738766
C2    C     C_R   0.380746 0.801352 0.991309 0.719106
C3    C     C_R   0.841886 0.677398 0.044987 0.738764
C4    C     C_R   0.880746 0.301352 0.991309 0.719107
C5    C     C_R   0.627846 0.891396 0.110810 0.866082
C6    C     C_R   0.666082 0.085075 0.056073 0.812647
C7    C     C_R   0.127846 0.391396 0.110810 0.866080
C8    C     C_R   0.166082 0.585075 0.056073 0.812647
C9    C     C_R   0.705694 0.150571 0.991543 -0.584764
C10   C     C_R   0.641877 0.812390 0.082133 -0.598702
C11   C     C_R   0.205694 0.650571 0.991543 -0.584765
C12   C     C_R   0.141877 0.312390 0.082133 -0.598703
C13   C     C_R   0.691634 0.861632 0.677747 -0.029577
C14   C     C_R   0.611875 0.182876 0.694266 -0.084551
C15   C     C_R   0.191635 0.361632 0.677747 -0.029570
C16   C     C_R   0.111876 0.682875 0.694265 -0.084545
C17   C     C_3   0.250392 0.198811 0.477511 0.402830
C18   C     C_3   0.179629 0.867440 0.514995 0.404918
C19   C     C_3   0.750392 0.698810 0.477513 0.402828
C20   C     C_3   0.679631 0.367441 0.514997 0.404919
C21   C     C_3   0.198145 0.246284 0.581356 0.440483
C22   C     C_3   0.121516 0.816380 0.617063 0.490170
C23   C     C_3   0.698145 0.746284 0.581357 0.440484
C24   C     C_3   0.621516 0.316381 0.617064 0.490173
C25   C     C_3   0.383114 0.236792 0.457512 0.524885
C26   C     C_3   0.305828 0.779083 0.451998 0.592614
C27   C     C_3   0.883115 0.736794 0.457510 0.524891
C28   C     C_3   0.805828 0.279080 0.451996 0.592622
C29   C     C_3   0.832062 0.819542 0.371723 -0.545587
C30   C     C_3   0.707296 0.248209 0.403425 -0.517909
C31   C     C_3   0.332065 0.319543 0.371723 -0.545593
C32   C     C_3   0.207300 0.748207 0.403423 -0.517910
C33   C     C_3   0.339972 0.234306 0.400376 -0.306797
C34   C     C_3   0.250842 0.815449 0.420651 -0.290258
C35   C     C_3   0.839971 0.734306 0.400376 -0.306792
C36   C     C_3   0.750842 0.315449 0.420651 -0.290253
C37   C     C_3   0.749129 0.817570 0.575985 -0.388753
C38   C     C_3   0.658731 0.232031 0.596188 -0.357213
C39   C     C_3   0.249130 0.317570 0.575985 -0.388759
C40   C     C_3   0.158732 0.732031 0.596188 -0.357215
C41   C     C_3   0.830993 0.788756 0.559704 0.487744
C42   C     C_3   0.750612 0.236273 0.559747 0.416337
C43   C     C_3   0.330993 0.288755 0.559704 0.487744
C44   C     C_3   0.250612 0.736274 0.559748 0.416336
C45   C     C_R   0.349700 0.829650 0.217593 0.020119
C46   C     C_R   0.397975 0.198971 0.208413 -0.036230
C47   C     C_R   0.849700 0.329650 0.217593 0.020127
C48   C     C_R   0.897974 0.698971 0.208413 -0.036226
C49   C     C_3   0.776858 0.868119 0.475038 0.627959
C50   C     C_3   0.659958 0.194885 0.502803 0.626955
C51   C     C_3   0.276860 0.368119 0.475038 0.627955
C52   C     C_3   0.159961 0.694883 0.502802 0.626949
C53   C     C_2   0.269382 0.693258 0.986962 0.920036
C54   C     C_2   0.179523 0.252568 0.108259 0.981780
C55   C     C_2   0.769382 0.193258 0.986962 0.920036
C56   C     C_2   0.679523 0.752568 0.108259 0.981781
C57   C     C_2   0.813849 0.248092 0.910724 -0.184870
C58   C     C_2   0.719216 0.692838 0.038106 -0.227547
C59   C     C_2   0.313849 0.748092 0.910724 -0.184871
C60   C     C_2   0.219216 0.192838 0.038106 -0.227546
C61   C     C_R   0.368307 0.885963 0.894935 0.825833
C62   C     C_R   0.330464 0.088729 0.951225 0.730984
C63   C     C_R   0.868307 0.385963 0.894935 0.825832
C64   C     C_R   0.830464 0.588729 0.951225 0.730984
C65   C     C_R   0.405882 0.107175 0.304235 0.009253
C66   C     C_R   0.357869 0.921305 0.314288 -0.066452
C67   C     C_R   0.905882 0.607175 0.304235 0.009244
C68   C     C_R   0.857869 0.421305 0.314288 -0.066459
C69   C     C_R   0.288913 0.150732 0.022001 -0.307008
C70   C     C_R   0.352129 0.809565 0.930912 -0.306245
C71   C     C_R   0.788913 0.650732 0.022001 -0.307008
C72   C     C_R   0.852129 0.309565 0.930912 -0.306245
C73   C     C_R   0.308566 0.860813 0.320648 0.113103
C74   C     C_R   0.386081 0.184274 0.304270 0.168822
C75   C     C_R   0.808566 0.360813 0.320648 0.113091
C76   C     C_R   0.886080 0.684274 0.304270 0.168813
C77   C     C_R   0.657380 0.180678 0.961722 0.669391
C78   C     C_R   0.616126 0.798588 0.019102 0.731703
C79   C     C_R   0.157380 0.680678 0.961722 0.669392
C80   C     C_R   0.116126 0.298588 0.019102 0.731701
C81   C     C_R   0.650067 0.828886 0.780600 0.797219
C82   C     C_R   0.601221 0.198201 0.789599 0.902945
C83   C     C_R   0.150067 0.328886 0.780600 0.797221
C84   C     C_R   0.101222 0.698201 0.789599 0.902945
C85   C     C_R   0.592054 0.105557 0.696676 -0.149472
C86   C     C_R   0.642273 0.923541 0.686122 -0.090100
C87   C     C_R   0.092054 0.605557 0.696676 -0.149468
C88   C     C_R   0.142273 0.423541 0.686122 -0.090099
H1    H     H_    0.868704 0.840452 0.550504 0.182597
H2    H     H_    0.776111 0.176067 0.551028 0.185810
H3    H     H_    0.368705 0.340451 0.550504 0.182598
H4    H     H_    0.276113 0.676069 0.551028 0.185813
N1    N     N_R   0.408680 0.130160 0.995800 -0.178449
N2    N     N_R   0.408680 0.869840 0.995800 -0.195418
N3    N     N_R   0.908680 0.630160 0.995800 -0.178449
N4    N     N_R   0.908680 0.369840 0.995800 -0.195418
N5    N     N_R   0.421680 0.867580 0.153120 -0.058061
N6    N     N_R   0.421680 0.132420 0.153120 -0.078759
N7    N     N_R   0.921680 0.367580 0.153120 -0.058062
N8    N     N_R   0.921680 0.632420 0.153120 -0.078759
N9    N     N_R   0.403730 0.921770 0.935950 -0.187122
N10   N     N_R   0.403730 0.078230 0.935950 -0.172282
N11   N     N_R   0.903730 0.421770 0.935950 -0.187122
N12   N     N_R   0.903730 0.578230 0.935950 -0.172282
N13   N     N_R   0.426630 0.075970 0.212960 -0.088826
N14   N     N_R   0.426630 0.924030 0.212960 -0.079869
N15   N     N_R   0.926630 0.575970 0.212960 -0.088826
N16   N     N_R   0.926630 0.424030 0.212960 -0.079869
N17   N     N_R   0.591320 0.134600 0.004200 -0.151723
N18   N     N_R   0.591320 0.865400 0.004200 -0.169997
N19   N     N_R   0.091320 0.634600 0.004200 -0.151723
N20   N     N_R   0.091320 0.365400 0.004200 -0.169997
N21   N     N_R   0.578320 0.867660 0.846880 -0.130405
N22   N     N_R   0.578320 0.132340 0.846880 -0.155857
N23   N     N_R   0.078320 0.367660 0.846880 -0.130405
N24   N     N_R   0.078320 0.632340 0.846880 -0.155858
N25   N     N_R   0.573370 0.074390 0.787040 -0.115165
N26   N     N_R   0.573370 0.925610 0.787040 -0.101437
N27   N     N_R   0.073370 0.574390 0.787040 -0.115165
N28   N     N_R   0.073370 0.425610 0.787040 -0.101437
N29   N     N_R   0.596270 0.927870 0.064040 -0.199613
N30   N     N_R   0.596270 0.072130 0.064040 -0.179895
N31   N     N_R   0.096270 0.427870 0.064040 -0.199612
N32   N     N_R   0.096270 0.572130 0.064040 -0.179895
Ni1   Ni    Ni4+2 0.500000 0.131190 0.000000 0.299398
Ni2   Ni    Ni4+2 0.500000 0.868810 0.000000 0.349339
Ni3   Ni    Ni4+2 1.000000 0.631190 0.000000 0.299398
Ni4   Ni    Ni4+2 1.000000 0.368810 0.000000 0.349339
Ni5   Ni    Ni4+2 0.488650 1.000000 0.862740 0.269731
Ni6   Ni    Ni4+2 0.988650 0.500000 0.862740 0.269731
Ni7   Ni    Ni4+2 0.511350 1.000000 0.137260 0.268651
Ni8   Ni    Ni4+2 0.011350 0.500000 0.137260 0.268650
F1    F     F_    0.339510 0.248734 0.084636 -0.626758
F2    F     F_    0.409095 0.733087 0.004763 -0.567640
F3    F     F_    0.839510 0.748734 0.084635 -0.626758
F4    F     F_    0.909095 0.233087 0.004763 -0.567639
H5    H     H_    0.219279 0.199491 0.436740 0.172063
H6    H     H_    0.142340 0.895055 0.490595 0.157644
H7    H     H_    0.719279 0.699487 0.436742 0.172062
H8    H     H_    0.642343 0.395059 0.490597 0.157643
F5    F     F_    0.624223 0.770877 0.598153 -0.658104
F6    F     F_    0.541304 0.313956 0.643413 -0.660493
F7    F     F_    0.124223 0.270877 0.598154 -0.658101
F8    F     F_    0.041303 0.813954 0.643413 -0.660490
H9    H     H_    0.180124 0.207473 0.650073 0.230313
H10   H     H_    0.116111 0.844216 0.685757 0.241909
H11   H     H_    0.680122 0.707473 0.650075 0.230314
H12   H     H_    0.616112 0.344216 0.685759 0.241911
H13   H     H_    0.387689 0.176606 0.481529 0.150556
H14   H     H_    0.341284 0.825416 0.459526 0.144937
H15   H     H_    0.887693 0.676609 0.481525 0.150556
H16   H     H_    0.841287 0.325411 0.459521 0.144936
F9    F     F_    0.814260 0.746133 0.646882 -0.606091
F10   F     F_    0.754052 0.275240 0.635824 -0.620593
F11   F     F_    0.314260 0.246133 0.646884 -0.606092
F12   F     F_    0.254051 0.775241 0.635826 -0.620593
H17   H     H_    0.895437 0.846434 0.316426 0.298192
H18   H     H_    0.753329 0.210879 0.333065 0.300554
H19   H     H_    0.395440 0.346434 0.316428 0.298193
H20   H     H_    0.253335 0.710876 0.333064 0.300556
H21   H     H_    0.802077 0.820319 0.329602 0.206491
H22   H     H_    0.663138 0.273066 0.388345 0.192176
H23   H     H_    0.302082 0.320322 0.329599 0.206491
H24   H     H_    0.163143 0.773061 0.388339 0.192176
H25   H     H_    0.721184 0.887426 0.479531 0.142065
H26   H     H_    0.594602 0.186363 0.529025 0.143071
H27   H     H_    0.221186 0.387426 0.479529 0.142065
H28   H     H_    0.094605 0.686361 0.529022 0.143070
F13   F     F_    0.819894 0.934364 0.468618 -0.621146
F14   F     F_    0.700233 0.122311 0.473126 -0.631586
F15   F     F_    0.319895 0.434365 0.468620 -0.621147
F16   F     F_    0.200235 0.622309 0.473126 -0.631588
F17   F     F_    0.464286 0.265662 0.387876 -0.654107
F18   F     F_    0.364757 0.727360 0.372483 -0.620539
F19   F     F_    0.964286 0.765666 0.387873 -0.654107
F20   F     F_    0.864753 0.227355 0.372481 -0.620538
H29   H     H_    0.330963 0.781192 0.192202 0.181035
H30   H     H_    0.400466 0.255703 0.175608 0.211422
H31   H     H_    0.830964 0.281191 0.192202 0.181036
H32   H     H_    0.900465 0.755703 0.175608 0.211422
F21   F     F_    0.268050 0.687058 0.075937 -0.596327
F22   F     F_    0.184645 0.264466 0.191185 -0.577433
F23   F     F_    0.768050 0.187058 0.075937 -0.596326
F24   F     F_    0.684645 0.764466 0.191185 -0.577433
H33   H     H_    0.811386 0.254204 0.842642 0.221858
H34   H     H_    0.712304 0.682465 0.974631 0.237263
H35   H     H_    0.311386 0.754204 0.842642 0.221858
H36   H     H_    0.212304 0.182465 0.974631 0.237263
F25   F     F_    0.370470 0.913495 0.810872 -0.557099
F26   F     F_    0.306365 0.050549 0.897254 -0.572205
F27   F     F_    0.870470 0.413495 0.810872 -0.557098
F28   F     F_    0.806365 0.550549 0.897254 -0.572205
H37   H     H_    0.410916 0.077574 0.362195 0.156510
H38   H     H_    0.348392 0.955548 0.379334 0.206427
H39   H     H_    0.910916 0.577574 0.362195 0.156515
H40   H     H_    0.848392 0.455548 0.379333 0.206432
F29   F     F_    0.664308 0.252326 0.919278 -0.585292
F30   F     F_    0.588082 0.728591 0.010999 -0.567964
F31   F     F_    0.164308 0.752326 0.919277 -0.585292
F32   F     F_    0.088082 0.228591 0.010999 -0.567963
F33   F     F_    0.668186 0.760432 0.807128 -0.586076
F34   F     F_    0.592124 0.270280 0.831823 -0.581848
F35   F     F_    0.168185 0.260432 0.807128 -0.586075
F36   F     F_    0.092125 0.770281 0.831822 -0.581846
H41   H     H_    0.581870 0.076164 0.643587 0.211081
H42   H     H_    0.652798 0.961092 0.622941 0.187533
H43   H     H_    0.081870 0.576164 0.643587 0.211080
H44   H     H_    0.152798 0.461091 0.622941 0.187534
F37   F     F_    0.620068 0.919685 0.198280 -0.553643
F38   F     F_    0.687281 0.048173 0.114363 -0.556129
F39   F     F_    0.120068 0.419685 0.198280 -0.553643
F40   F     F_    0.187281 0.548173 0.114364 -0.556130
F41   F     F_    0.253044 0.121407 0.503649 -0.635233
F42   F     F_    0.212392 0.927251 0.539857 -0.620095
F43   F     F_    0.753047 0.621407 0.503652 -0.635234
F44   F     F_    0.712397 0.427248 0.539859 -0.620096

loop_
_geom_bond_atom_site_label_1
_geom_bond_atom_site_label_2
_ccdc_geom_bond_type
C61   C70   A    
C41   H1    S    
C22   H10   S    
C13   C81   A    
N31   Ni8   S    
C58   H34   S    
N8    Ni3   S    
C48   C76   A    
C51   H27   S    
C2    C70   A    
N10   Ni5   S    
C4    C72   A    
C25   C43   S    
C6    C9    A    
C53   C59   D    
C26   C44   S    
N13   Ni7   S    
N16   Ni8   S    
C54   C60   D    
C15   C83   A    
C68   C75   A    
C49   H25   S    
N7    N16   A    
C43   F11   S    
C14   C82   A    
N32   Ni8   S    
C2    F2    S    
N6    N13   A    
C43   H3    S    
C37   C41   S    
N28   Ni6   S    
C20   F44   S    
C45   C73   A    
C31   C51   S    
C42   F10   S    
C66   N14   A    
C38   C42   S    
C53   F21   S    
C68   H40   S    
N18   N29   A    
C67   H39   S    
N17   N30   A    
C26   F18   S    
C80   F32   S    
C5    N29   A    
C16   C84   A    
N27   Ni6   S    
C47   N7    A    
N4    Ni4   S    
C25   H13   S    
C64   C71   A    
C18   H6    S    
C46   H30   S    
C32   C52   S    
C47   H31   S    
C66   H38   S    
C39   C51   S    
C4    N4    A    
C26   C34   S    
N6    Ni1   S    
C20   C24   S    
N2    N9    A    
C24   F6    S    
N24   Ni3   S    
C13   C86   A    
C50   H26   S    
C16   C87   A    
C24   C38   S    
C54   F22   S    
C59   H35   S    
C9    C55   S    
C88   N28   A    
N25   Ni5   S    
C15   C39   S    
C13   C37   S    
C44   H4    S    
C45   H29   S    
C4    F4    S    
C84   F36   S    
C46   N6    A    
C84   N24   A    
N12   Ni6   S    
C61   F25   S    
C86   H42   S    
N5    Ni2   S    
C18   F42   S    
C17   C33   S    
C88   H44   S    
C17   F41   S    
C65   N13   A    
C64   F28   S    
C41   F9    S    
N2    Ni2   S    
C10   C78   A    
N14   Ni7   S    
C48   N8    A    
C31   H23   S    
C35   C76   S    
C1    F1    S    
C48   H32   S    
C79   F31   S    
C85   H41   S    
C44   F12   S    
C83   N23   A    
C2    N2    A    
C28   C36   S    
C82   N22   A    
N20   N31   A    
C83   F35   S    
C24   H12   S    
C27   F19   S    
C82   F34   S    
N22   Ni1   S    
C19   C23   S    
C28   F20   S    
C29   C49   S    
N21   Ni2   S    
C56   F24   S    
C27   C35   S    
C34   C73   S    
C40   C52   S    
C66   C73   A    
C23   H11   S    
C1    C69   A    
N23   Ni4   S    
C62   C69   A    
C32   H24   S    
C42   H2    S    
C32   C34   S    
C86   N26   A    
C61   N9    A    
C87   N27   A    
C36   C75   S    
C29   H21   S    
C14   C38   S    
C37   C49   S    
C27   C41   S    
C7    F39   S    
C21   C39   S    
C3    F3    S    
C26   H14   S    
C85   N25   A    
C22   C40   S    
C80   N20   A    
C31   C33   S    
C60   H36   S    
C50   F14   S    
C9    C77   A    
C62   F26   S    
C77   N17   A    
C18   C34   S    
C21   F7    S    
N7    Ni4   S    
C11   C79   A    
N18   Ni2   S    
C38   C50   S    
N5    N14   A    
C63   N11   A    
N1    Ni1   S    
C16   C40   S    
C28   H16   S    
C55   C57   D    
N19   Ni3   S    
C55   F23   S    
C7    C12   A    
C30   H22   S    
C81   N21   A    
N30   Ni7   S    
C46   C74   A    
C3    N3    A    
C10   C56   S    
N3    N12   A    
N17   Ni1   S    
C64   N12   A    
N8    N15   A    
C27   H15   S    
N19   N32   A    
C18   C22   S    
C57   H33   S    
C8    N32   A    
C30   H18   S    
C14   C85   A    
C7    N31   A    
N15   Ni8   S    
C11   C53   S    
N1    N10   A    
C29   H17   S    
C3    C71   A    
C6    F38   S    
C30   C36   S    
C5    F37   S    
C29   C35   S    
C78   N18   A    
N24   N27   A    
C79   N19   A    
C31   H19   S    
C20   H8    S    
C51   F15   S    
C47   C75   A    
C5    C10   A    
N26   Ni5   S    
C19   C35   S    
C52   H28   S    
C49   F13   S    
C17   H5    S    
C67   N15   A    
N29   Ni7   S    
C25   F17   S    
C68   N16   A    
C60   C69   S    
C8    C11   A    
C63   F27   S    
C12   C80   A    
C28   C42   S    
C52   F16   S    
C23   C37   S    
C56   C58   D    
C87   H43   S    
C19   F43   S    
C65   H37   S    
C30   C50   S    
C58   C71   S    
N11   Ni6   S    
C17   C21   S    
N20   Ni4   S    
N22   N25   A    
C25   C33   S    
C65   C74   A    
C59   C70   S    
N21   N26   A    
C20   C36   S    
N3    Ni3   S    
C33   C74   S    
C40   C44   S    
C63   C72   A    
C39   C43   S    
C1    N1    A    
N23   N28   A    
N4    N11   A    
C22   F8    S    
C57   C72   S    
C6    N30   A    
C23   F5    S    
C45   N5    A    
C67   C76   A    
C78   F30   S    
C62   N10   A    
C8    F40   S    
C77   F29   S    
C19   H7    S    
C12   C54   S    
C81   F33   S    
C21   H9    S    
C15   C88   A    
C32   H20   S    
N9    Ni5   S    
