data_mof_unit_61615.cif
_audit_creation_date              2012-12-11T17:18:39-0500
_audit_creation_method            fapswitch 2.2
_symmetry_space_group_name_H-M    P1
_symmetry_Int_Tables_number       1
_space_group_crystal_system       triclinic
_cell_length_a                    27.632004
_cell_length_b                    22.532495
_cell_length_c                    20.984592
_cell_angle_alpha                 90.000068
_cell_angle_beta                  51.331806
_cell_angle_gamma                 90.078995
_cell_volume                      10201.1407051

loop_
_atom_site_label
_atom_site_type_symbol
_atom_type_description
_atom_site_fract_x
_atom_site_fract_y
_atom_site_fract_z
_atom_type_partial_charge
Br1   Br    Br    0.871658 0.531018 0.834150 -0.458179
Br2   Br    Br    0.067802 0.271053 0.497681 -0.500269
Br3   Br    Br    0.121435 0.717486 0.437460 -0.479678
Br4   Br    Br    0.878565 0.282514 0.562540 -0.479677
Br5   Br    Br    0.379074 0.217559 0.561820 -0.479813
Br6   Br    Br    0.620926 0.782441 0.438180 -0.479812
Br7   Br    Br    0.567702 0.228970 0.498019 -0.500536
Br8   Br    Br    0.432297 0.771030 0.501981 -0.500535
Br9   Br    Br    0.864104 0.146476 0.808719 -0.413016
Br10  Br    Br    0.135896 0.853523 0.191281 -0.413016
Br11  Br    Br    0.297423 0.227115 0.140914 -0.440778
Br12  Br    Br    0.128341 0.468982 0.165850 -0.458178
Br13  Br    Br    0.702576 0.772884 0.859086 -0.440779
Br14  Br    Br    0.201669 0.726818 0.859398 -0.440439
Br15  Br    Br    0.798331 0.273182 0.140602 -0.440439
Br16  Br    Br    0.636004 0.646859 0.191899 -0.413273
Br17  Br    Br    0.363997 0.353142 0.808100 -0.413273
Br18  Br    Br    0.023546 0.567486 0.234353 -0.485871
Br19  Br    Br    0.976454 0.432514 0.765647 -0.485872
Br20  Br    Br    0.476407 0.067272 0.765759 -0.485870
Br21  Br    Br    0.523592 0.932728 0.234241 -0.485870
Br22  Br    Br    0.629288 0.030701 0.165855 -0.459077
Br23  Br    Br    0.370712 0.969298 0.834144 -0.459077
Br24  Br    Br    0.932198 0.728947 0.502319 -0.500270
C1    C     C_R   0.895827 0.568352 0.736593 0.354700
C2    C     C_1   0.892771 0.277490 0.832556 0.112507
C3    C     C_R   0.292485 0.320045 0.048667 -0.046054
C4    C     C_R   0.793201 0.179883 0.048921 -0.046067
C5    C     C_R   0.206799 0.820117 0.951079 -0.046068
C6    C     C_R   0.370163 0.260875 0.899971 -0.050840
C7    C     C_R   0.629837 0.739125 0.100029 -0.050840
C8    C     C_R   0.151520 0.817810 0.096994 0.360157
C9    C     C_R   0.848480 0.182190 0.903006 0.360157
C10   C     C_R   0.681170 0.734388 0.955256 0.361224
C11   C     C_R   0.318829 0.265611 0.044744 0.361224
C12   C     C_R   0.819546 0.234490 0.044686 0.361176
C13   C     C_1   0.759526 0.656700 0.874630 0.109905
C14   C     C_R   0.180454 0.765510 0.955314 0.361176
C15   C     C_R   0.348114 0.317630 0.902677 0.360174
C16   C     C_R   0.651886 0.682370 0.097323 0.360174
C17   C     C_1   0.240474 0.343300 0.125370 0.109904
C18   C     C_1   0.741192 0.156626 0.125758 0.110029
C19   C     C_1   0.258808 0.843374 0.874242 0.110029
C20   C     C_1   0.392771 0.222463 0.832499 0.112037
C21   C     C_1   0.607229 0.777537 0.167501 0.112037
C22   C     C_1   0.905310 0.312560 0.781295 0.117001
C23   C     C_1   0.094690 0.687440 0.218705 0.117001
C24   C     C_1   0.194140 0.361779 0.187897 0.098910
C25   C     C_R   0.104173 0.431648 0.263407 0.354699
C26   C     C_1   0.805860 0.638221 0.812103 0.098910
C27   C     C_1   0.305203 0.861883 0.811681 0.098963
C28   C     C_1   0.694797 0.138117 0.188319 0.098963
C29   C     C_1   0.594455 0.812609 0.218836 0.117295
C30   C     C_1   0.405545 0.187391 0.781163 0.117295
C31   C     C_1   0.206088 0.636663 0.468381 0.068282
C32   C     C_1   0.793912 0.363337 0.531617 0.068283
C33   C     C_1   0.867692 0.680454 0.422738 0.082517
C34   C     C_1   0.132308 0.319546 0.577262 0.082517
C35   C     C_1   0.632000 0.180598 0.577756 0.082599
C36   C     C_R   0.066843 0.585437 0.276714 0.398830
C37   C     C_1   0.367999 0.819402 0.422245 0.082599
C38   C     C_1   0.294475 0.136867 0.530486 0.068486
C39   C     C_1   0.705525 0.863132 0.469514 0.068486
C40   C     C_2   0.307518 0.687100 0.426001 -0.138419
C41   C     C_2   0.692483 0.312899 0.573996 -0.138418
C42   C     C_2   0.823037 0.762614 0.385014 -0.141840
C43   C     C_2   0.176963 0.237386 0.614986 -0.141841
C44   C     C_2   0.676114 0.262785 0.616426 -0.141770
C45   C     C_2   0.323885 0.737217 0.383575 -0.141771
C46   C     C_2   0.193477 0.187509 0.572160 -0.138322
C47   C     C_R   0.933157 0.414563 0.723285 0.398830
C48   C     C_2   0.806523 0.812491 0.427839 -0.138323
C49   C     C_1   0.746125 0.342863 0.552467 0.082314
C50   C     C_1   0.253875 0.657136 0.447531 0.082314
C51   C     C_1   0.149939 0.282624 0.599226 0.094961
C52   C     C_1   0.850061 0.717376 0.400774 0.094961
C53   C     C_1   0.350639 0.782476 0.399857 0.094882
C54   C     C_1   0.649360 0.217525 0.600145 0.094883
C55   C     C_1   0.753103 0.842543 0.449048 0.082608
C56   C     C_1   0.246897 0.157457 0.550952 0.082608
C57   C     C_R   0.881919 0.433903 0.457984 -0.134774
C58   C     C_R   0.433366 0.085443 0.723142 0.399694
C59   C     C_R   0.118081 0.566096 0.542016 -0.134774
C60   C     C_R   0.099142 0.419652 0.572017 -0.150198
C61   C     C_R   0.900858 0.580348 0.427983 -0.150197
C62   C     C_R   0.400854 0.919603 0.427971 -0.149791
C63   C     C_R   0.599146 0.080397 0.572029 -0.149792
C64   C     C_R   0.617911 0.933867 0.542368 -0.135533
C65   C     C_R   0.382088 0.066133 0.457632 -0.135534
C66   C     C_R   0.909851 0.650422 0.493670 0.285081
C67   C     C_R   0.090148 0.349578 0.506329 0.285081
C68   C     C_R   0.112985 0.637513 0.473552 0.343106
C69   C     C_R   0.566634 0.914557 0.276858 0.399695
C70   C     C_R   0.887015 0.362486 0.526447 0.343106
C71   C     C_R   0.387227 0.137556 0.526077 0.341634
C72   C     C_R   0.612773 0.862444 0.473923 0.341634
C73   C     C_R   0.590147 0.150490 0.506414 0.286157
C74   C     C_R   0.409853 0.849510 0.493586 0.286158
C75   C     C_R   0.923861 0.347509 0.655352 -0.086339
C76   C     C_R   0.076139 0.652491 0.344648 -0.086339
C77   C     C_R   0.107249 0.363958 0.337476 -0.109365
C78   C     C_R   0.892751 0.636042 0.662524 -0.109365
C79   C     C_R   0.392605 0.863917 0.662238 -0.110078
C80   C     C_R   0.604647 0.068154 0.263548 0.354450
C81   C     C_R   0.607395 0.136083 0.337762 -0.110079
C82   C     C_R   0.575924 0.847522 0.344774 -0.087069
C83   C     C_R   0.424076 0.152478 0.655226 -0.087069
C84   C     C_R   0.862490 0.615601 0.740213 -0.063915
C85   C     C_R   0.137510 0.384399 0.259787 -0.063915
C86   C     C_R   0.085112 0.642698 0.273669 -0.076721
C87   C     C_R   0.914887 0.357301 0.726331 -0.076721
C88   C     C_R   0.415308 0.142705 0.726066 -0.076445
C89   C     C_R   0.584692 0.857295 0.273934 -0.076445
C90   C     C_R   0.638042 0.115415 0.260120 -0.063948
C91   C     C_R   0.395353 0.931845 0.736452 0.354450
C92   C     C_R   0.361958 0.884585 0.739881 -0.063948
C93   C     C_R   0.851469 0.385458 0.506670 -0.034066
C94   C     C_R   0.148531 0.614541 0.493329 -0.034066
C95   C     C_R   0.114081 0.362074 0.546172 -0.011571
C96   C     C_R   0.885918 0.637926 0.453828 -0.011572
C97   C     C_R   0.385933 0.861965 0.453730 -0.011261
C98   C     C_R   0.614067 0.138035 0.546270 -0.011261
C99   C     C_R   0.648228 0.885389 0.493924 -0.033933
C100  C     C_R   0.351772 0.114611 0.506076 -0.033933
C101  C     C_R   0.809917 0.152694 0.977716 -0.230591
C102  C     C_1   0.107229 0.722510 0.167443 0.112507
C103  C     C_R   0.190083 0.847306 0.022284 -0.230591
C104  C     C_R   0.357798 0.236255 0.970073 -0.227354
C105  C     C_R   0.642201 0.763744 0.029927 -0.227354
C106  C     C_R   0.141679 0.736127 0.030092 -0.227294
C107  C     C_R   0.858321 0.263873 0.969908 -0.227294
C108  C     C_R   0.690652 0.652904 0.022718 -0.230685
C109  C     C_R   0.309348 0.347096 0.977283 -0.230686
C110  C     C_R   0.129522 0.760889 0.099983 -0.050931
C111  C     C_R   0.870478 0.239111 0.900017 -0.050931
C112  C     C_R   0.707514 0.679955 0.951334 -0.046054
H1    H     H_    0.868125 0.461729 0.429940 0.141860
H2    H     H_    0.068917 0.695978 0.370240 0.218212
H3    H     H_    0.122319 0.328168 0.355066 0.185908
H4    H     H_    0.877681 0.671832 0.644934 0.185907
H5    H     H_    0.377904 0.827783 0.644566 0.186428
H6    H     H_    0.622095 0.172217 0.355434 0.186429
H7    H     H_    0.569145 0.804040 0.370204 0.218532
H8    H     H_    0.430854 0.195960 0.629796 0.218532
H9    H     H_    0.789376 0.110590 0.981120 0.200630
H10   H     H_    0.210624 0.889410 0.018880 0.200630
H11   H     H_    0.374413 0.192196 0.968063 0.201177
H12   H     H_    0.131876 0.538271 0.570059 0.141861
H13   H     H_    0.625586 0.807803 0.031937 0.201177
H14   H     H_    0.125092 0.691947 0.032324 0.201343
H15   H     H_    0.874907 0.308053 0.967676 0.201343
H16   H     H_    0.711182 0.610930 0.019557 0.200477
H17   H     H_    0.288819 0.389070 0.980443 0.200477
H18   H     H_    0.304277 0.749485 0.353834 0.172246
H19   H     H_    0.695718 0.250518 0.646171 0.172245
H20   H     H_    0.822958 0.822733 0.462070 0.177334
H21   H     H_    0.177042 0.177267 0.537929 0.177334
H22   H     H_    0.675916 0.323306 0.539976 0.177313
H23   H     H_    0.102170 0.440793 0.615645 0.171030
H24   H     H_    0.324087 0.676692 0.460018 0.177313
H25   H     H_    0.196411 0.249502 0.644997 0.172245
H26   H     H_    0.803589 0.750498 0.355003 0.172245
H27   H     H_    0.897830 0.559206 0.384355 0.171030
H28   H     H_    0.397895 0.940758 0.384294 0.170832
H29   H     H_    0.602104 0.059243 0.615707 0.170832
H30   H     H_    0.631637 0.961655 0.570565 0.142044
H31   H     H_    0.368363 0.038344 0.429435 0.142044
H32   H     H_    0.931083 0.304022 0.629760 0.218212
N1    N     N_R   0.945330 0.558420 0.657110 -0.080666
N2    N     N_R   0.067050 0.559540 0.548760 -0.059942
N3    N     N_R   0.067050 0.440460 0.548760 -0.065014
N4    N     N_R   0.932950 0.559540 0.451240 -0.065014
N5    N     N_R   0.432950 0.940460 0.451240 -0.064959
N6    N     N_R   0.567050 0.059540 0.548760 -0.064959
N7    N     N_R   0.567050 0.940460 0.548760 -0.060186
N8    N     N_R   0.432950 0.059540 0.451240 -0.060186
N9    N     N_R   0.935620 0.600470 0.495720 -0.082451
N10   N     N_R   0.064380 0.399530 0.504280 -0.082451
N11   N     N_R   0.064380 0.600470 0.504280 -0.076230
N12   N     N_R   0.054670 0.441580 0.342890 -0.080666
N13   N     N_R   0.935620 0.399530 0.495720 -0.076230
N14   N     N_R   0.435620 0.100470 0.495720 -0.076189
N15   N     N_R   0.564380 0.899530 0.504280 -0.076189
N16   N     N_R   0.564380 0.100470 0.504280 -0.082524
N17   N     N_R   0.435620 0.899530 0.495720 -0.082524
N18   N     N_R   0.942650 0.398400 0.612630 -0.078918
N19   N     N_R   0.057350 0.601600 0.387370 -0.078918
N20   N     N_R   0.057350 0.398400 0.387370 -0.062792
N21   N     N_R   0.942650 0.601600 0.612630 -0.062792
N22   N     N_R   0.442650 0.898400 0.612630 -0.062835
N23   N     N_R   0.054670 0.558420 0.342890 -0.093634
N24   N     N_R   0.557350 0.101600 0.387370 -0.062835
N25   N     N_R   0.557350 0.898400 0.387370 -0.078823
N26   N     N_R   0.442650 0.101600 0.612630 -0.078823
N27   N     N_R   0.945330 0.441580 0.657110 -0.093634
N28   N     N_R   0.445330 0.058420 0.657110 -0.093660
N29   N     N_R   0.554670 0.941580 0.342890 -0.093660
N30   N     N_R   0.554670 0.058420 0.342890 -0.080483
N31   N     N_R   0.445330 0.941580 0.657110 -0.080483
N32   N     N_R   0.932950 0.440460 0.451240 -0.059942
Ni1   Ni    Ni4+2 0.004930 0.500000 0.602010 0.269789
Ni2   Ni    Ni4+2 0.995070 0.500000 0.397990 0.269789
Ni3   Ni    Ni4+2 0.504930 0.000000 0.602010 0.269630
Ni4   Ni    Ni4+2 0.495070 0.000000 0.397990 0.269630
Ni5   Ni    Ni4+2 0.998800 0.599610 0.500000 0.271810
Ni6   Ni    Ni4+2 0.001200 0.400390 0.500000 0.271810
Ni7   Ni    Ni4+2 0.498800 0.099610 0.500000 0.272763
Ni8   Ni    Ni4+2 0.501200 0.900390 0.500000 0.272763

loop_
_geom_bond_atom_site_label_1
_geom_bond_atom_site_label_2
_ccdc_geom_bond_type
C71   C100  A    
N4    N9    A    
C74   C97   A    
Br9   C9    S    
N11   Ni5   S    
C76   C86   A    
C48   H20   S    
Br20  C58   S    
C64   H30   S    
C32   C93   S    
N8    Ni4   S    
Br19  C47   S    
N17   Ni8   S    
N1    N21   A    
C60   N3    A    
C19   C27   T    
C57   N32   A    
C38   C100  S    
Br12  C25   S    
C77   H3    S    
C41   C49   S    
C82   H7    S    
C39   C55   T    
C57   H1    S    
N26   Ni7   S    
N20   Ni6   S    
C64   N7    A    
C23   C102  T    
N5    Ni4   S    
C109  H17   S    
C14   C106  A    
C59   C94   A    
C38   C56   T    
Br23  C91   S    
C74   N17   A    
N12   Ni2   S    
C36   N23   A    
C70   C93   A    
C77   C85   A    
C91   C92   A    
C59   N2    A    
C57   C93   A    
C78   N21   A    
Br22  C80   S    
C7    C16   A    
C42   H26   S    
N29   Ni4   S    
C37   C97   S    
N14   Ni7   S    
Br17  C15   S    
C68   C94   A    
Br6   C72   S    
C65   H31   S    
N2    Ni1   S    
Br8   C74   S    
C2    C111  S    
N12   N20   A    
C31   C50   T    
C107  H15   S    
C42   C48   D    
C10   C105  A    
N21   Ni5   S    
C3    C17   S    
C47   C87   A    
C5    C14   A    
C106  H14   S    
N3    N10   A    
C78   C84   A    
N23   Ni2   S    
N24   N30   A    
C9    C111  A    
C77   N20   A    
C58   N28   A    
C25   N12   A    
C44   H19   S    
C35   C98   S    
C24   C85   S    
C16   C108  A    
C66   N9    A    
C21   C29   T    
N25   Ni8   S    
C22   C87   S    
C5    C19   S    
N31   Ni3   S    
N15   Ni8   S    
C81   N24   A    
C6    C20   S    
Br2   C67   S    
C80   N30   A    
C64   C99   A    
C79   H5    S    
C35   C54   T    
Br5   C71   S    
C60   H23   S    
C29   C89   S    
N22   N31   A    
C82   N25   A    
C44   C54   S    
C6    C104  A    
C61   N4    A    
N18   Ni6   S    
C82   C89   A    
C46   C56   S    
C3    C109  A    
N18   N27   A    
C76   N19   A    
C12   C107  A    
N6    N16   A    
C81   H6    S    
C2    C22   T    
C27   C92   S    
C78   H4    S    
C3    C11   A    
C91   N31   A    
Br3   C68   S    
C58   C88   A    
N3    Ni1   S    
C61   C96   A    
C69   N29   A    
C105  H13   S    
C73   C98   A    
C68   N11   A    
Br10  C8    S    
C81   C90   A    
Br14  C14   S    
C43   H25   S    
C47   N27   A    
C10   C112  A    
C108  C112  A    
C41   C44   D    
C75   C87   A    
N19   Ni5   S    
C62   C97   A    
C9    C101  A    
N26   N28   A    
C13   C112  S    
C30   C88   S    
C71   N14   A    
C79   N22   A    
C69   C89   A    
C40   C45   D    
N28   Ni3   S    
N4    Ni2   S    
N16   Ni7   S    
C4    C12   A    
C76   H2    S    
Br16  C16   S    
C33   C96   S    
C80   C90   A    
N22   Ni8   S    
C67   N10   A    
C70   N13   A    
C66   C96   A    
C37   C53   T    
C5    C103  A    
N30   Ni4   S    
C61   H27   S    
N24   Ni7   S    
Br4   C70   S    
C43   C51   S    
C72   N15   A    
Br15  C12   S    
C4    C101  A    
C33   C52   T    
C73   N16   A    
N7    N15   A    
C75   H32   S    
C15   C109  A    
C1    N1    A    
C63   N6    A    
C32   C49   T    
Br7   C73   S    
C72   C99   A    
C8    C103  A    
N19   N23   A    
C26   C84   S    
C45   H18   S    
C41   H22   S    
Br24  C66   S    
C63   C98   A    
C39   C99   S    
Br1   C1    S    
C104  H11   S    
N27   Ni1   S    
C65   C100  A    
C28   C90   S    
C48   C55   S    
C23   C86   S    
C107  C111  A    
C40   H24   S    
N2    N11   A    
N5    N17   A    
C62   N5    A    
C43   C46   D    
C108  H16   S    
Br11  C11   S    
N13   Ni6   S    
C25   C85   A    
N7    Ni3   S    
Br13  C10   S    
C7    C105  A    
C101  H9    S    
C8    C110  A    
C13   C26   T    
C45   C53   S    
C63   H29   S    
Br21  C69   S    
C60   C95   A    
N25   N29   A    
N10   Ni6   S    
C4    C18   S    
C34   C95   S    
C17   C24   T    
N9    Ni5   S    
C6    C15   A    
C79   C92   A    
C67   C95   A    
N6    Ni3   S    
C75   N18   A    
C11   C104  A    
C106  C110  A    
Br18  C36   S    
C36   C86   A    
N8    N14   A    
C103  H10   S    
N1    Ni1   S    
C59   H12   S    
C46   H21   S    
C20   C30   T    
C62   H28   S    
C102  C110  S    
N32   Ni2   S    
C7    C21   S    
C40   C50   S    
C83   C88   A    
C65   N8    A    
C83   H8    S    
N13   N32   A    
C83   N26   A    
C42   C52   S    
C1    C84   A    
C18   C28   T    
C34   C51   T    
C31   C94   S    
