data_mof_unit_22993.cif
_audit_creation_date              2012-12-10T17:16:40-0500
_audit_creation_method            fapswitch 2.2
_symmetry_space_group_name_H-M    P1
_symmetry_Int_Tables_number       1
_space_group_crystal_system       triclinic
_cell_length_a                    10.186007
_cell_length_b                    10.729929
_cell_length_c                    10.897824
_cell_angle_alpha                 91.789277
_cell_angle_beta                  95.582464
_cell_angle_gamma                 80.624412
_cell_volume                      1169.45130411

loop_
_atom_site_label
_atom_site_type_symbol
_atom_type_description
_atom_site_fract_x
_atom_site_fract_y
_atom_site_fract_z
_atom_type_partial_charge
C1    C     C_R   0.443337 0.508445 0.267406 0.833569
C2    C     C_R   0.500828 0.739098 0.506073 0.990083
C3    C     C_R   0.544179 0.104553 0.270781 0.461979
C4    C     C_R   0.460817 0.893413 0.730560 0.459134
C5    C     C_R   0.564250 0.024160 0.167532 -0.227169
C6    C     C_R   0.438878 0.973689 0.833505 -0.221545
C7    C     C_R   0.556479 0.897458 0.173664 -0.179271
C8    C     C_R   0.442970 0.101166 0.826809 -0.184273
C9    C     C_R   0.530848 0.848319 0.282937 -0.136810
C10   C     C_R   0.467129 0.151085 0.717305 -0.140552
C11   C     C_R   0.517544 0.924261 0.391700 -0.010425
C12   C     C_R   0.556706 0.489297 0.732224 0.842192
C13   C     C_R   0.482162 0.075170 0.608741 -0.005416
C14   C     C_R   0.521672 0.054021 0.386095 0.036686
C15   C     C_R   0.479993 0.945021 0.614673 0.034962
C16   C     C_R   0.498695 0.871871 0.504945 -0.167997
C17   C     C_R   0.501688 0.127641 0.495548 -0.167130
C18   C     C_2   0.410114 0.506437 0.134413 0.242691
C19   C     C_2   0.590712 0.479743 0.864414 0.232782
C20   C     C_2   0.512068 0.477097 0.065035 -0.165565
C21   C     C_2   0.491077 0.471841 0.933145 -0.182208
C22   C     C_2   0.072529 0.490017 0.490155 0.118044
C23   C     C_2   0.927519 0.509779 0.510046 0.120149
C24   C     C_R   0.499270 0.260715 0.494190 0.985085
H1    H     H_    0.428666 0.161781 0.907327 0.162894
H2    H     H_    0.614860 0.458186 0.105879 0.215208
H3    H     H_    0.777131 0.495941 0.853966 0.361706
H4    H     H_    0.218895 0.554553 0.146014 0.358555
H5    H     H_    0.890235 0.578360 0.578778 0.150396
H6    H     H_    0.109874 0.421197 0.421643 0.153441
H7    H     H_    0.810041 0.328125 0.328405 0.389199
H8    H     H_    0.189800 0.672575 0.670940 0.391674
H9    H     H_    0.569684 0.836725 0.093089 0.165582
H10   H     H_    0.584203 0.060493 0.080892 0.142010
H11   H     H_    0.420392 0.936727 0.920313 0.142272
H12   H     H_    0.570568 0.247351 0.175344 0.320445
H13   H     H_    0.448527 0.747375 0.829076 0.329221
H14   H     H_    0.521853 0.749505 0.280082 0.140253
H15   H     H_    0.473806 0.250373 0.719906 0.134970
H16   H     H_    0.390379 0.467253 0.891833 0.212554
N1    N     N_2   0.157300 0.551390 0.551120 0.018261
N2    N     N_2   0.842700 0.448610 0.448880 0.019935
O1    O     O_R   0.568940 0.489660 0.307530 -0.619227
O2    O     O_3   0.465235 0.765424 0.743742 -0.793176
O3    O     O_3   0.718782 0.483848 0.918716 -0.748599
O4    O     O_3   0.279935 0.532324 0.080521 -0.748427
O5    O     O_3   0.889292 0.363948 0.363942 -0.693485
O6    O     O_3   0.110582 0.636588 0.635587 -0.693438
O7    O     O_R   0.431060 0.510340 0.692470 -0.616604
O8    O     O_R   0.348880 0.522640 0.340350 -0.628348
O9    O     O_R   0.651120 0.477360 0.659650 -0.628201
O10   O     O_R   0.610030 0.300280 0.483580 -0.574703
O11   O     O_R   0.389970 0.699720 0.516420 -0.578435
O12   O     O_R   0.389970 0.333270 0.516400 -0.638275
O13   O     O_R   0.610030 0.666730 0.483600 -0.635433
O14   O     O_3   0.545787 0.231526 0.258479 -0.797145
Zn1   Zn    Zn3+2 0.646940 0.477980 0.478080 1.008576
Zn2   Zn    Zn3+2 0.353060 0.522020 0.521920 1.007347

loop_
_geom_bond_atom_site_label_1
_geom_bond_atom_site_label_2
_ccdc_geom_bond_type
C24   O10   A    
O11   Zn2   S    
C19   O3    S    
C7    C9    A    
H12   O14   S    
C3    C14   A    
C22   N1    D    
C2    C16   S    
C1    O8    A    
C13   C17   A    
N2    O5    S    
C5    H10   S    
H3    O3    S    
H13   O2    S    
C13   C15   A    
C12   O7    A    
C10   C13   A    
H7    O5    S    
C9    C11   A    
C20   C21   S    
C8    H1    S    
C7    H9    S    
C14   C17   A    
H4    O4    S    
C1    C18   S    
H8    O6    S    
C23   N2    D    
C20   H2    S    
C4    C15   A    
O9    Zn1   S    
C18   O4    S    
N2    Zn1   S    
C8    C10   A    
C9    H14   S    
C19   C21   D    
N1    O6    S    
N1    Zn2   S    
C18   C20   D    
C2    O13   A    
O13   Zn1   S    
O12   Zn2   S    
C11   C14   A    
C17   C24   S    
O10   Zn1   S    
O1    Zn1   S    
C24   O12   A    
C15   C16   A    
O8    Zn2   S    
C23   H5    S    
C12   O9    A    
C6    H11   S    
C12   C19   S    
C4    C6    A    
C3    O14   S    
C5    C7    A    
C22   C23   S    
C6    C8    A    
C22   H6    S    
C1    O1    A    
C11   C16   A    
O7    Zn2   S    
C4    O2    S    
C10   H15   S    
C3    C5    A    
C2    O11   A    
C21   H16   S    
