data_mof_unit_6931.cif
_audit_creation_date              2012-12-10T18:06:37-0500
_audit_creation_method            fapswitch 2.2
_symmetry_space_group_name_H-M    P1
_symmetry_Int_Tables_number       1
_space_group_crystal_system       triclinic
_cell_length_a                    12.575576
_cell_length_b                    13.28225
_cell_length_c                    15.477577
_cell_angle_alpha                 83.044463
_cell_angle_beta                  99.219966
_cell_angle_gamma                 96.210915
_cell_volume                      2522.6481414

loop_
_atom_site_label
_atom_site_type_symbol
_atom_type_description
_atom_site_fract_x
_atom_site_fract_y
_atom_site_fract_z
_atom_type_partial_charge
C1    C     C_R   0.443030 0.309422 0.507864 0.845610
C2    C     C_R   0.679873 0.539579 0.931882 0.160462
C3    C     C_R   0.570016 0.545651 0.895596 0.090237
C4    C     C_R   0.435279 0.514474 0.335870 0.864641
C5    C     C_R   0.751971 0.506988 0.883485 -0.251891
C6    C     C_R   0.717991 0.480689 0.797565 0.002701
C7    C     C_R   0.536363 0.519231 0.810423 -0.274133
C8    C     C_R   0.710708 0.923345 0.560029 -0.208171
C9    C     C_R   0.588725 0.799396 0.485033 -0.083683
C10   C     C_R   0.311266 0.196005 0.425995 -0.195094
C11   C     C_R   0.301233 0.118326 0.372252 -0.158743
C12   C     C_R   0.451396 0.570185 0.095220 0.090014
C13   C     C_R   0.379182 0.049155 0.385329 -0.181134
C14   C     C_R   0.460336 0.047070 0.460362 0.070382
C15   C     C_R   0.473098 0.129560 0.511937 0.092296
C16   C     C_R   0.555054 0.691190 0.488009 0.872177
C17   C     C_R   0.533690 0.970128 0.483113 0.023670
C18   C     C_R   0.629888 0.990298 0.543440 0.169187
C19   C     C_R   0.641511 0.073255 0.591944 -0.239229
C20   C     C_R   0.561037 0.138515 0.580099 -0.206295
C21   C     C_R   0.511631 0.870748 0.455768 -0.081343
C22   C     C_R   0.690871 0.828736 0.529446 -0.222084
C23   C     C_R   0.341298 0.578591 0.059653 0.183618
C24   C     C_R   0.402255 0.206579 0.490491 -0.101161
C25   C     C_R   0.137266 0.651252 0.611727 -0.349669
C26   C     C_R   0.758061 0.376821 0.399973 0.021128
C27   C     C_R   0.853672 0.352437 0.377282 -0.255815
C28   C     C_R   0.565642 0.487073 0.664632 0.843169
C29   C     C_R   0.951114 0.402014 0.412609 -0.207103
C30   C     C_R   0.952755 0.476329 0.471247 0.015055
C31   C     C_R   0.853086 0.498875 0.491497 0.243174
C32   C     C_R   0.048733 0.527277 0.511990 -0.017984
C33   C     C_R   0.043058 0.602900 0.568496 0.192166
C34   C     C_R   0.530329 0.575056 0.038819 0.069306
C35   C     C_R   0.943535 0.626172 0.584398 -0.294197
C36   C     C_R   0.850161 0.572040 0.548805 -0.184933
C37   C     C_R   0.151039 0.504359 0.501022 -0.054159
C38   C     C_R   0.236030 0.623629 0.599154 0.005370
C39   C     C_R   0.399681 0.534900 0.241325 -0.050783
C40   C     C_R   0.608543 0.491819 0.759005 -0.120695
C41   C     C_R   0.262324 0.568724 0.115528 -0.229933
C42   C     C_R   0.291327 0.546248 0.206120 -0.211533
C43   C     C_R   0.478136 0.547239 0.185943 -0.271067
C44   C     C_R   0.403929 0.834119 0.409131 0.117795
C45   C     C_R   0.495513 0.570746 0.947767 0.075300
C46   C     C_R   0.394739 0.804743 0.323858 -0.178964
C47   C     C_R   0.293434 0.772787 0.279222 -0.129130
C48   C     C_R   0.201451 0.766034 0.320437 -0.121359
C49   C     C_R   0.210286 0.792902 0.405997 -0.125961
C50   C     C_R   0.311047 0.827040 0.450339 -0.080355
C51   C     C_R   0.797777 0.435871 0.755298 0.134820
C52   C     C_R   0.770241 0.343846 0.717240 -0.083868
C53   C     C_R   0.847574 0.299075 0.682563 -0.142442
C54   C     C_R   0.954293 0.342497 0.689503 -0.115641
C55   C     C_R   0.983834 0.431308 0.730542 -0.114796
C56   C     C_R   0.386809 0.587919 0.913273 -0.235684
C57   C     C_R   0.905994 0.478637 0.762153 -0.178755
C58   C     C_R   0.311310 0.593140 0.968742 -0.243902
C59   C     C_R   0.642443 0.579480 0.070807 -0.234001
C60   C     C_R   0.716006 0.562153 0.017752 -0.232781
H1    H     H_    0.228086 0.603254 0.940346 0.140339
H2    H     H_    0.310410 0.660229 0.631340 0.132438
H3    H     H_    0.452045 0.517523 0.783355 0.168390
H4    H     H_    0.938149 0.682221 0.628596 0.146036
H5    H     H_    0.134428 0.708625 0.655285 0.144205
H6    H     H_    0.164110 0.449359 0.459065 0.120700
H7    H     H_    0.681673 0.338989 0.372757 0.144869
H8    H     H_    0.023011 0.380810 0.392506 0.132736
H9    H     H_    0.852322 0.295561 0.332490 0.150363
H10   H     H_    0.777194 0.586471 0.569864 0.210459
H11   H     H_    0.800871 0.561988 0.045350 0.141928
H12   H     H_    0.834528 0.498053 0.914624 0.134031
H13   H     H_    0.178037 0.575959 0.088998 0.133452
H14   H     H_    0.229386 0.537787 0.248359 0.158403
H15   H     H_    0.559853 0.534052 0.214607 0.163822
H16   H     H_    0.357770 0.598065 0.843608 0.141593
H17   H     H_    0.675564 0.596167 0.136796 0.147022
H18   H     H_    0.465520 0.809062 0.291410 0.125725
H19   H     H_    0.286203 0.753763 0.212439 0.146240
H20   H     H_    0.123278 0.740337 0.285941 0.122384
H21   H     H_    0.138968 0.787712 0.437793 0.136878
H22   H     H_    0.317000 0.848083 0.516513 0.117165
H23   H     H_    0.750494 0.774298 0.550359 0.151976
H24   H     H_    0.689107 0.306656 0.714857 0.105209
H25   H     H_    0.825442 0.230030 0.651192 0.126394
H26   H     H_    0.014162 0.307172 0.663328 0.130830
H27   H     H_    0.066821 0.464505 0.736636 0.139104
H28   H     H_    0.930431 0.548695 0.792126 0.120397
H29   H     H_    0.710366 0.084220 0.642735 0.134680
H30   H     H_    0.786054 0.940922 0.602597 0.135737
H31   H     H_    0.256744 0.255587 0.408805 0.142845
H32   H     H_    0.376914 0.001468 0.333567 0.155298
H33   H     H_    0.237666 0.116389 0.316151 0.144579
H34   H     H_    0.569861 0.198753 0.622610 0.136082
N1    N     N_R   0.239390 0.551900 0.544730 -0.096659
N2    N     N_R   0.759950 0.448600 0.455730 -0.133299
O1    O     O_R   0.374950 0.371210 0.521360 -0.619030
O2    O     O_R   0.542050 0.338030 0.492790 -0.607289
O3    O     O_R   0.368720 0.526070 0.390200 -0.609254
O4    O     O_R   0.535820 0.492890 0.361630 -0.623643
O5    O     O_R   0.457950 0.661970 0.507210 -0.597642
O6    O     O_R   0.625050 0.628790 0.478640 -0.641433
O7    O     O_R   0.464180 0.507110 0.638370 -0.613902
O8    O     O_R   0.631280 0.473930 0.609800 -0.626642
Zn1   Zn    Zn3+2 0.388420 0.522150 0.519080 0.943147
Zn2   Zn    Zn3+2 0.611580 0.477850 0.480920 0.929533

loop_
_geom_bond_atom_site_label_1
_geom_bond_atom_site_label_2
_ccdc_geom_bond_type
C23   C58   A    
C56   H16   S    
C27   C29   A    
C41   C42   A    
C19   C20   A    
C47   H19   S    
C59   H17   S    
O8    Zn2   S    
C53   C54   A    
C12   C23   A    
C26   C27   A    
C26   H7    S    
C9    C16   S    
C5    H12   S    
C3    C7    A    
C30   C31   A    
C2    C60   A    
C9    C22   A    
C28   C40   S    
C31   N2    A    
C21   C44   S    
C37   N1    A    
C18   C19   A    
C49   H21   S    
C52   H24   S    
C20   H34   S    
N1    Zn1   S    
C46   C47   A    
C35   C36   A    
C45   C56   A    
C44   C46   A    
C38   N1    A    
C8    C22   A    
C7    C40   A    
C35   H4    S    
C51   C57   A    
C6    C51   S    
C27   H9    S    
O1    Zn1   S    
C11   H33   S    
C58   H1    S    
C59   C60   A    
C13   C14   A    
C26   N2    A    
C14   C17   A    
C36   H10   S    
C39   C42   A    
C43   H15   S    
C15   C20   A    
O3    Zn1   S    
C42   H14   S    
O5    Zn1   S    
C51   C52   A    
C25   H5    S    
C1    O1    A    
C54   H26   S    
C39   C43   A    
C60   H11   S    
C10   C24   A    
C3    C45   A    
C8    C18   A    
C29   C30   A    
C19   H29   S    
C25   C38   A    
C29   H8    S    
C28   O8    A    
C47   C48   A    
C4    C39   S    
C37   H6    S    
C17   C18   A    
O7    Zn1   S    
C34   C45   A    
C32   C37   A    
C7    H3    S    
C16   O6    A    
C48   C49   A    
C10   H31   S    
C55   C57   A    
C13   H32   S    
C34   C59   A    
C6    C40   A    
C2    C5    A    
C8    H30   S    
C12   C34   A    
C52   C53   A    
C50   H22   S    
C46   H18   S    
C44   C50   A    
N2    Zn2   S    
C54   C55   A    
C15   C24   A    
C14   C15   A    
O2    Zn2   S    
C1    O2    A    
C12   C43   A    
O4    Zn2   S    
C23   C41   A    
C57   H28   S    
C32   C33   A    
C48   H20   S    
C4    O4    A    
C2    C3    A    
C22   H23   S    
C30   C32   A    
C11   C13   A    
C28   O7    A    
C9    C21   A    
C5    C6    A    
C33   C35   A    
C56   C58   A    
O6    Zn2   S    
C55   H27   S    
C17   C21   A    
C10   C11   A    
C41   H13   S    
C16   O5    A    
C1    C24   S    
C49   C50   A    
C4    O3    A    
C31   C36   A    
C53   H25   S    
C25   C33   A    
C38   H2    S    
