data_mof_unit_65017.cif
_audit_creation_date              2012-12-10T17:52:55-0500
_audit_creation_method            fapswitch 2.2
_symmetry_space_group_name_H-M    P1
_symmetry_Int_Tables_number       1
_space_group_crystal_system       triclinic
_cell_length_a                    18.678326
_cell_length_b                    18.701907
_cell_length_c                    18.699387
_cell_angle_alpha                 109.47637
_cell_angle_beta                  109.298375
_cell_angle_gamma                 109.422622
_cell_volume                      5041.76263708

loop_
_atom_site_label
_atom_site_type_symbol
_atom_type_description
_atom_site_fract_x
_atom_site_fract_y
_atom_site_fract_z
_atom_type_partial_charge
C1    C     C_R   0.120338 0.120146 0.499997 0.847994
C2    C     C_R   0.322664 0.320460 0.579633 -0.183634
C3    C     C_R   0.258082 0.257079 0.579616 -0.187840
C4    C     C_R   0.123337 0.003121 0.619909 0.897722
C5    C     C_R   0.186658 0.186043 0.499999 -0.008778
C6    C     C_R   0.742508 0.920438 0.242199 -0.185443
C7    C     C_R   0.677920 0.920437 0.178957 -0.184539
C8    C     C_R   0.686269 0.000068 0.186577 -0.009544
C9    C     C_R   0.757853 0.079705 0.257572 -0.185796
C10   C     C_R   0.821058 0.079706 0.322202 -0.184864
C11   C     C_R   0.813450 0.000070 0.313835 -0.010996
C12   C     C_R   0.262239 0.999760 0.673903 0.102526
C13   C     C_R   0.821689 0.742000 0.499622 -0.187385
C14   C     C_R   0.758308 0.678646 0.500823 -0.187683
C15   C     C_R   0.686269 0.686469 0.500024 -0.008233
C16   C     C_R   0.879788 0.879835 0.500127 0.863331
C17   C     C_R   0.677632 0.757680 0.499428 -0.185587
C18   C     C_R   0.742379 0.822405 0.500947 -0.186519
C19   C     C_R   0.813712 0.813862 0.500334 -0.009753
C20   C     C_R   0.500023 0.879944 0.879710 0.840762
C21   C     C_R   0.379960 0.998270 0.878176 0.939181
C22   C     C_R   0.499817 0.120173 0.120216 0.883116
C23   C     C_R   0.193033 0.005938 0.685440 -0.188703
C24   C     C_R   0.620231 0.000058 0.120349 0.857659
C25   C     C_R   0.499962 0.620358 0.620243 0.859158
C26   C     C_R   0.379825 0.379808 0.500106 0.859645
C27   C     C_R   0.500058 0.379857 0.379917 0.859886
C28   C     C_R   0.879696 0.000030 0.379806 0.860738
C29   C     C_R   0.620177 0.620328 0.500055 0.858435
C30   C     C_R   0.579659 0.821524 0.821818 -0.184456
C31   C     C_R   0.579613 0.756808 0.758548 -0.187718
C32   C     C_R   0.499968 0.686744 0.686177 -0.010837
C33   C     C_R   0.420347 0.680236 0.676931 -0.183567
C34   C     C_R   0.186287 0.009371 0.758363 -0.306020
C35   C     C_R   0.420340 0.743596 0.741518 -0.191757
C36   C     C_R   0.500009 0.814113 0.813357 -0.004954
C37   C     C_R   0.500225 0.257994 0.178369 -0.163709
C38   C     C_R   0.499146 0.321425 0.241810 -0.184819
C39   C     C_R   0.500142 0.313700 0.313859 -0.011192
C40   C     C_R   0.274967 0.004342 0.604620 -0.150336
C41   C     C_R   0.500815 0.242496 0.322442 -0.183510
C42   C     C_R   0.499178 0.177693 0.257636 -0.190166
C43   C     C_R   0.499602 0.186151 0.186299 -0.008480
C44   C     C_R   0.340758 0.992663 0.592307 -0.145191
C45   C     C_R   0.245806 0.003050 0.819950 0.515220
C46   C     C_R   0.395069 0.976647 0.648555 -0.134574
C47   C     C_R   0.385939 0.975565 0.719260 -0.145292
C48   C     C_R   0.321513 0.990416 0.734708 0.025931
C49   C     C_3   0.170361 0.937644 0.875012 -0.276626
C50   C     C_R   0.314154 0.995563 0.808948 -0.240485
C51   C     C_R   0.178578 0.178216 0.420409 -0.185373
C52   C     C_R   0.241823 0.242959 0.420455 -0.186039
C53   C     C_R   0.313816 0.313474 0.500062 -0.011230
H1    H     H_    0.133977 0.016301 0.767197 0.175997
H2    H     H_    0.736310 0.878103 0.501109 0.143589
H3    H     H_    0.641274 0.876277 0.877850 0.144525
H4    H     H_    0.235634 0.018390 0.560257 0.150084
H5    H     H_    0.641238 0.761852 0.765208 0.145051
H6    H     H_    0.358707 0.625631 0.620811 0.145096
H7    H     H_    0.358747 0.738472 0.735078 0.140911
H8    H     H_    0.500193 0.264073 0.122712 0.148319
H9    H     H_    0.498933 0.376946 0.235594 0.145258
H10   H     H_    0.501144 0.236581 0.378250 0.143864
H11   H     H_    0.499085 0.122007 0.263667 0.142776
H12   H     H_    0.264240 0.262588 0.641180 0.144698
H13   H     H_    0.349272 0.995554 0.538625 0.136721
H14   H     H_    0.445058 0.965930 0.637938 0.136312
H15   H     H_    0.429156 0.962085 0.760740 0.144514
H16   H     H_    0.122861 0.123103 0.358822 0.144946
H17   H     H_    0.235473 0.237574 0.358878 0.146288
H18   H     H_    0.378486 0.375428 0.641238 0.145437
H19   H     H_    0.107857 0.934211 0.837743 0.148586
H20   H     H_    0.170140 0.876750 0.838322 0.156820
H21   H     H_    0.174686 0.941464 0.936908 0.191235
H22   H     H_    0.736659 0.858801 0.236138 0.144589
H23   H     H_    0.622469 0.858803 0.123608 0.144620
H24   H     H_    0.763887 0.141338 0.263434 0.143907
H25   H     H_    0.876376 0.141336 0.377688 0.144330
H26   H     H_    0.877344 0.735857 0.499506 0.143505
H27   H     H_    0.764544 0.623103 0.500952 0.143475
H28   H     H_    0.621813 0.763650 0.499226 0.143307
O1    O     O_R   0.091590 0.143330 0.551700 -0.621807
O2    O     O_R   0.551730 0.591680 0.643420 -0.622556
O3    O     O_R   0.356670 0.408480 0.448390 -0.621902
O4    O     O_R   0.091620 0.039900 0.448280 -0.631581
O5    O     O_R   0.460120 0.408460 0.551810 -0.622854
O6    O     O_R   0.448270 0.408490 0.356760 -0.620261
O7    O     O_R   0.551720 0.408480 0.460170 -0.623650
O8    O     O_R   0.539880 0.591710 0.448370 -0.622374
O9    O     O_R   0.643330 0.591700 0.551790 -0.623721
O10   O     O_R   0.091610 0.051730 0.643330 -0.618449
O11   O     O_R   0.091640 0.948310 0.539920 -0.628251
O12   O     O_R   0.551760 0.960180 0.908450 -0.631180
O13   O     O_R   0.908380 0.960100 0.551720 -0.622064
O14   O     O_R   0.908410 0.856670 0.448300 -0.621238
O15   O     O_R   0.908360 0.051690 0.460080 -0.622738
O16   O     O_R   0.908390 0.948270 0.356670 -0.621583
O17   O     O_R   0.448330 0.856720 0.908450 -0.627007
O18   O     O_3   0.242880 0.012922 0.895582 -0.595787
O19   O     O_R   0.356660 0.948290 0.908410 -0.598894
O20   O     O_R   0.460090 0.051750 0.908420 -0.630864
O21   O     O_R   0.448250 0.039900 0.091630 -0.611825
O22   O     O_R   0.551680 0.143360 0.091630 -0.626793
O23   O     O_R   0.539910 0.948330 0.091670 -0.625177
O24   O     O_R   0.643340 0.051790 0.091670 -0.622322
O25   O     O_R   0.448280 0.591700 0.540000 -0.623490
Zn1   Zn    Zn3+2 0.999980 0.069060 0.569050 0.954494
Zn2   Zn    Zn3+2 0.000020 0.930940 0.430950 0.947587
Zn3   Zn    Zn3+2 0.430940 0.930960 0.000040 0.958723
Zn4   Zn    Zn3+2 0.569060 0.069120 0.000040 0.952851
Zn5   Zn    Zn3+2 0.430920 0.500100 0.431040 0.955233
Zn6   Zn    Zn3+2 0.569080 0.500080 0.569140 0.951043

loop_
_geom_bond_atom_site_label_1
_geom_bond_atom_site_label_2
_ccdc_geom_bond_type
C28   O16   A    
O24   Zn4   S    
C13   H26   S    
C37   C43   A    
C41   C42   A    
C44   H13   S    
C35   C36   A    
O9    Zn6   S    
C12   C48   A    
C29   O8    A    
C10   H25   S    
C7    C8    A    
C39   C41   A    
C12   C23   A    
O22   Zn4   S    
C1    C5    S    
C45   C50   A    
C31   H5    S    
O23   Zn3   S    
O6    Zn5   S    
C15   C17   A    
C18   C19   A    
C29   O9    A    
C8    C24   S    
O16   Zn2   S    
O11   Zn2   S    
C22   C43   S    
C27   C39   S    
C8    C9    A    
C49   H19   S    
C14   H27   S    
O4    Zn2   S    
C9    C10   A    
O12   Zn4   S    
C4    O10   A    
C21   O20   A    
C25   C32   S    
C48   C50   A    
O19   Zn3   S    
C33   H6    S    
O17   Zn3   S    
C13   C14   A    
C3    H12   S    
C21   C50   S    
C44   C46   A    
C25   O25   A    
C15   C29   S    
O25   Zn5   S    
C1    O4    A    
C38   C39   A    
O13   Zn1   S    
O3    Zn5   S    
C13   C19   A    
C51   C52   A    
O10   Zn1   S    
C6    H22   S    
C45   O18   S    
C6    C11   A    
C21   O19   A    
C20   O12   A    
C1    O1    A    
C30   H3    S    
C22   O22   A    
C35   H7    S    
C24   O23   A    
C20   C36   S    
C12   C40   A    
O5    Zn6   S    
C37   C38   A    
O14   Zn2   S    
C49   O18   S    
C47   C48   A    
C14   C15   A    
C26   O5    A    
C23   C34   A    
C17   C18   A    
C34   C45   A    
C9    H24   S    
O1    Zn1   S    
C27   O6    A    
C7    H23   S    
C18   H2    S    
O15   Zn1   S    
C34   H1    S    
C49   H20   S    
C42   C43   A    
C41   H10   S    
C2    H18   S    
C26   C53   S    
C42   H11   S    
C47   H15   S    
C52   C53   A    
C4    C23   S    
C46   C47   A    
C16   O14   A    
C26   O3    A    
C40   H4    S    
C49   H21   S    
C31   C32   A    
C3    C5    A    
C2    C53   A    
C37   H8    S    
C6    C7    A    
O8    Zn5   S    
C16   O13   A    
C22   O21   A    
C30   C36   A    
C28   O15   A    
C32   C33   A    
C2    C3    A    
O20   Zn4   S    
C46   H14   S    
C30   C31   A    
C11   C28   S    
C16   C19   S    
C33   C35   A    
C17   H28   S    
C27   O7    A    
C52   H17   S    
C10   C11   A    
O7    Zn6   S    
C40   C44   A    
C20   O17   A    
C25   O2    A    
O2    Zn6   S    
C5    C51   A    
O21   Zn3   S    
C24   O24   A    
C51   H16   S    
C4    O11   A    
C38   H9    S    
