data_mof_unit_52372.cif
_audit_creation_date              2013-03-05T15:56:27-0500
_audit_creation_method            fapswitch 2.2
_symmetry_space_group_name_H-M    P1
_symmetry_Int_Tables_number       1
_space_group_crystal_system       triclinic
_cell_length_a                    6.993106
_cell_length_b                    14.581474
_cell_length_c                    16.059244
_cell_angle_alpha                 90.213902
_cell_angle_beta                  90.31684
_cell_angle_gamma                 90.575452
_cell_volume                      1637.4384086

loop_
_atom_site_label
_atom_site_type_symbol
_atom_site_description
_atom_site_fract_x
_atom_site_fract_y
_atom_site_fract_z
_atom_type_partial_charge
O1    O     O_R   0.494400 0.415640 0.412830 -0.598505
O2    O     O_R   0.823920 0.405510 0.586560 -0.604486
O3    O     O_R   0.994250 0.584360 0.587170 -0.561584
C1    C     C_R   0.654753 0.383767 0.615374 0.958544
O4    O     O_R   0.824110 0.404610 0.413450 -0.547232
O5    O     O_R   0.994440 0.583460 0.412820 -0.606651
C2    C     C_R   0.654915 0.381748 0.384857 0.960723
O6    O     O_R   0.494210 0.416540 0.587180 -0.603396
O7    O     O_3   0.660810 0.558680 0.500000 -0.265851
V1    V     V_3+5 0.935650 0.489110 0.500000 1.186026
O8    O     O_R   0.324150 0.594490 0.413440 -0.552755
C3    C     C_R   0.155816 0.617686 0.385640 0.986179
O9    O     O_R   0.323970 0.595390 0.586550 -0.600298
C4    C     C_R   0.155822 0.617749 0.615124 0.902978
V2    V     V_3+5 0.435660 0.510890 0.500000 1.181784
O10   O     O_3   0.160630 0.441320 0.500000 -0.279439
C5    C     C_3   0.954023 0.672001 0.736889 0.365815
H1    H     H_    0.968903 0.601728 0.762532 0.075195
C6    C     C_3   0.941798 0.738720 0.813521 0.280030
H2    H     H_    0.817724 0.782164 0.805794 0.188935
H3    H     H_    0.088147 0.804729 0.601873 0.111213
H4    H     H_    0.990446 0.888956 0.718019 0.135085
C7    C     C_3   0.171808 0.786978 0.657919 -0.370057
C8    C     C_3   0.307162 0.669242 0.752004 -0.619765
C9    C     C_3   0.144899 0.685878 0.687070 -0.076592
H5    H     H_    0.447170 0.673679 0.721969 0.262176
H6    H     H_    0.296986 0.598227 0.776941 0.139486
C10   C     C_3   0.119949 0.804118 0.815091 -0.185718
C11   C     C_3   0.128267 0.854400 0.729748 -0.431659
C12   C     C_3   0.296586 0.739678 0.825193 0.303981
H7    H     H_    0.278358 0.699367 0.883463 0.100337
H8    H     H_    0.321756 0.798283 0.638271 0.186679
H9    H     H_    0.235323 0.910913 0.730038 0.207564
C13   C     C_R   0.964479 0.765739 0.210778 -0.089551
H10   H     H_    0.830145 0.775256 0.180528 0.238123
C14   C     C_R   0.974119 0.703979 0.276851 -0.203390
H11   H     H_    0.844785 0.668133 0.294968 0.213383
C15   C     C_R   0.147987 0.687234 0.317827 -0.352686
C16   C     C_R   0.313712 0.734915 0.290715 0.490921
C17   C     C_R   0.304828 0.791802 0.220139 0.255764
C18   C     C_R   0.127174 0.811562 0.181514 -0.367967
C19   C     C_R   0.809535 0.271313 0.711706 -0.324816
H12   H     H_    0.946993 0.287962 0.684596 0.149562
C20   C     C_R   0.801392 0.204927 0.774815 0.667431
C21   C     C_R   0.624904 0.183853 0.813956 -0.301935
C22   C     C_R   0.460231 0.229760 0.786714 -0.223876
H13   H     H_    0.323992 0.216871 0.816012 0.208736
C23   C     C_R   0.468985 0.293794 0.722080 -0.135701
H14   H     H_    0.338392 0.327174 0.702885 0.139421
C24   C     C_R   0.643939 0.315301 0.683683 -0.182136
C25   C     C_R   0.809303 0.262691 0.290470 0.656361
C26   C     C_R   0.796798 0.200694 0.223237 -0.294319
H15   H     H_    0.925333 0.166119 0.203516 0.149271
C27   C     C_R   0.622041 0.182763 0.182516 -0.182901
C28   C     C_R   0.458854 0.229642 0.209688 -0.125144
H16   H     H_    0.321471 0.217791 0.179890 0.145086
C29   C     C_R   0.470867 0.293640 0.274931 -0.192216
H17   H     H_    0.342894 0.329813 0.292520 0.204476
C30   C     C_R   0.645427 0.311823 0.316173 -0.320759
O11   O     O_R   0.771300 0.080930 0.910090 -0.555455
O12   O     O_R   0.441270 0.092800 0.083770 -0.615597
O13   O     O_R   0.271080 0.913920 0.084380 -0.547402
C31   C     C_R   0.610719 0.114867 0.112797 0.978390
O14   O     O_R   0.441580 0.091910 0.910670 -0.607013
O15   O     O_R   0.271390 0.913020 0.910040 -0.550481
C32   C     C_R   0.611335 0.114455 0.882178 0.955546
O16   O     O_R   0.770990 0.081830 0.084440 -0.609466
O17   O     O_3   0.604750 0.938760 0.997250 -0.170975
V3    V     V_3+5 0.329850 0.008280 0.997210 1.255937
O18   O     O_R   0.941680 0.901940 0.910610 -0.561529
C33   C     C_R   0.110135 0.876162 0.884762 0.949564
O19   O     O_R   0.941370 0.902830 0.083720 -0.565280
C34   C     C_R   0.111303 0.879746 0.111982 0.997678
V4    V     V_3+5 0.829860 0.986420 0.997150 1.300506
O20   O     O_3   0.104830 0.056030 0.997180 -0.296488
O21   O     O_3   0.779317 0.665735 0.690636 -0.633033
C35   C     C_3   0.746762 0.737509 0.633600 -0.114549
H18   H     H_    0.832773 0.729879 0.576585 0.120716
H19   H     H_    0.761471 0.806089 0.662156 0.132751
H20   H     H_    0.598717 0.731278 0.610094 0.140907
N1    N     N_R   0.474554 0.791882 0.833952 0.222536
O22   O     O_R   0.527343 0.850561 0.777527 -0.490145
O23   O     O_R   0.561722 0.792047 0.905638 -0.381719
O24   O     O_3   0.489654 0.720305 0.327806 -0.605639
C36   C     C_3   0.512791 0.783154 0.394246 -0.175151
H21   H     H_    0.653850 0.771337 0.424092 0.149113
H22   H     H_    0.401373 0.773077 0.442707 0.091161
H23   H     H_    0.511303 0.855270 0.371956 0.145445
N2    N     N_R   0.480086 0.821928 0.183865 0.237969
O25   O     O_R   0.531810 0.787054 0.112808 -0.392739
O26   O     O_R   0.569239 0.893703 0.213653 -0.452594
O27   O     O_3   0.969288 0.165440 0.801797 -0.618914
C37   C     C_3   0.025925 0.099444 0.742810 -0.280168
H24   H     H_    0.072081 0.132240 0.683732 0.128433
H25   H     H_    0.910148 0.048081 0.730582 0.129453
H26   H     H_    0.150608 0.062508 0.768518 0.175284
O28   O     O_3   0.985516 0.278940 0.327317 -0.623481
C38   C     C_3   0.025219 0.206667 0.382678 -0.249681
H27   H     H_    0.044872 0.140834 0.348692 0.129818
H28   H     H_    0.911473 0.199280 0.430561 0.118117
H29   H     H_    0.161147 0.222731 0.415841 0.173961
O29   O     O_3   0.931938 0.691846 0.891314 -0.639199
C39   C     C_3   0.780021 0.627149 0.895795 -0.073944
H30   H     H_    0.669076 0.634739 0.846623 0.136604
H31   H     H_    0.709667 0.633992 0.957241 0.187814
H32   H     H_    0.838897 0.556840 0.892068 0.103052

loop_
_geom_bond_atom_site_label_1
_geom_bond_atom_site_label_2
_geom_bond_distance
_ccdc_geom_bond_type
C25   O28   1.381959 S    
C28   H16   1.082973 S    
C37   H24   1.112051 S    
H4    C11   1.107579 S    
C6    H2    1.086264 S    
C8    H6    1.113391 S    
C1    O6    1.304062 A    
N1    O22   1.301010 A    
C35   H18   1.104168 S    
C20   C21   1.419572 A    
C7    C11   1.546363 S    
C10   C11   1.557845 S    
C8    H5    1.095278 S    
C16   O24   1.382791 S    
C36   H21   1.109633 S    
C12   H7    1.114158 S    
C6    O29   1.427946 S    
C35   H20   1.102780 S    
C27   C31   1.493035 S    
O17   V4    1.714405 S    
V2    O10   2.165415 S    
C11   H9    1.107736 S    
C13   H10   1.065747 S    
O11   V4    2.010218 S    
O12   C31   1.307710 A    
C22   H13   1.080011 S    
O8    V2    2.011513 S    
O17   V3    2.182287 S    
O18   V4    2.019639 S    
C5    O21   1.428269 S    
O13   C34   1.299687 A    
O18   C33   1.309376 A    
O1    V2    2.015123 S    
C17   N2    1.425967 S    
N2    O26   1.301046 A    
O7    V1    2.182262 S    
C20   O27   1.381171 S    
C23   C24   1.406253 A    
C8    C9    1.558258 S    
O11   C32   1.303202 A    
C37   H25   1.113544 S    
O9    C4    1.308469 A    
C13   C18   1.398127 A    
C19   C20   1.405091 A    
C2    C30   1.500025 S    
N1    O23   1.299646 A    
C26   C27   1.404636 A    
O28   C38   1.410051 S    
C22   C23   1.399909 A    
C35   H19   1.102204 S    
H3    C7    1.103775 S    
C31   O16   1.307853 A    
V4    O20   2.165309 S    
C36   H22   1.113380 S    
C25   C26   1.407379 A    
O24   C36   1.411478 S    
O19   V4    2.011534 S    
C16   C17   1.408481 A    
O4    C2    1.306467 A    
C21   C22   1.406305 A    
O13   V3    2.007759 S    
C1    C24   1.487742 S    
O14   C32   1.313761 A    
O2    C1    1.309104 A    
C5    H1    1.111399 S    
C39   H31   1.109659 S    
O16   V4    2.018262 S    
O14   V3    2.008612 S    
O21   C35   1.412706 S    
C6    C10   1.561316 S    
O3    C4    1.302662 A    
C19   C24   1.402240 A    
C23   H14   1.083003 S    
C37   H26   1.108088 S    
C38   H28   1.114132 S    
C28   C29   1.402075 A    
C10   C33   1.534165 S    
C25   C30   1.420029 A    
C19   H12   1.083157 S    
O2    V1    2.008570 S    
C39   H30   1.110570 S    
C26   H15   1.083277 S    
C36   H23   1.112212 S    
O12   V3    2.003564 S    
C27   C28   1.406743 A    
C17   C18   1.418171 A    
O1    C2    1.311904 A    
O19   C34   1.317079 A    
O5    V1    2.007801 S    
O8    C3    1.304905 A    
O6    V2    2.009936 S    
C38   H29   1.109526 S    
C5    C9    1.571739 S    
C7    H8    1.107648 S    
C12   N1    1.458205 S    
O9    V2    2.019570 S    
O7    V2    1.715402 S    
O4    V1    2.003595 S    
O3    V1    2.006071 S    
O15   C33   1.306295 A    
O5    C3    1.307246 A    
C29   H17   1.081688 S    
C15   C16   1.416945 A    
O15   V3    2.005983 S    
C14   C15   1.403322 A    
O27   C37   1.408995 S    
C5    C6    1.569126 S    
C10   C12   1.567571 S    
V3    O20   1.727126 S    
C39   H32   1.110148 S    
C13   C14   1.396059 A    
C7    C9    1.558326 S    
C4    C9    1.523676 S    
C3    C15   1.492014 S    
O29   C39   1.415982 S    
C8    C12   1.560533 S    
C29   C30   1.407964 A    
C18   C34   1.502269 S    
C14   H11   1.081858 S    
C38   H27   1.112572 S    
C21   C32   1.496942 S    
V1    O10   1.727112 S    
N2    O25   1.302117 A    
