data_mof_unit_57447.cif
_audit_creation_date              2012-12-10T16:55:27-0500
_audit_creation_method            fapswitch 2.2
_symmetry_space_group_name_H-M    P1
_symmetry_Int_Tables_number       1
_space_group_crystal_system       triclinic
_cell_length_a                    11.681192
_cell_length_b                    10.90726
_cell_length_c                    9.75383
_cell_angle_alpha                 87.758416
_cell_angle_beta                  91.871545
_cell_angle_gamma                 88.83973
_cell_volume                      1240.83180104

loop_
_atom_site_label
_atom_site_type_symbol
_atom_type_description
_atom_site_fract_x
_atom_site_fract_y
_atom_site_fract_z
_atom_type_partial_charge
C1    C     C_R   0.507414 0.264955 0.503189 0.747251
C2    C     C_2   0.486135 0.867892 0.481099 0.294363
C3    C     C_2   0.559473 0.067070 0.405169 0.388544
C4    C     C_2   0.530588 0.132065 0.515055 0.213224
C5    C     C_2   0.414328 0.532103 0.919617 0.023682
C6    C     C_2   0.408601 0.497583 0.070096 0.093956
C7    C     C_R   0.284140 0.500123 0.498443 0.813706
C8    C     C_R   0.497265 0.734414 0.496372 0.713942
C9    C     C_R   0.715863 0.499291 0.501761 0.812729
C10   C     C_1   0.162356 0.499618 0.496837 -0.170185
C11   C     C_1   0.059890 0.498789 0.499645 -0.016278
C12   C     C_1   0.940205 0.497854 0.503332 -0.022528
C13   C     C_1   0.837668 0.498094 0.504612 -0.178137
C14   C     C_2   0.572338 0.931153 0.422918 -0.113112
Cu1   Cu    Cu3+1 0.500020 0.500020 0.638630 0.960095
Cu2   Cu    Cu3+1 0.499980 0.499980 0.361370 0.945890
H1    H     H_    0.341487 0.579712 0.868478 0.083295
H2    H     H_    0.566510 0.545411 0.114038 0.188123
N1    N     N_2   0.498780 0.498660 0.846910 -0.006849
N2    N     N_2   0.498750 0.498630 0.153040 -0.280610
O1    O     O_R   0.500020 0.321960 0.617040 -0.543343
O2    O     O_R   0.499980 0.321920 0.382900 -0.540341
O3    O     O_R   0.337220 0.500030 0.617070 -0.585123
O4    O     O_R   0.337180 0.499990 0.382930 -0.559549
O5    O     O_R   0.500020 0.678080 0.617100 -0.613801
O6    O     O_R   0.499980 0.678040 0.382960 -0.585031
O7    O     O_R   0.662820 0.500010 0.617070 -0.585345
O8    O     O_R   0.662780 0.499970 0.382930 -0.581373
C15   C     C_R   0.683771 0.870558 0.391025 0.021554
C16   C     C_R   0.693542 0.800415 0.273601 -0.095465
C17   C     C_R   0.799134 0.748218 0.241408 -0.149571
C18   C     C_R   0.895852 0.765499 0.325875 -0.112519
C19   C     C_R   0.886834 0.833719 0.443362 -0.117481
C20   C     C_R   0.781462 0.886236 0.475622 -0.167430
H3    H     H_    0.620199 0.789398 0.204727 0.129740
H4    H     H_    0.806115 0.695191 0.150416 0.106491
H5    H     H_    0.977774 0.725830 0.300712 0.127149
H6    H     H_    0.961685 0.846537 0.509095 0.116466
H7    H     H_    0.776792 0.940114 0.565529 0.124553
O9    O     O_3   0.380154 0.928084 0.493079 -0.579855
C21   C     C_3   0.311449 0.870742 0.592325 0.135774
H8    H     H_    0.358777 0.859079 0.693229 0.148230
H9    H     H_    0.283515 0.779744 0.557609 0.080815
C22   C     C_3   0.203310 0.949217 0.610296 -0.391075
H10   H     H_    0.155036 0.960657 0.510327 0.211370
H11   H     H_    0.147736 0.900954 0.684399 0.158838
C23   C     C_3   0.230783 0.075656 0.663258 -0.676910
H12   H     H_    0.281843 0.066523 0.761360 0.249834
H13   H     H_    0.149766 0.126579 0.681494 0.203381
H14   H     H_    0.279272 0.129417 0.586428 0.273243
O10   O     O_3   0.554781 0.125036 0.275094 -0.615869
C24   C     C_3   0.658649 0.114479 0.205773 0.076350
H15   H     H_    0.646793 0.167869 0.106981 0.172023
H16   H     H_    0.674187 0.019385 0.175887 0.157290
C25   C     C_3   0.762381 0.167751 0.283329 -0.382775
H17   H     H_    0.754277 0.269522 0.280980 0.223756
H18   H     H_    0.766880 0.135144 0.392485 0.195373
C26   C     C_3   0.874402 0.129714 0.219105 -0.923910
H19   H     H_    0.878917 0.028868 0.207712 0.277326
H20   H     H_    0.947626 0.154711 0.286919 0.250383
H21   H     H_    0.882037 0.176546 0.116845 0.255566
O11   O     O_3   0.519197 0.072665 0.642561 -0.605228
C27   C     C_3   0.619138 0.084714 0.725988 0.039449
H22   H     H_    0.603671 0.159006 0.798061 0.195717
H23   H     H_    0.696631 0.107452 0.666735 0.089867
C28   C     C_3   0.641361 0.964681 0.810242 -0.334256
H24   H     H_    0.573501 0.953360 0.886771 0.214766
H25   H     H_    0.637410 0.885786 0.741655 0.225095
C29   C     C_3   0.758390 0.962334 0.884735 -0.965275
H26   H     H_    0.827901 0.965035 0.809786 0.257887
H27   H     H_    0.768868 0.876762 0.949759 0.254351
H28   H     H_    0.766321 0.041962 0.951122 0.253346
O12   O     O_3   0.566726 0.408141 0.906789 -0.518404
C30   C     C_3   0.681750 0.447504 0.910923 0.175559
H29   H     H_    0.708874 0.460701 0.019234 0.096366
H30   H     H_    0.694907 0.536881 0.855007 0.146596
C31   C     C_3   0.761402 0.346944 0.860229 -0.355122
H31   H     H_    0.754177 0.263148 0.927083 0.190770
H32   H     H_    0.736562 0.323143 0.754176 0.223790
C32   C     C_3   0.885933 0.386279 0.864393 -0.927108
H33   H     H_    0.896052 0.471543 0.800453 0.265229
H34   H     H_    0.941252 0.312575 0.824729 0.261217
H35   H     H_    0.913970 0.403016 0.971524 0.255032
C33   C     C_R   0.295953 0.458607 0.116407 0.159463
C34   C     C_R   0.201834 0.541012 0.103986 -0.176375
C35   C     C_R   0.093522 0.503327 0.142011 -0.131607
C36   C     C_R   0.078329 0.383329 0.192065 -0.120565
C37   C     C_R   0.171198 0.300127 0.202967 -0.169992
C38   C     C_R   0.279812 0.337236 0.164162 -0.062974
H36   H     H_    0.212512 0.634454 0.065535 0.106138
H37   H     H_    0.021246 0.567055 0.132680 0.119038
H38   H     H_    0.994399 0.355802 0.222893 0.142070
H39   H     H_    0.159068 0.206982 0.241231 0.140196
H40   H     H_    0.350898 0.271769 0.170965 0.175128

loop_
_geom_bond_atom_site_label_1
_geom_bond_atom_site_label_2
_ccdc_geom_bond_type
Cu2   O8    S    
C7    C10   S    
C28   H25   S    
C25   H17   S    
C27   H23   S    
C1    O1    A    
C8    O6    A    
O12   C30   S    
C36   C37   A    
C23   H13   S    
C31   H31   S    
C22   H10   S    
Cu1   N1    S    
C15   C16   A    
C30   H30   S    
C16   H3    S    
C35   H37   S    
C5    C6    S    
Cu1   O5    S    
C28   C29   S    
C5    H1    S    
C26   H20   S    
C7    O4    A    
C4    O11   S    
C21   H8    S    
C38   H40   S    
C29   H27   S    
C9    C13   S    
C17   C18   A    
C22   H11   S    
C30   C31   S    
C22   C23   S    
C26   H21   S    
Cu1   O3    S    
C28   H24   S    
C27   C28   S    
C1    O2    A    
Cu2   O4    S    
C36   H38   S    
C8    O5    A    
C21   H9    S    
C32   H35   S    
C24   H16   S    
C23   H14   S    
C31   H32   S    
Cu2   O6    S    
C6    C33   S    
C30   H29   S    
O10   C24   S    
C11   C12   S    
N1    O12   S    
C33   C34   A    
C32   H34   S    
C3    O10   S    
C35   C36   A    
C26   H19   S    
C34   C35   A    
C15   C20   A    
C20   H7    S    
C29   H28   S    
O11   C27   S    
Cu1   O7    S    
C23   H12   S    
Cu2   N2    S    
C19   C20   A    
C18   H5    S    
C12   C13   T    
C3    C14   S    
O9    C21   S    
C25   H18   S    
C21   C22   S    
C33   C38   A    
C14   C15   S    
C3    C4    D    
C24   H15   S    
C9    O7    A    
C31   C32   S    
C37   H39   S    
Cu2   O2    S    
C2    C8    S    
C32   H33   S    
C34   H36   S    
C24   C25   S    
C5    N1    D    
C6    N2    D    
C19   H6    S    
C1    C4    S    
C18   C19   A    
C16   C17   A    
C7    O3    A    
H2    N2    S    
C29   H26   S    
C2    C14   D    
C10   C11   T    
C27   H22   S    
C2    O9    S    
Cu1   O1    S    
C37   C38   A    
C25   C26   S    
C17   H4    S    
Cu1   Cu2   S    
C9    O8    A    
