data_mof_unit_32536.cif
_audit_creation_date              2012-12-11T15:26:43-0500
_audit_creation_method            fapswitch 2.2
_symmetry_space_group_name_H-M    P1
_symmetry_Int_Tables_number       1
_space_group_crystal_system       triclinic
_cell_length_a                    7.218952
_cell_length_b                    12.09566
_cell_length_c                    29.062925
_cell_angle_alpha                 90.000828
_cell_angle_beta                  90.022858
_cell_angle_gamma                 90.003435
_cell_volume                      2537.71595718

loop_
_atom_site_label
_atom_site_type_symbol
_atom_type_description
_atom_site_fract_x
_atom_site_fract_y
_atom_site_fract_z
_atom_type_partial_charge
O1    O     O_R   0.647170 0.849180 0.201220 -0.536043
O2    O     O_R   0.352830 0.150820 0.798780 -0.536046
O3    O     O_R   0.352830 0.150820 0.701220 -0.536041
O4    O     O_R   0.647170 0.849180 0.298780 -0.536048
O5    O     O_R   0.147170 0.650820 0.298780 -0.536027
O6    O     O_R   0.852830 0.349180 0.701220 -0.536033
O7    O     O_R   0.852830 0.349180 0.798780 -0.536036
O8    O     O_R   0.147170 0.650820 0.201220 -0.536041
O9    O     O_R   0.317430 0.862210 0.298450 -0.540096
O10   O     O_R   0.682570 0.137790 0.701550 -0.540105
O11   O     O_R   0.682570 0.137790 0.798450 -0.540123
O12   O     O_R   0.317430 0.862210 0.201550 -0.540128
O13   O     O_R   0.817430 0.637790 0.201550 -0.540129
O14   O     O_R   0.182570 0.362210 0.798450 -0.540135
O15   O     O_R   0.182570 0.362210 0.701550 -0.540116
O16   O     O_R   0.817430 0.637790 0.298450 -0.540124
C1    C     C_R   0.485872 0.887803 0.313412 0.680556
C2    C     C_R   0.514126 0.112199 0.686587 0.680545
C3    C     C_R   0.514180 0.112196 0.813413 0.680507
C4    C     C_R   0.485819 0.887801 0.186586 0.680502
C5    C     C_R   0.985816 0.612199 0.186585 0.680516
C6    C     C_R   0.014185 0.387800 0.813415 0.680527
C7    C     C_R   0.014129 0.387801 0.686586 0.680562
C8    C     C_R   0.985871 0.612199 0.313414 0.680564
H1    H     H_    0.966752 0.609157 0.691381 0.098219
H2    H     H_    0.034102 0.390974 0.308576 0.098233
H3    H     H_    0.030834 0.390651 0.191408 0.098177
H4    H     H_    0.969063 0.609346 0.808572 0.098173
H5    H     H_    0.469751 0.890597 0.808579 0.098159
H6    H     H_    0.530435 0.109384 0.191424 0.098161
H7    H     H_    0.532724 0.109209 0.308583 0.098189
H8    H     H_    0.467440 0.890780 0.691394 0.098191
H9    H     H_    0.084439 0.264347 0.373231 0.123589
H10   H     H_    0.916253 0.735709 0.626705 0.123557
H11   H     H_    0.919671 0.736164 0.873209 0.123511
H12   H     H_    0.080256 0.263865 0.126761 0.123521
H13   H     H_    0.579491 0.236234 0.126784 0.123503
H14   H     H_    0.420563 0.763753 0.873218 0.123502
H15   H     H_    0.417442 0.764112 0.626727 0.123512
H16   H     H_    0.582721 0.235918 0.373239 0.123503
H17   H     H_    0.020767 0.338511 0.598510 0.116091
H18   H     H_    0.978363 0.661323 0.401498 0.116059
H19   H     H_    0.980806 0.661551 0.098497 0.116019
H20   H     H_    0.019302 0.338486 0.901517 0.115999
H21   H     H_    0.518758 0.161558 0.901501 0.116014
H22   H     H_    0.480887 0.838434 0.098502 0.115948
H23   H     H_    0.479515 0.838568 0.401496 0.116073
H24   H     H_    0.520411 0.161518 0.598511 0.116035
O17   O     O_3   0.480630 0.680630 0.250000 -0.375728
O18   O     O_3   0.519370 0.319370 0.750000 -0.375726
O19   O     O_3   0.980630 0.819370 0.250000 -0.375717
O20   O     O_3   0.019370 0.180630 0.750000 -0.375718
V1    V     V_3+5 0.205800 0.762860 0.250000 1.417841
V2    V     V_3+5 0.794200 0.237140 0.750000 1.417831
V3    V     V_3+5 0.705800 0.737140 0.250000 1.417804
V4    V     V_3+5 0.294200 0.262860 0.750000 1.417806
C9    C     C_R   0.994822 0.534021 0.351749 -0.031308
C10   C     C_R   0.005198 0.465926 0.648232 -0.031288
C11   C     C_R   0.005468 0.465948 0.851761 -0.031248
C12   C     C_R   0.994542 0.534065 0.148233 -0.031246
C13   C     C_R   0.494523 0.965941 0.148238 -0.031192
C14   C     C_R   0.505478 0.034059 0.851762 -0.031181
C15   C     C_R   0.505215 0.034071 0.648235 -0.031212
C16   C     C_R   0.494766 0.965956 0.351756 -0.031177
C17   C     C_R   0.050255 0.349917 0.380298 -0.158576
C18   C     C_R   0.950149 0.650067 0.619650 -0.158573
C19   C     C_R   0.952496 0.650365 0.880291 -0.158537
C20   C     C_R   0.047492 0.349667 0.119686 -0.158560
C21   C     C_R   0.546967 0.150399 0.119704 -0.158608
C22   C     C_R   0.453047 0.849595 0.880298 -0.158619
C23   C     C_R   0.450936 0.849820 0.619666 -0.158627
C24   C     C_R   0.549139 0.150223 0.380307 -0.158644
C25   C     C_R   0.023663 0.421809 0.343473 -0.169786
C26   C     C_R   0.976822 0.578220 0.656488 -0.169811
C27   C     C_R   0.978506 0.578375 0.843476 -0.169811
C28   C     C_R   0.021453 0.421638 0.156508 -0.169824
C29   C     C_R   0.521141 0.078393 0.156521 -0.169799
C30   C     C_R   0.478944 0.921597 0.843481 -0.169800
C31   C     C_R   0.477321 0.921728 0.656498 -0.169759
C32   C     C_R   0.522763 0.078290 0.343481 -0.169738
C33   C     C_R   0.983174 0.573141 0.396958 -0.217193
C34   C     C_R   0.016397 0.426701 0.603029 -0.217198
C35   C     C_R   0.015946 0.426700 0.896975 -0.217113
C36   C     C_R   0.984128 0.573339 0.103024 -0.217144
C37   C     C_R   0.484139 0.926666 0.103026 -0.217076
C38   C     C_R   0.515700 0.073343 0.896973 -0.217195
C39   C     C_R   0.516258 0.073307 0.603029 -0.217187
C40   C     C_R   0.483657 0.926765 0.396962 -0.217361
C41   C     C_R   0.992148 0.500312 0.434978 0.081018
C42   C     C_R   0.007485 0.499475 0.564994 0.081106
C43   C     C_R   0.007859 0.499561 0.934991 0.081119
C44   C     C_R   0.992255 0.500504 0.064998 0.081137
C45   C     C_R   0.492077 0.999523 0.065004 0.081166
C46   C     C_R   0.507753 0.000493 0.934996 0.081182
C47   C     C_R   0.507644 0.000493 0.564999 0.081160
C48   C     C_R   0.492267 0.999602 0.434985 0.081127
C49   C     C_R   0.041551 0.389173 0.425751 0.063712
C50   C     C_R   0.958409 0.610691 0.574204 0.063811
C51   C     C_R   0.960156 0.610990 0.925747 0.063687
C52   C     C_R   0.039918 0.389066 0.074235 0.063743
C53   C     C_R   0.539471 0.111004 0.074250 0.063554
C54   C     C_R   0.460427 0.889002 0.925751 0.063626
C55   C     C_R   0.459028 0.889191 0.574218 0.063514
C56   C     C_R   0.540941 0.110888 0.425758 0.063602
C57   C     C_R   0.968836 0.535687 0.481738 -0.028727
C58   C     C_R   0.030626 0.464018 0.518238 -0.028651
C59   C     C_R   0.030529 0.464052 0.981758 -0.028729
C60   C     C_R   0.969633 0.536036 0.018232 -0.028753
C61   C     C_R   0.469527 0.963986 0.018235 -0.028927
C62   C     C_R   0.530247 0.036043 0.981764 -0.028973
C63   C     C_R   0.530648 0.035966 0.518240 -0.028985
C64   C     C_R   0.469224 0.964153 0.481744 -0.029191
C65   C     C_R   0.113490 0.360367 0.506162 0.233215
C66   C     C_R   0.885956 0.639323 0.493815 0.232957
C67   C     C_R   0.888131 0.640074 0.006120 0.233370
C68   C     C_R   0.112056 0.360021 0.993866 0.233264
C69   C     C_R   0.611459 0.140170 0.993882 0.233471
C70   C     C_R   0.388310 0.859861 0.006115 0.233393
C71   C     C_R   0.386862 0.860338 0.493826 0.233290
C72   C     C_R   0.612989 0.139787 0.506157 0.233328
C73   C     C_R   0.100200 0.321031 0.461346 -0.157821
C74   C     C_R   0.899601 0.678783 0.538610 -0.157761
C75   C     C_R   0.902188 0.679395 0.961313 -0.157479
C76   C     C_R   0.097937 0.320675 0.038666 -0.157479
C77   C     C_R   0.597276 0.179470 0.038687 -0.157468
C78   C     C_R   0.402564 0.820544 0.961312 -0.157477
C79   C     C_R   0.400566 0.820960 0.538630 -0.157641
C80   C     C_R   0.599356 0.179138 0.461347 -0.157764
H25   H     H_    0.155666 0.239791 0.453539 0.144583
H26   H     H_    0.844215 0.760051 0.546413 0.144492
H27   H     H_    0.847847 0.760926 0.953481 0.144506
H28   H     H_    0.152269 0.239141 0.046494 0.144480
H29   H     H_    0.651378 0.261058 0.046521 0.144585
H30   H     H_    0.348473 0.738951 0.953477 0.144550
H31   H     H_    0.345560 0.739580 0.546440 0.144655
H32   H     H_    0.654382 0.260512 0.453535 0.144617
N1    N     N_3   0.238244 0.300773 0.535607 -0.691540
H33   H     H_    0.169769 0.234284 0.550999 0.235882
H34   H     H_    0.302860 0.352457 0.559514 0.233107
N2    N     N_3   0.760704 0.698703 0.464416 -0.691439
H35   H     H_    0.696508 0.646899 0.440468 0.233076
H36   H     H_    0.828767 0.765363 0.449045 0.235764
N3    N     N_3   0.763928 0.700195 0.035505 -0.691474
H37   H     H_    0.833110 0.766420 0.050919 0.235822
H38   H     H_    0.698670 0.648779 0.059399 0.232854
N4    N     N_3   0.236367 0.299961 0.964491 -0.691506
H39   H     H_    0.301529 0.351392 0.940597 0.232853
H40   H     H_    0.167270 0.233725 0.949063 0.235707
N5    N     N_3   0.735471 0.200446 0.964501 -0.691340
H41   H     H_    0.666075 0.266576 0.949079 0.235968
H42   H     H_    0.800951 0.149109 0.940618 0.232863
N6    N     N_3   0.264223 0.799615 0.035486 -0.691355
H43   H     H_    0.198820 0.850967 0.059380 0.232810
H44   H     H_    0.333579 0.733476 0.050906 0.235901
N7    N     N_3   0.262172 0.800579 0.464407 -0.691187
H45   H     H_    0.330814 0.734139 0.449014 0.236125
H46   H     H_    0.197396 0.852178 0.440492 0.233145
N8    N     N_3   0.737610 0.199581 0.535583 -0.691264
H47   H     H_    0.802446 0.147988 0.559492 0.233064
H48   H     H_    0.668867 0.265975 0.550978 0.236019

loop_
_geom_bond_atom_site_label_1
_geom_bond_atom_site_label_2
_ccdc_geom_bond_type
C7    C10   S    
O14   V4    S    
H14   C22   S    
C15   C39   A    
H13   C21   S    
N7    H46   S    
C21   C29   A    
C63   C64   A    
H20   C35   S    
H10   C18   S    
C23   C31   A    
H9    C17   S    
H7    C32   S    
C15   C31   A    
C48   C64   A    
O11   C3    A    
C60   C67   A    
O5    V1    S    
C42   C50   A    
C79   H31   S    
N5    H42   S    
C1    C16   S    
C2    C15   S    
C16   C40   A    
C22   C30   A    
H17   C34   S    
C3    C14   S    
N3    H37   S    
C18   C26   A    
H2    C25   S    
C17   C25   A    
C76   H28   S    
O3    C2    A    
N3    H38   S    
H1    C26   S    
C9    C25   A    
C4    C13   S    
C49   C73   A    
C38   C46   A    
H6    C29   S    
C37   C45   A    
C44   C60   A    
H5    C30   S    
C13   C29   A    
C8    C9    S    
C47   C55   A    
C39   C47   A    
C53   C77   A    
C59   C60   A    
C65   C73   A    
C22   C54   A    
C66   N2    S    
C55   C79   A    
O12   V1    S    
C19   C51   A    
H22   C37   S    
C33   C41   A    
O15   C7    A    
O16   C8    A    
H16   C24   S    
N8    H48   S    
H19   C36   S    
C16   C32   A    
H18   C33   S    
O6    V2    S    
C62   C69   A    
O20   V2    S    
C61   C70   A    
N4    H40   S    
C67   N3    S    
C67   C75   A    
C58   C65   A    
C43   C59   A    
C57   C66   A    
N2    H35   S    
C42   C58   A    
C5    C12   S    
C45   C53   A    
C6    C11   S    
C44   C52   A    
C24   C56   A    
O17   V3    S    
C46   C62   A    
O18   V4    S    
C41   C49   A    
C40   C48   A    
C52   C76   A    
C20   C52   A    
C14   C38   A    
O3    V4    S    
C36   C44   A    
C56   C80   A    
H11   C19   S    
O12   C4    A    
C72   C80   A    
O8    C5    A    
H24   C39   S    
O13   C5    A    
C70   N6    S    
N1    H34   S    
C46   C54   A    
O11   V2    S    
C13   C37   A    
O4    C1    A    
O9    C1    A    
C80   H32   S    
N6    H44   S    
C48   C56   A    
O4    V3    S    
N8    H47   S    
C9    C33   A    
O9    V1    S    
H3    C28   S    
C11   C27   A    
C10   C26   A    
C51   C75   A    
N4    H39   S    
C57   C58   A    
C77   H29   S    
C50   C74   A    
C23   C55   A    
C73   H25   S    
O1    C4    A    
C71   N7    S    
C68   C76   A    
C75   H27   S    
O2    C3    A    
C14   C30   A    
C11   C35   A    
C54   C78   A    
O8    V1    S    
C64   C71   A    
C69   N5    S    
H12   C20   S    
N2    H36   S    
C21   C53   A    
C20   C28   A    
O7    C6    A    
C35   C43   A    
N1    H33   S    
C34   C42   A    
C43   C51   A    
H23   C40   S    
C18   C50   A    
C10   C34   A    
H21   C38   S    
O1    V3    S    
O16   V3    S    
C17   C49   A    
C24   C32   A    
C47   C63   A    
C61   C62   A    
O15   V4    S    
H8    C31   S    
C68   N4    S    
C12   C36   A    
O14   C6    A    
O5    C8    A    
O10   C2    A    
O6    C7    A    
C12   C28   A    
C65   N1    S    
O10   V2    S    
C59   C68   A    
C66   C74   A    
C19   C27   A    
N6    H43   S    
C78   H30   S    
C41   C57   A    
N7    H45   S    
H15   C23   S    
C63   C72   A    
O2    V4    S    
C70   C78   A    
O7    V2    S    
O19   V1    S    
N5    H41   S    
H4    C27   S    
C69   C77   A    
C74   H26   S    
C72   N8    S    
C45   C61   A    
O13   V3    S    
C71   C79   A    
