data_mof_unit_41804.cif
_audit_creation_date              2012-12-10T17:01:29-0500
_audit_creation_method            fapswitch 2.2
_symmetry_space_group_name_H-M    P1
_symmetry_Int_Tables_number       1
_space_group_crystal_system       triclinic
_cell_length_a                    12.888853
_cell_length_b                    10.657256
_cell_length_c                    10.078834
_cell_angle_alpha                 88.724557
_cell_angle_beta                  97.336685
_cell_angle_gamma                 90.652645
_cell_volume                      1372.70101272

loop_
_atom_site_label
_atom_site_type_symbol
_atom_type_description
_atom_site_fract_x
_atom_site_fract_y
_atom_site_fract_z
_atom_type_partial_charge
C1    C     C_R   0.504180 0.262671 0.502595 0.959839
C2    C     C_2   0.521552 0.131423 0.514030 -0.397376
C3    C     C_2   0.492237 0.600490 0.921289 -0.038870
C4    C     C_R   0.298331 0.499773 0.473521 0.899938
C5    C     C_2   0.511640 0.599398 0.071781 -0.010007
C6    C     C_R   0.503033 0.737276 0.498649 0.990097
C7    C     C_R   0.701673 0.500820 0.526305 0.925267
C8    C     C_R   0.813995 0.502999 0.541299 -0.071155
C9    C     C_R   0.186053 0.502293 0.457054 -0.121118
C10   C     C_R   0.021296 0.534012 0.317492 0.394695
C11   C     C_R   0.129605 0.525391 0.331217 -0.261316
C12   C     C_R   0.028790 0.493336 0.559916 0.096895
C13   C     C_R   0.135696 0.485341 0.570314 -0.229806
C14   C     C_R   0.970348 0.518012 0.433298 0.019274
C15   C     C_R   0.862818 0.524215 0.426720 -0.109015
C16   C     C_R   0.872254 0.481069 0.666052 -0.129106
C17   C     C_R   0.979950 0.476538 0.675378 -0.117940
C18   C     C_2   0.578574 0.935737 0.438712 0.484186
C19   C     C_2   0.503338 0.869961 0.491203 -0.459021
C20   C     C_2   0.565431 0.070350 0.422189 -0.177214
H1    H     H_    0.471519 0.688611 0.869407 0.152956
H2    H     H_    0.305731 0.249680 0.158204 0.370673
H3    H     H_    0.834773 0.465357 0.755333 0.203135
H4    H     H_    0.068005 0.663289 0.051396 0.362795
H5    H     H_    0.024921 0.458244 0.772182 0.199440
H6    H     H_    0.844267 0.941269 0.349382 0.401188
H7    H     H_    0.543755 0.429795 0.901583 0.239725
H8    H     H_    0.170293 0.538201 0.244308 0.218434
H9    H     H_    0.179679 0.466128 0.667678 0.201853
H10   H     H_    0.433404 0.913714 0.517931 0.124510
H11   H     H_    0.593107 0.118977 0.337315 0.224881
H12   H     H_    0.815949 0.544005 0.332187 0.238536
H13   H     H_    0.505429 0.085371 0.606705 0.179202
H14   H     H_    0.533708 0.687683 0.118756 0.160961
N1    N     N_2   0.501130 0.501330 0.852280 -0.144620
N2    N     N_2   0.501160 0.501360 0.147950 0.055598
O1    O     O_R   0.499980 0.319060 0.613040 -0.611778
O2    O     O_2   0.478708 0.274354 0.040894 -0.316995
O3    O     O_3   0.345550 0.321109 0.201421 -0.494807
O4    O     O_2   0.879084 0.457861 0.117377 -0.265166
O5    O     O_2   0.892675 0.683590 0.155373 -0.277511
O6    O     O_3   0.037460 0.577866 0.040325 -0.537292
O7    O     O_2   0.745198 0.793460 0.519863 -0.317758
O8    O     O_2   0.675760 0.786975 0.282078 -0.296023
O9    O     O_3   0.780317 0.985056 0.367496 -0.529099
O10   O     O_R   0.500020 0.319100 0.386900 -0.545122
O11   O     O_R   0.346340 0.499960 0.594380 -0.612813
O12   O     O_R   0.346380 0.500000 0.368250 -0.571682
O13   O     O_R   0.499980 0.680900 0.613100 -0.621308
O14   O     O_R   0.500020 0.680940 0.386960 -0.607831
O15   O     O_R   0.653620 0.500000 0.631750 -0.622725
O16   O     O_R   0.653660 0.500040 0.405620 -0.611233
O17   O     O_2   0.338178 0.425343 0.970558 -0.308203
S1    S     S_3+6 0.416000 0.380189 0.085284 0.112586
S2    S     S_3+6 0.953792 0.564256 0.155194 0.026134
S3    S     S_3+6 0.696814 0.869761 0.401243 0.044617
Zn1   Zn    Zn3+2 0.499980 0.499970 0.650990 1.023599
Zn2   Zn    Zn3+2 0.500020 0.500030 0.349010 1.102891

loop_
_geom_bond_atom_site_label_1
_geom_bond_atom_site_label_2
_ccdc_geom_bond_type
C12   C17   A    
O12   Zn2   S    
O15   Zn1   S    
C3    N1    D    
O6    S2    S    
C16   H3    S    
H4    O6    S    
O8    S3    D    
C18   C20   S    
O2    S1    D    
C18   S3    S    
N1    Zn1   S    
O4    S2    D    
C17   H5    S    
C5    H14   S    
C7    O15   A    
C15   H12   S    
C8    C16   A    
N2    S1    S    
O17   S1    D    
C6    O14   A    
C10   S2    S    
C9    C11   A    
C16   C17   A    
O16   Zn2   S    
C11   H8    S    
H2    O3    S    
C2    H13   S    
C13   H9    S    
C12   C14   A    
C7    O16   A    
C1    C2    S    
C8    C15   A    
N2    Zn2   S    
C6    O13   A    
C4    O12   A    
O1    Zn1   S    
C1    O10   A    
C3    H1    S    
O3    S1    S    
O11   Zn1   S    
C10   C11   A    
C2    C20   D    
O14   Zn2   S    
C5    N2    D    
O7    S3    D    
C7    C8    S    
O13   Zn1   S    
C12   C13   A    
C18   C19   D    
C10   C14   A    
C9    C13   A    
C14   C15   A    
O5    S2    D    
H6    O9    S    
H7    N1    S    
C4    C9    S    
C19   H10   S    
C6    C19   S    
C4    O11   A    
O10   Zn2   S    
O9    S3    S    
C1    O1    A    
C3    C5    S    
C20   H11   S    
