data_mof_unit_21037.cif
_audit_creation_date              2012-12-11T14:17:49-0500
_audit_creation_method            fapswitch 2.2
_symmetry_space_group_name_H-M    P1
_symmetry_Int_Tables_number       1
_space_group_crystal_system       triclinic
_cell_length_a                    6.944781
_cell_length_b                    13.628595
_cell_length_c                    20.431031
_cell_angle_alpha                 102.23648
_cell_angle_beta                  89.914617
_cell_angle_gamma                 90.693608
_cell_volume                      1889.67604495

loop_
_atom_site_label
_atom_site_type_symbol
_atom_type_description
_atom_site_fract_x
_atom_site_fract_y
_atom_site_fract_z
_atom_type_partial_charge
O1    O     O_R   0.506860 0.599390 0.449240 -0.529104
O2    O     O_R   0.180220 0.594600 0.586780 -0.548398
O3    O     O_R   0.004500 0.400610 0.550760 -0.537829
C1    C     C_R   0.349034 0.616073 0.613461 0.724690
O4    O     O_R   0.177490 0.611290 0.451970 -0.542174
O5    O     O_R   0.001750 0.417420 0.414990 -0.536987
C2    C     C_R   0.346749 0.636942 0.434478 0.744490
O6    O     O_R   0.509610 0.582580 0.585010 -0.548822
O7    O     O_3   0.337420 0.436370 0.488020 -0.363976
V1    V     V_3+5 0.064680 0.511800 0.502220 1.462112
O8    O     O_R   0.671710 0.405400 0.413220 -0.530701
C3    C     C_R   0.839810 0.384025 0.386552 0.802011
O9    O     O_R   0.674440 0.388710 0.548030 -0.538277
C4    C     C_R   0.842522 0.362047 0.564805 0.737363
V2    V     V_3+5 0.564010 0.488200 0.497780 1.483699
O10   O     O_3   0.841140 0.563630 0.511980 -0.380273
C5    C     C_R   0.852436 0.109530 0.611903 -0.169604
H1    H     H_    0.859308 0.984440 0.694975 0.122610
H2    H     H_    0.852385 0.030857 0.587210 0.138673
C6    C     C_R   0.849053 0.283939 0.604097 -0.069375
C7    C     C_R   0.864290 0.315109 0.928090 -0.164457
C8    C     C_R   0.860954 0.391143 0.892363 -0.119464
C9    C     C_R   0.857825 0.368162 0.822577 -0.157785
C10   C     C_R   0.857992 0.267207 0.786343 0.087129
C11   C     C_R   0.860864 0.189491 0.823440 0.065294
C12   C     C_R   0.855618 0.240780 0.714708 0.077978
C13   C     C_R   0.855729 0.137704 0.682095 0.105146
C14   C     C_R   0.858902 0.063169 0.719589 -0.186499
C15   C     C_R   0.861519 0.088428 0.789053 -0.192768
C16   C     C_R   0.852873 0.312914 0.674068 -0.252212
C17   C     C_R   0.848607 0.181903 0.572868 0.135438
C18   C     C_R   0.863915 0.214583 0.894446 -0.076430
H3    H     H_    0.852632 0.392426 0.694991 0.101251
H4    H     H_    0.867334 0.334710 0.982338 0.108079
H5    H     H_    0.855522 0.431378 0.798722 0.107040
H6    H     H_    0.861129 0.468816 0.918999 0.120101
H7    H     H_    0.864054 0.027648 0.815630 0.114259
C19   C     C_2   0.005439 0.289191 0.284915 -0.106592
C20   C     C_2   0.842300 0.315500 0.319831 -0.253750
H8    H     H_    0.142542 0.318341 0.306711 0.151527
H9    H     H_    0.703735 0.286815 0.299716 0.138759
C21   C     C_2   0.013800 0.220982 0.217333 -0.119548
C22   C     C_2   0.858607 0.183494 0.180329 -0.297631
H10   H     H_    0.156680 0.201842 0.197316 0.137274
H11   H     H_    0.714453 0.201991 0.198723 0.134508
C23   C     C_2   0.204593 0.790941 0.782310 -0.136142
C24   C     C_2   0.363627 0.815664 0.819932 -0.304736
H12   H     H_    0.066978 0.821322 0.801651 0.130745
H13   H     H_    0.502060 0.785626 0.801907 0.127435
C25   C     C_2   0.202852 0.722409 0.714804 -0.130930
C26   C     C_2   0.360995 0.684387 0.680200 -0.305408
H14   H     H_    0.061600 0.703415 0.692662 0.132536
H15   H     H_    0.504117 0.703017 0.700279 0.124215
C27   C     C_R   0.352013 0.886581 0.385962 -0.112517
H16   H     H_    0.321366 0.835647 0.477633 0.119219
H17   H     H_    0.395498 0.012389 0.304107 0.139862
H18   H     H_    0.348987 0.964953 0.411284 0.151877
C28   C     C_R   0.356187 0.712075 0.393037 -0.062221
C29   C     C_R   0.300795 0.687177 0.071248 -0.173597
C30   C     C_R   0.256700 0.614690 0.107726 -0.109717
C31   C     C_R   0.270529 0.637589 0.177313 -0.109356
C32   C     C_R   0.339317 0.732238 0.212036 0.089567
C33   C     C_R   0.365970 0.808909 0.175060 0.064805
C34   C     C_R   0.361107 0.756140 0.283092 0.041548
C35   C     C_R   0.365677 0.859127 0.316085 0.112008
C36   C     C_R   0.385051 0.933955 0.279112 -0.163544
C37   C     C_R   0.393937 0.908921 0.209677 -0.192822
C38   C     C_R   0.379877 0.682866 0.323068 0.060340
C39   C     C_R   0.338038 0.813266 0.423800 -0.197508
C40   C     C_R   0.351738 0.784632 0.104301 -0.074419
H19   H     H_    0.285418 0.668736 0.017233 0.104335
H20   H     H_    0.215296 0.582446 0.203534 0.153183
H21   H     H_    0.205809 0.541186 0.082097 0.125378
H22   H     H_    0.412515 0.969451 0.183335 0.117860
O11   O     O_R   0.203230 0.917310 0.915020 -0.539971
O12   O     O_R   0.535500 0.888690 0.048040 -0.541384
O13   O     O_R   0.711080 0.082610 0.085000 -0.543359
C41   C     C_R   0.365825 0.861987 0.064607 0.689668
O14   O     O_R   0.532630 0.905370 0.913230 -0.548781
O15   O     O_R   0.708190 0.099410 0.949230 -0.538115
C42   C     C_R   0.364387 0.884214 0.886517 0.742021
O16   O     O_R   0.206120 0.900510 0.050790 -0.538446
O17   O     O_3   0.375360 0.063570 0.011990 -0.371245
V3    V     V_3+5 0.648170 0.988200 0.997780 1.421085
O18   O     O_R   0.038240 0.111390 0.951940 -0.540883
C43   C     C_R   0.870236 0.137319 0.934636 0.688816
O19   O     O_R   0.041120 0.094710 0.086750 -0.541852
C44   C     C_R   0.872507 0.115778 0.113519 0.745729
V4    V     V_3+5 0.148810 0.011930 0.002180 1.428676
O20   O     O_3   0.871750 0.936430 0.988010 -0.373592
I1    I     I_    0.842709 0.132961 0.467072 -0.464333
I2    I     I_    0.498363 0.536367 0.284962 -0.472808

loop_
_geom_bond_atom_site_label_1
_geom_bond_atom_site_label_2
_ccdc_geom_bond_type
O19   C44   A    
C40   C41   S    
O15   V3    S    
O12   V3    S    
C24   H13   S    
C27   C35   A    
C6    C16   A    
O18   C43   A    
C12   C13   A    
O16   V4    S    
V3    O20   S    
C22   C44   S    
C34   C38   A    
C14   C15   A    
O12   C41   A    
C19   C21   S    
O5    C3    A    
O14   V3    S    
V2    O10   S    
C30   H21   S    
C32   C34   A    
C5    H2    S    
O8    V2    S    
O13   C44   A    
C25   H14   S    
C9    C10   A    
O1    V2    S    
O7    V1    S    
C2    C28   S    
C1    O6    A    
C11   C18   A    
C36   C37   A    
C29   C30   A    
O9    C4    A    
C21   H10   S    
C23   H12   S    
C11   C15   A    
O17   V4    S    
C7    C18   A    
C33   C37   A    
C1    C26   S    
C5    C13   A    
C4    C6    S    
H1    C14   S    
C10   C11   A    
C20   H9    S    
O4    C2    A    
O18   V4    S    
O11   C42   A    
C7    H4    S    
O13   V3    S    
C30   C31   A    
C26   H15   S    
O2    C1    A    
C32   C33   A    
C41   O16   A    
O17   V3    S    
C33   C40   A    
C18   C43   S    
C25   C26   D    
C37   H22   S    
C22   H11   S    
H16   C39   S    
O3    C4    A    
C31   H20   S    
C28   C38   A    
C12   C16   A    
O6    V2    S    
C9    H5    S    
O19   V4    S    
C5    C17   A    
C21   C22   D    
O2    V1    S    
O14   C42   A    
C23   C24   D    
C16   H3    S    
O1    C2    A    
C17   I1    S    
C10   C12   A    
O5    V1    S    
O8    C3    A    
C28   C39   A    
C8    H6    S    
C23   C25   S    
O15   C43   A    
C34   C35   A    
C3    C20   S    
O9    V2    S    
O7    V2    S    
O4    V1    S    
O3    V1    S    
V1    O10   S    
C19   H8    S    
C19   C20   D    
C27   C39   A    
H17   C36   S    
C38   I2    S    
C24   C42   S    
C31   C32   A    
O11   V4    S    
C29   C40   A    
C35   C36   A    
C15   H7    S    
C13   C14   A    
C8    C9    A    
V4    O20   S    
C7    C8    A    
C6    C17   A    
C29   H19   S    
C27   H18   S    
