data_mof_unit_9506.cif
_audit_creation_date              2012-12-11T16:07:28-0500
_audit_creation_method            fapswitch 2.2
_symmetry_space_group_name_H-M    P1
_symmetry_Int_Tables_number       1
_space_group_crystal_system       triclinic
_cell_length_a                    6.924342
_cell_length_b                    14.455761
_cell_length_c                    15.881209
_cell_angle_alpha                 90.275388
_cell_angle_beta                  90.066568
_cell_angle_gamma                 89.843413
_cell_volume                      1589.6302022

loop_
_atom_site_label
_atom_site_type_symbol
_atom_type_description
_atom_site_fract_x
_atom_site_fract_y
_atom_site_fract_z
_atom_type_partial_charge
O1    O     O_R   0.494320 0.415010 0.412140 -0.534455
O2    O     O_R   0.824010 0.404260 0.587250 -0.515924
O3    O     O_R   0.994320 0.584990 0.587860 -0.553516
C1    C     C_R   0.655063 0.381453 0.616063 0.797623
O4    O     O_R   0.824040 0.403870 0.412760 -0.509354
O5    O     O_R   0.994350 0.584590 0.412130 -0.556934
C2    C     C_R   0.654746 0.380718 0.383986 0.846590
O6    O     O_R   0.494300 0.415410 0.587870 -0.556373
O7    O     O_3   0.660800 0.559290 0.500000 -0.389940
V1    V     V_3+5 0.935650 0.489000 0.500000 1.598755
O8    O     O_R   0.324060 0.595740 0.412750 -0.527222
C3    C     C_R   0.154702 0.620150 0.385351 0.826779
O9    O     O_R   0.324040 0.596130 0.587240 -0.552971
C4    C     C_R   0.154965 0.618914 0.615808 0.715621
V2    V     V_3+5 0.435660 0.511000 0.500000 1.538681
O10   O     O_3   0.160640 0.440710 0.500000 -0.355322
C5    C     C_3   0.095964 0.664757 0.777804 -0.098175
C6    C     C_3   0.263399 0.727990 0.807991 -0.149456
H1    H     H_    0.373896 0.709255 0.855600 0.191227
H2    H     H_    0.065717 0.594174 0.801585 0.151076
C7    C     C_3   0.121752 0.810624 0.811666 -0.136508
C8    C     C_3   0.954339 0.748133 0.781866 -0.181046
C9    C     C_3   0.002181 0.771770 0.688958 -0.164035
C10   C     C_3   0.168989 0.833552 0.719992 0.766052
C11   C     C_3   0.311703 0.751733 0.715238 -0.219416
C12   C     C_3   0.144048 0.689287 0.685849 -0.144526
H3    H     H_    0.807140 0.746515 0.809482 0.161717
H4    H     H_    0.895815 0.790206 0.639408 0.187378
H5    H     H_    0.458667 0.754328 0.687452 0.161079
C13   C     C_3   0.328282 0.811069 0.228667 -0.402452
H6    H     H_    0.444249 0.800227 0.181463 0.222248
H7    H     H_    0.355957 0.880235 0.257309 0.197191
C14   C     C_3   0.343339 0.736465 0.297787 -0.271485
H8    H     H_    0.399118 0.768659 0.356738 0.197599
H9    H     H_    0.450479 0.683351 0.278112 0.251004
C15   C     C_3   0.075641 0.709853 0.155426 0.858980
C16   C     C_3   0.978909 0.836580 0.258318 -0.432580
C17   C     C_3   0.124330 0.810656 0.186916 -0.211105
H10   H     H_    0.828458 0.835155 0.233650 0.153420
H11   H     H_    0.005816 0.908632 0.280330 0.220373
C18   C     C_3   0.143861 0.690445 0.314201 -0.222176
C19   C     C_3   0.077321 0.641616 0.231989 0.332040
C20   C     C_3   0.995478 0.768677 0.333839 0.447696
H12   H     H_    0.850803 0.738105 0.345870 0.067811
H13   H     H_    0.928334 0.616092 0.241934 0.138618
C21   C     C_3   0.430621 0.281791 0.703657 -0.394454
H14   H     H_    0.342744 0.344539 0.717936 0.153048
H15   H     H_    0.366654 0.248996 0.646595 0.285073
C22   C     C_3   0.416288 0.214983 0.779033 0.495402
H16   H     H_    0.341862 0.251592 0.831691 0.111459
H17   H     H_    0.647733 0.410530 0.788868 0.137218
H18   H     H_    0.646294 0.304054 0.894750 0.100801
C23   C     C_3   0.731076 0.348321 0.768725 -0.458297
C24   C     C_3   0.757914 0.219921 0.661100 1.050746
C25   C     C_3   0.644387 0.309378 0.685709 -0.266940
C26   C     C_3   0.621342 0.184557 0.809094 -0.374668
C27   C     C_3   0.725085 0.274607 0.839696 0.364335
C28   C     C_3   0.739816 0.145026 0.732124 0.194119
H19   H     H_    0.888138 0.130206 0.755568 0.193477
H20   H     H_    0.882427 0.371252 0.758307 0.235381
C29   C     C_3   0.428133 0.286402 0.291474 -0.406228
H21   H     H_    0.359748 0.255657 0.348223 0.197076
H22   H     H_    0.343093 0.349707 0.277237 0.246647
C30   C     C_3   0.414305 0.217246 0.217054 1.136829
H23   H     H_    0.673961 0.190430 0.394991 0.142647
H24   H     H_    0.647999 0.083313 0.288746 0.159480
C31   C     C_3   0.743350 0.218219 0.337246 0.474135
C32   C     C_3   0.742397 0.347205 0.229921 0.239186
C33   C     C_3   0.642423 0.310786 0.311941 -0.284230
H25   H     H_    0.896799 0.360739 0.245028 0.145843
C34   C     C_3   0.620232 0.186053 0.187849 -0.188870
C35   C     C_3   0.726818 0.145039 0.265382 -0.447513
C36   C     C_3   0.734948 0.272351 0.159092 -0.409664
H26   H     H_    0.669885 0.299815 0.100187 0.218882
H27   H     H_    0.885308 0.251791 0.142539 0.213893
H28   H     H_    0.873600 0.120956 0.246815 0.246495
O11   O     O_R   0.771990 0.083520 0.910980 -0.519366
O12   O     O_R   0.442180 0.095020 0.086060 -0.510360
O13   O     O_R   0.271950 0.914280 0.086680 -0.544980
C37   C     C_R   0.610560 0.115961 0.116400 0.725924
O14   O     O_R   0.442270 0.094630 0.911580 -0.521020
O15   O     O_R   0.272040 0.913890 0.910940 -0.520277
C38   C     C_R   0.610857 0.116230 0.881818 0.847897
O16   O     O_R   0.771900 0.083910 0.086710 -0.558095
O17   O     O_3   0.605520 0.939610 0.998840 -0.379190
V3    V     V_3+5 0.330640 0.009880 0.998810 1.696505
O18   O     O_R   0.942330 0.902710 0.911540 -0.540435
C39   C     C_R   0.111118 0.881186 0.881834 0.854209
O19   O     O_R   0.942240 0.903100 0.086030 -0.536881
C40   C     C_R   0.111561 0.881659 0.116069 0.809580
V4    V     V_3+5 0.830640 0.987830 0.998780 1.623752
O20   O     O_3   0.105630 0.058150 0.998800 -0.359361
S1    S     S_3+6 0.234141 0.669129 0.072300 0.101483
O21   O     O_2   0.154838 0.580720 0.036309 -0.252576
O22   O     O_2   0.244120 0.739328 0.003444 -0.402802
O23   O     O_3   0.458213 0.649004 0.108750 -0.428040
H29   H     H_    0.536594 0.635864 0.057941 0.418925
F1    F     F_    0.190717 0.564068 0.217395 -0.583972
F2    F     F_    0.049999 0.816544 0.405881 -0.643465
F3    F     F_    0.890601 0.710533 0.121776 -0.678209
F4    F     F_    0.302097 0.139845 0.757901 -0.546893
F5    F     F_    0.951896 0.240651 0.650419 -0.649412
F6    F     F_    0.689613 0.188012 0.584157 -0.665117
S2    S     S_3+6 0.657463 0.034496 0.691402 0.145399
O24   O     O_2   0.613151 0.968612 0.761623 -0.324429
O25   O     O_2   0.480212 0.045990 0.637678 -0.192192
O26   O     O_3   0.834381 0.987872 0.632303 -0.443690
H30   H     H_    0.826808 0.019895 0.577415 0.405295
F7    F     F_    0.911875 0.255266 0.866125 -0.643898
F8    F     F_    0.316203 0.258605 0.150920 -0.649515
F9    F     F_    0.308268 0.140962 0.242435 -0.688896
S3    S     S_3+6 0.645684 0.455098 0.190829 0.076278
O27   O     O_2   0.452699 0.439445 0.149994 -0.211535
O28   O     O_2   0.623520 0.524294 0.260944 -0.340723
O29   O     O_3   0.795971 0.498103 0.117776 -0.433183
H31   H     H_    0.922195 0.467950 0.128107 0.380215
F10   F     F_    0.936670 0.232957 0.355807 -0.629162
F11   F     F_    0.205300 0.921448 0.690565 -0.543687

loop_
_geom_bond_atom_site_label_1
_geom_bond_atom_site_label_2
_ccdc_geom_bond_type
C13   H7    S    
O18   C39   A    
S1    O21   D    
O18   V4    S    
C6    C7    S    
C36   H27   S    
C36   H26   S    
C15   C19   S    
C1    O6    A    
S2    O25   D    
O17   V4    S    
O17   V3    S    
C21   C22   S    
C16   C17   S    
C5    C12   S    
C20   F2    S    
C6    H1    S    
C16   H11   S    
C19   F1    S    
O5    C3    A    
C13   H6    S    
O12   C37   A    
C30   C34   S    
O11   C38   A    
V2    O10   S    
C5    H2    S    
C26   C27   S    
C13   C17   S    
C31   C35   S    
C18   C19   S    
C9    C12   S    
C29   H22   S    
C34   C37   S    
O13   C40   A    
C24   C25   S    
O8    V2    S    
C15   S1    S    
C27   F7    S    
H24   C35   S    
C32   C33   S    
H23   C31   S    
C21   C25   S    
O26   H30   S    
O1    V2    S    
O16   V4    S    
O19   V4    S    
O7    V1    S    
O14   V3    S    
C37   O16   A    
O12   V3    S    
C7    C39   S    
S1    O22   D    
O9    C4    A    
C18   C20   S    
C6    C11   S    
S3    O28   D    
S3    O27   D    
O14   C38   A    
C23   H20   S    
C14   H8    S    
C23   C25   S    
C11   H5    S    
C21   H15   S    
C24   F6    S    
C10   C11   S    
V4    O20   S    
C34   C36   S    
C23   C27   S    
C30   F9    S    
C11   C12   S    
O15   V3    S    
H17   C23   S    
C19   H13   S    
C16   C20   S    
C29   C30   S    
O2    C1    A    
C20   H12   S    
C2    C33   S    
C3    C18   S    
C30   F8    S    
C9    C10   S    
O23   H29   S    
C5    C6    S    
C35   H28   S    
C15   F3    S    
C9    H4    S    
C4    C12   S    
C31   F10   S    
S2    O26   S    
O3    C4    A    
S1    O23   S    
C8    H3    S    
O9    V2    S    
C1    C25   S    
C28   H19   S    
C28   S2    S    
O2    V1    S    
C26   C38   S    
O4    C2    A    
C24   C28   S    
C29   C33   S    
C21   H14   S    
O11   V4    S    
C13   C14   S    
O1    C2    A    
C24   F5    S    
S2    O24   D    
O5    V1    S    
O8    C3    A    
O6    V2    S    
C22   C26   S    
C17   C40   S    
C10   F11   S    
C5    C8    S    
C14   C18   S    
C15   C17   S    
C32   C36   S    
O4    V1    S    
C16   H10   S    
O3    V1    S    
V3    O20   S    
C22   F4    S    
O15   C39   A    
C14   H9    S    
C26   C28   S    
S3    O29   S    
O7    V2    S    
C29   H21   S    
H18   C27   S    
C34   C35   S    
C32   H25   S    
C22   H16   S    
C7    C10   S    
C8    C9    S    
V1    O10   S    
C31   C33   S    
O19   C40   A    
C7    C8    S    
O13   V3    S    
C32   S3    S    
O29   H31   S    
