data_mof_unit_25706.cif
_audit_creation_date              2013-03-05T15:58:45-0500
_audit_creation_method            fapswitch 2.2
_symmetry_space_group_name_H-M    P1
_symmetry_Int_Tables_number       1
_space_group_crystal_system       triclinic
_cell_length_a                    6.924833
_cell_length_b                    14.342148
_cell_length_c                    15.951062
_cell_angle_alpha                 90.209037
_cell_angle_beta                  90.034562
_cell_angle_gamma                 90.017591
_cell_volume                      1584.20039439

loop_
_atom_site_label
_atom_site_type_symbol
_atom_site_description
_atom_site_fract_x
_atom_site_fract_y
_atom_site_fract_z
_atom_type_partial_charge
O1    O     O_R   0.494320 0.415010 0.412140 -0.576019
O2    O     O_R   0.824010 0.404260 0.587250 -0.604046
O3    O     O_R   0.994320 0.584990 0.587860 -0.575153
C1    C     C_R   0.654856 0.381551 0.616237 0.893145
O4    O     O_R   0.824040 0.403870 0.412760 -0.594936
O5    O     O_R   0.994350 0.584590 0.412130 -0.590469
C2    C     C_R   0.655179 0.383161 0.382188 0.927226
O6    O     O_R   0.494300 0.415410 0.587870 -0.590897
O7    O     O_3   0.660800 0.559290 0.500000 -0.255194
V1    V     V_3+5 0.935650 0.489000 0.500000 1.197370
O8    O     O_R   0.324060 0.595740 0.412750 -0.605377
C3    C     C_R   0.154734 0.618521 0.383887 0.910467
O9    O     O_R   0.324040 0.596130 0.587240 -0.601319
C4    C     C_R   0.155011 0.619611 0.615179 0.990835
V2    V     V_3+5 0.435660 0.511000 0.500000 1.196101
O10   O     O_3   0.160640 0.440710 0.500000 -0.259263
C5    C     C_3   0.069462 0.667656 0.773346 -0.164912
C6    C     C_3   0.242982 0.721557 0.811667 -0.039648
H1    H     H_    0.337307 0.696874 0.863063 0.177497
H2    H     H_    0.017977 0.598240 0.794336 0.142234
C7    C     C_3   0.121592 0.811782 0.811101 -0.139958
C8    C     C_3   0.947437 0.758707 0.773609 -0.189091
C9    C     C_3   0.025480 0.780809 0.685733 0.414210
C10   C     C_3   0.196397 0.835781 0.722590 -0.223455
C11   C     C_3   0.317254 0.744365 0.722324 -0.149913
C12   C     C_3   0.144047 0.690740 0.684568 -0.243812
H3    H     H_    0.794525 0.765047 0.793734 0.140914
H4    H     H_    0.246523 0.905292 0.701241 0.148989
C13   C     C_3   0.221159 0.854865 0.264852 -0.432709
H5    H     H_    0.369111 0.879014 0.248423 0.159924
H6    H     H_    0.139039 0.917391 0.285920 0.178235
C14   C     C_3   0.234116 0.783489 0.337977 -0.317788
H7    H     H_    0.158465 0.811993 0.393995 0.190869
H8    H     H_    0.394991 0.747341 0.150643 0.070988
H9    H     H_    0.404685 0.636642 0.250569 0.143076
C15   C     C_3   0.244006 0.723073 0.161446 0.291077
C16   C     C_3   0.916503 0.779610 0.215590 -0.316828
C17   C     C_3   0.121546 0.810573 0.186750 -0.066122
H10   H     H_    0.831103 0.750938 0.162524 0.203032
H11   H     H_    0.834905 0.841391 0.238849 0.146171
C18   C     C_3   0.142810 0.688501 0.312518 0.043549
C19   C     C_3   0.251175 0.650964 0.234297 -0.476406
C20   C     C_3   0.929212 0.706782 0.286468 -0.320730
H12   H     H_    0.860881 0.640619 0.264915 0.166078
C21   C     C_3   0.429399 0.285925 0.707712 -0.320824
H13   H     H_    0.357654 0.256100 0.651187 0.191627
C22   C     C_3   0.416932 0.215051 0.780190 -0.353461
H14   H     H_    0.337742 0.151908 0.758330 0.156068
H15   H     H_    0.332095 0.246140 0.832553 0.172555
H16   H     H_    0.662864 0.415450 0.787544 0.155098
H17   H     H_    0.647972 0.309053 0.894878 0.177748
C23   C     C_3   0.737397 0.350075 0.768276 -0.382889
C24   C     C_3   0.749459 0.219023 0.663611 -0.321164
C25   C     C_3   0.643198 0.310818 0.687112 0.077141
H18   H     H_    0.904335 0.233754 0.650524 0.161512
H19   H     H_    0.686513 0.188858 0.605512 0.201203
C26   C     C_3   0.621696 0.187497 0.811522 0.050823
C27   C     C_3   0.726141 0.277875 0.840674 -0.281310
C28   C     C_3   0.734759 0.146713 0.735644 -0.338225
H20   H     H_    0.661260 0.082666 0.712289 0.179394
H21   H     H_    0.882833 0.126097 0.755423 0.158168
C29   C     C_3   0.480172 0.339830 0.247238 -0.321325
H22   H     H_    0.339635 0.349533 0.279589 0.191084
H23   H     H_    0.514280 0.407989 0.217563 0.172591
C30   C     C_3   0.458439 0.264321 0.178105 -0.239496
H24   H     H_    0.454344 0.297247 0.115256 0.197660
H25   H     H_    0.316579 0.228975 0.186109 0.188409
H26   H     H_    0.462496 0.101498 0.270431 0.205162
C31   C     C_3   0.611528 0.212125 0.343511 0.298510
C32   C     C_3   0.834990 0.313505 0.258818 -0.537319
C33   C     C_3   0.643748 0.313500 0.310137 -0.109583
H27   H     H_    0.958296 0.294697 0.300092 0.200339
H28   H     H_    0.865374 0.385067 0.235482 0.207053
C34   C     C_3   0.623847 0.191120 0.183866 -0.128104
C35   C     C_3   0.600976 0.140898 0.269416 -0.540170
C36   C     C_3   0.824581 0.242261 0.185175 0.287056
H29   H     H_    0.739920 0.193682 0.382275 0.078810
H30   H     H_    0.717539 0.088101 0.276806 0.143947
O11   O     O_R   0.771990 0.083520 0.910980 -0.590301
O12   O     O_R   0.442180 0.095020 0.086060 -0.589812
O13   O     O_R   0.271950 0.914280 0.086680 -0.600322
C37   C     C_R   0.611657 0.119632 0.113444 0.925836
O14   O     O_R   0.442270 0.094630 0.911580 -0.599287
O15   O     O_R   0.272040 0.913890 0.910940 -0.593728
C38   C     C_R   0.611081 0.116995 0.882407 0.884937
O16   O     O_R   0.771900 0.083910 0.086710 -0.586369
O17   O     O_3   0.605520 0.939610 0.998840 -0.266394
V3    V     V_3+5 0.330640 0.009880 0.998810 1.194550
O18   O     O_R   0.942330 0.902710 0.911540 -0.594865
C39   C     C_R   0.111153 0.880654 0.882389 0.981405
O19   O     O_R   0.942240 0.903100 0.086030 -0.596671
C40   C     C_R   0.111027 0.880975 0.115482 0.912588
V4    V     V_3+5 0.830640 0.987830 0.998780 1.199942
O20   O     O_3   0.105630 0.058150 0.998800 -0.246540
H31   H     H_    0.388222 0.773373 0.355562 0.165352
H32   H     H_    0.845090 0.732246 0.341425 0.179861
N1    N     N_R   0.175463 0.679435 0.083606 0.228293
O21   O     O_R   0.288575 0.676787 0.018656 -0.432509
O22   O     O_R   0.011095 0.635538 0.080568 -0.391608
H33   H     H_    0.187104 0.583100 0.214781 0.188446
H34   H     H_    0.348499 0.350046 0.725611 0.147585
H35   H     H_    0.891251 0.368067 0.756255 0.154427
H36   H     H_    0.874812 0.260978 0.862375 0.178600
N2    N     N_R   0.439629 0.205165 0.397064 0.243273
O23   O     O_R   0.266655 0.209981 0.365485 -0.441489
O24   O     O_R   0.459191 0.187436 0.476494 -0.443161
N3    N     N_R   0.869229 0.287288 0.104846 0.228090
O25   O     O_R   0.774933 0.360689 0.080102 -0.408500
O26   O     O_R   0.015175 0.258213 0.060590 -0.416220
N4    N     N_R   0.905118 0.816432 0.618042 0.224625
O27   O     O_R   0.806520 0.892610 0.629241 -0.423878
O28   O     O_R   0.900323 0.774696 0.545577 -0.433049
H37   H     H_    0.937844 0.188635 0.197105 0.079175
H38   H     H_    0.469680 0.738407 0.701419 0.161691

loop_
_geom_bond_atom_site_label_1
_geom_bond_atom_site_label_2
_geom_bond_distance
_ccdc_geom_bond_type
O17   V3    2.154112 S    
V4    O20   2.154571 S    
C6    C7    1.543354 S    
N3    O26   1.301008 A    
C18   C19   1.551197 S    
C15   C19   1.559208 S    
C1    O6    1.295391 A    
N2    O24   1.300175 A    
N1    O21   1.299622 A    
C24   C28   1.553980 S    
C22   H15   1.113376 S    
C21   H13   1.113224 S    
H26   C35   1.113065 S    
C23   H35   1.113059 S    
C16   C17   1.557826 S    
C34   C36   1.571587 S    
C5    C12   1.544652 S    
O11   V4    2.005873 S    
C16   H11   1.113645 S    
C2    C33   1.522098 S    
C31   N2    1.469158 S    
O19   V4    2.005619 S    
V2    O10   2.154553 S    
C17   C40   1.524947 S    
C5    H2    1.110288 S    
C5    C6    1.552482 S    
C6    H1    1.107099 S    
C9    C12   1.530902 S    
C31   C33   1.566113 S    
H9    C19   1.113452 S    
N4    O27   1.300358 A    
C29   H23   1.113020 S    
O13   C40   1.297277 A    
C31   H29   1.115100 S    
C30   H25   1.112936 S    
C13   C17   1.557027 S    
H16   C23   1.112812 S    
N3    O25   1.301357 A    
C32   C33   1.557313 S    
O1    V2    2.002838 S    
C13   H5    1.113143 S    
O7    V1    2.154061 S    
C21   C22   1.544639 S    
O14   V3    2.006011 S    
C28   H20   1.112925 S    
C7    C8    1.544926 S    
C18   C20   1.558692 S    
C6    C11   1.551348 S    
O15   C39   1.293586 A    
C34   C37   1.520393 S    
N2    O23   1.301094 A    
N1    O22   1.301359 A    
C23   C25   1.553083 S    
C36   H37   1.115425 S    
C7    C39   1.505284 S    
C24   H18   1.113056 S    
C23   C27   1.555865 S    
V3    O20   1.705223 S    
C28   H21   1.113046 S    
C34   C35   1.553524 S    
C10   H4    1.110284 S    
C10   C11   1.555665 S    
O12   C37   1.300285 A    
O19   C40   1.299306 A    
O4    C2    1.300540 A    
C11   C12   1.545319 S    
C37   O16   1.294211 A    
C30   C34   1.556908 S    
C16   H10   1.109971 S    
C16   C20   1.544511 S    
O2    C1    1.301341 A    
C20   H12   1.113406 S    
C29   H22   1.110370 S    
O16   V4    2.004615 S    
C19   H33   1.112860 S    
C22   C26   1.554830 S    
C22   H14   1.113374 S    
C14   C18   1.554271 S    
C32   H28   1.113092 S    
C20   H32   1.113376 S    
H17   C27   1.112841 S    
C4    C12   1.504463 S    
C15   N1    1.467002 S    
O3    C4    1.293130 A    
C21   H34   1.113409 S    
O14   C38   1.299030 A    
C21   C25   1.558362 S    
O6    V2    2.005655 S    
O8    V2    2.005708 S    
C8    H3    1.110324 S    
O9    V2    2.003525 S    
C32   C36   1.555705 S    
O2    V1    2.006171 S    
O11   C38   1.296581 A    
C3    C18   1.522629 S    
C24   H19   1.110172 S    
C9    N4    1.457659 S    
C29   C30   1.549996 S    
C1    C25   1.523865 S    
O1    C2    1.295023 A    
O15   V3    2.002353 S    
O5    V1    2.005912 S    
O8    C3    1.301648 A    
C24   C25   1.553254 S    
C36   N3    1.469983 S    
C5    C8    1.555628 S    
C14   H7    1.112663 S    
C15   C17   1.566606 S    
O7    V2    1.705774 S    
C13   C14   1.557300 S    
C13   H6    1.113033 S    
O3    V1    2.002339 S    
V1    O10   1.705214 S    
C11   H38   1.110358 S    
O5    C3    1.294276 A    
C26   C27   1.553756 S    
O17   V4    1.705243 S    
C26   C38   1.521404 S    
C29   C33   1.560121 S    
C31   C35   1.561030 S    
H8    C15   1.115544 S    
O18   V4    2.003624 S    
C35   H30   1.113431 S    
N4    O28   1.300149 A    
O13   V3    2.005996 S    
C26   C28   1.554449 S    
C9    C10   1.537308 S    
O4    V1    2.002562 S    
C14   H31   1.112917 S    
O12   V3    2.002572 S    
C30   H24   1.110073 S    
C7    C10   1.544161 S    
C8    C9    1.536687 S    
C32   H27   1.111788 S    
C27   H36   1.113015 S    
O18   C39   1.297237 A    
O9    C4    1.296870 A    
