data_mof_unit_57453.cif
_audit_creation_date              2012-12-10T20:21:46-0500
_audit_creation_method            fapswitch 2.2
_symmetry_space_group_name_H-M    P1
_symmetry_Int_Tables_number       1
_space_group_crystal_system       triclinic
_cell_length_a                    18.83781
_cell_length_b                    18.570653
_cell_length_c                    8.890978
_cell_angle_alpha                 90.189003
_cell_angle_beta                  91.524149
_cell_angle_gamma                 89.648494
_cell_volume                      3109.16044782

loop_
_atom_site_label
_atom_site_type_symbol
_atom_type_description
_atom_site_fract_x
_atom_site_fract_y
_atom_site_fract_z
_atom_type_partial_charge
C1    C     C_R   0.365231 0.500222 0.497825 0.857567
C2    C     C_R   0.549647 0.196747 0.592252 -0.101305
C3    C     C_R   0.499928 0.842246 0.496521 0.000793
C4    C     C_R   0.500383 0.157917 0.500906 -0.083523
C5    C     C_R   0.522411 0.962156 0.371806 -0.062561
C6    C     C_R   0.477647 0.037880 0.625170 -0.155160
C7    C     C_R   0.477164 0.962136 0.623810 -0.096983
C8    C     C_R   0.522926 0.037906 0.373230 -0.174518
C9    C     C_R   0.500551 0.076679 0.499929 0.032255
C10   C     C_R   0.499517 0.923377 0.497089 0.238817
C11   C     C_R   0.499816 0.499926 0.218634 0.922765
C12   C     C_R   0.634758 0.499772 0.498996 0.854374
C13   C     C_R   0.500193 0.500074 0.781377 0.934126
C14   C     C_1   0.499949 0.499891 0.065426 -0.147057
C15   C     C_1   0.500090 0.500111 0.934609 -0.144578
C16   C     C_R   0.724902 0.484483 0.310214 -0.188771
C17   C     C_R   0.270190 0.519331 0.310956 -0.216367
C18   C     C_R   0.240708 0.480380 0.562153 -0.180385
C19   C     C_R   0.761221 0.515351 0.566491 -0.182766
C20   C     C_R   0.795073 0.485987 0.265920 0.079269
C21   C     C_R   0.198946 0.517913 0.266283 0.088258
C22   C     C_R   0.168973 0.480248 0.520361 0.039378
C23   C     C_R   0.549751 0.726718 0.584505 0.039313
C24   C     C_R   0.831938 0.515656 0.524796 0.039119
C25   C     C_R   0.849135 0.500980 0.373704 0.125390
C26   C     C_R   0.147784 0.499161 0.371700 0.130481
C27   C     C_R   0.708359 0.499138 0.459597 -0.032167
C28   C     C_R   0.290656 0.500771 0.458130 -0.032600
C29   C     C_R   0.960070 0.567136 0.322396 -0.099062
C30   C     C_R   0.035346 0.434561 0.312179 -0.103956
C31   C     C_R   0.034763 0.567167 0.326853 -0.089019
C32   C     C_R   0.960785 0.434377 0.317936 -0.092311
C33   C     C_R   0.071739 0.500586 0.329555 0.030697
C34   C     C_R   0.450667 0.273465 0.413895 0.050476
C35   C     C_R   0.924041 0.500730 0.330871 0.032779
C36   C     C_1   0.810528 0.472447 0.110023 0.210786
C37   C     C_1   0.179378 0.535601 0.112523 0.204548
C38   C     C_1   0.117905 0.461182 0.631754 0.199252
C39   C     C_1   0.886083 0.530781 0.638541 0.207241
C40   C     C_2   0.919892 0.636751 0.322163 0.401588
C41   C     C_2   0.075408 0.365140 0.301255 0.405728
C42   C     C_2   0.073355 0.637117 0.330880 0.373096
C43   C     C_2   0.922144 0.364469 0.312478 0.380694
C44   C     C_2   0.604872 0.686436 0.671169 0.423567
C45   C     C_R   0.451756 0.726179 0.410411 0.053825
C46   C     C_2   0.394448 0.313871 0.331058 0.588304
C47   C     C_2   0.400334 0.685360 0.316904 0.430066
C48   C     C_2   0.600331 0.314653 0.680670 0.610532
C49   C     C_2   0.604965 0.841943 0.680246 0.466712
C50   C     C_2   0.399622 0.155990 0.311540 0.477795
C51   C     C_2   0.393404 0.840283 0.315279 0.385491
C52   C     C_2   0.603703 0.155830 0.684573 0.405071
C53   C     C_R   0.548237 0.273648 0.589519 0.062783
C54   C     C_R   0.550913 0.803454 0.584627 -0.131673
C55   C     C_R   0.450775 0.196675 0.410106 -0.087297
C56   C     C_R   0.449588 0.802866 0.408316 -0.139822
H1    H     H_    0.682808 0.472931 0.228084 0.138053
H2    H     H_    0.053830 0.315908 0.346108 0.077941
H3    H     H_    0.053822 0.681907 0.263221 0.081058
H4    H     H_    0.939729 0.321724 0.238548 0.082354
H5    H     H_    0.590533 0.646610 0.752825 0.093330
H6    H     H_    0.407576 0.354706 0.250536 0.074067
H7    H     H_    0.350338 0.668942 0.363308 0.081289
H8    H     H_    0.650974 0.328697 0.633884 0.046388
H9    H     H_    0.624084 0.818302 0.785261 0.086403
H10   H     H_    0.381152 0.103391 0.345371 0.106248
H11   H     H_    0.369740 0.813891 0.217385 0.105798
H12   H     H_    0.310064 0.533867 0.230722 0.143174
H13   H     H_    0.617559 0.100975 0.654397 0.117909
H14   H     H_    0.257647 0.465550 0.675503 0.145671
H15   H     H_    0.747297 0.527088 0.681665 0.151677
H16   H     H_    0.540073 0.933639 0.273034 0.134553
H17   H     H_    0.460014 0.066380 0.723987 0.166559
H18   H     H_    0.459377 0.933592 0.721776 0.130234
H19   H     H_    0.540821 0.066439 0.275344 0.163386
H20   H     H_    0.942827 0.684468 0.374013 0.079709
N1    N     N_R   0.500000 0.689440 0.500000 -0.141645
N2    N     N_R   0.500000 0.310560 0.500000 -0.180591
N3    N     N_1   0.822898 0.461565 0.985171 -0.178345
N4    N     N_1   0.163691 0.549783 0.989380 -0.170576
N5    N     N_1   0.077002 0.445830 0.720851 -0.145622
N6    N     N_1   0.929453 0.542981 0.729530 -0.148892
O1    O     O_R   0.398180 0.560840 0.499960 -0.635284
O2    O     O_2   0.132485 0.361945 0.239557 -0.514820
O3    O     O_2   0.125729 0.646237 0.412383 -0.551361
O4    O     O_2   0.871924 0.353041 0.392871 -0.545829
O5    O     O_2   0.667735 0.697748 0.651502 -0.551247
O6    O     O_2   0.331958 0.301603 0.352969 -0.522294
O7    O     O_2   0.412104 0.673117 0.184925 -0.580488
O8    O     O_2   0.588241 0.330065 0.811087 -0.532701
O9    O     O_2   0.630279 0.899066 0.641216 -0.546067
O10   O     O_2   0.379663 0.179365 0.189279 -0.530645
O11   O     O_2   0.371098 0.899892 0.348907 -0.549966
O12   O     O_R   0.601820 0.439160 0.500040 -0.646020
O13   O     O_2   0.632414 0.181693 0.796746 -0.523195
O14   O     O_R   0.601820 0.560840 0.500040 -0.596056
O15   O     O_R   0.398180 0.439160 0.499960 -0.615612
O16   O     O_R   0.500000 0.560800 0.285330 -0.569147
O17   O     O_R   0.500000 0.439200 0.714670 -0.576273
O18   O     O_R   0.500000 0.560800 0.714670 -0.651950
O19   O     O_R   0.500000 0.439200 0.285330 -0.652078
O20   O     O_2   0.861163 0.641884 0.261548 -0.531453
Zn1   Zn    Zn3+2 0.500000 0.581210 0.500000 0.975545
Zn2   Zn    Zn3+2 0.500000 0.418790 0.500000 0.965757

loop_
_geom_bond_atom_site_label_1
_geom_bond_atom_site_label_2
_ccdc_geom_bond_type
C18   H14   S    
C7    C10   A    
C21   C26   A    
C31   C42   S    
C47   O7    D    
C19   H15   S    
C6    C9    A    
C49   H9    S    
C46   H6    S    
C11   O16   A    
C41   H2    S    
C5    H16   S    
C23   C54   A    
C47   H7    S    
C11   C14   S    
C48   H8    S    
C20   C25   A    
C49   C54   S    
C22   C38   S    
C24   C39   S    
C52   O13   D    
C51   C56   S    
C52   H13   S    
C45   C56   A    
C8    C9    A    
C1    C28   S    
C31   C33   A    
C30   C41   S    
C34   C46   S    
C44   O5    D    
C19   C27   A    
C16   C27   A    
O17   Zn2   S    
O12   Zn2   S    
C34   C55   A    
C48   O8    D    
C17   C28   A    
C12   O12   A    
C49   O9    D    
C7    H18   S    
C46   O6    D    
C45   C47   S    
C48   C53   S    
C37   N4    T    
O1    Zn1   S    
C12   C27   S    
N2    Zn2   S    
C32   C35   A    
C18   C28   A    
C24   C25   A    
C1    O15   A    
C41   O2    D    
C36   N3    T    
C8    H19   S    
C17   C21   A    
C23   C44   S    
C40   H20   S    
C13   O17   A    
C2    C4    A    
C3    C56   A    
C26   C33   S    
C16   C20   A    
C11   O19   A    
C42   O3    D    
C51   H11   S    
C23   N1    A    
C50   H10   S    
C2    C52   S    
C43   H4    S    
C51   O11   D    
C50   O10   D    
C25   C35   S    
O19   Zn2   S    
C13   C15   S    
C4    C55   A    
N1    Zn1   S    
C6    H17   S    
C17   H12   S    
C30   C33   A    
C18   C22   A    
C43   O4    D    
C39   N6    T    
C2    C53   A    
C42   H3    S    
C5    C8    A    
C6    C7    A    
C44   H5    S    
C1    O1    A    
C29   C35   A    
C50   C55   S    
C13   O18   A    
C53   N2    A    
C5    C10   A    
C38   N5    T    
C3    C10   S    
C34   N2    A    
C30   C32   A    
C29   C40   S    
C3    C54   A    
C32   C43   S    
C19   C24   A    
C16   H1    S    
O18   Zn1   S    
O15   Zn2   S    
C40   O20   D    
C20   C36   S    
C21   C37   S    
C29   C31   A    
C22   C26   A    
O14   Zn1   S    
C14   C15   T    
C12   O14   A    
C45   N1    A    
C4    C9    S    
O16   Zn1   S    
