data_mof_unit_38764.cif
_audit_creation_date              2013-03-05T15:52:56-0500
_audit_creation_method            fapswitch 2.2
_symmetry_space_group_name_H-M    P1
_symmetry_Int_Tables_number       1
_space_group_crystal_system       triclinic
_cell_length_a                    10.820413
_cell_length_b                    10.771771
_cell_length_c                    16.9888
_cell_angle_alpha                 100.345093
_cell_angle_beta                  99.736244
_cell_angle_gamma                 60.32163
_cell_volume                      1684.93993348

loop_
_atom_site_label
_atom_site_type_symbol
_atom_site_description
_atom_site_fract_x
_atom_site_fract_y
_atom_site_fract_z
_atom_type_partial_charge
O1    O     O_R   0.749810 0.499790 0.438040 -0.507952
O2    O     O_R   0.477660 0.726260 0.439290 -0.503464
C1    C     C_R   0.356969 0.767254 0.397112 0.567156
O3    O     O_R   0.260150 0.743000 0.412270 -0.471443
O4    O     O_R   0.297740 0.466550 0.394720 -0.461755
C2    C     C_R   0.370920 0.345871 0.357347 0.566522
O5    O     O_R   0.488080 0.253500 0.386430 -0.540296
O6    O     O_R   0.722670 0.303800 0.421940 -0.474728
C3    C     C_R   0.786423 0.371382 0.408424 0.589427
O7    O     O_R   0.751130 0.502220 0.613520 -0.443878
O8    O     O_R   0.478890 0.728510 0.601960 -0.463446
C4    C     C_R   0.381823 0.713020 0.630684 0.522940
O9    O     O_R   0.261470 0.745430 0.587750 -0.406799
O10   O     O_R   0.298970 0.468800 0.557390 -0.459274
C5    C     C_R   0.401955 0.376430 0.599911 0.509882
O11   O     O_R   0.489400 0.255930 0.561910 -0.485509
O12   O     O_R   0.723890 0.306050 0.584610 -0.486397
C6    C     C_R   0.781125 0.377367 0.627969 0.572243
Cr1   Cr    Cr6+3 0.608100 0.610860 0.522250 1.114576
Cr2   Cr    Cr6+3 0.288890 0.599990 0.488420 1.162864
Cr3   Cr    Cr6+3 0.603040 0.289190 0.489390 1.090252
O13   O     O_3   0.500010 0.500010 0.500020 -0.346659
C7    C     C_1   0.347537 0.335244 0.273826 0.005373
C8    C     C_1   0.334236 0.327626 0.202893 0.013450
H1    H     H_    0.910735 0.503901 0.361582 0.193599
C9    C     C_R   0.938421 0.287382 0.186328 -0.032911
C10   C     C_R   0.928250 0.174418 0.216317 -0.049756
C11   C     C_R   0.922582 0.181963 0.300256 -0.007578
C12   C     C_R   0.920203 0.409358 0.321877 -0.105171
C13   C     C_R   0.948399 0.397149 0.243847 0.163000
C14   C     C_R   0.919100 0.056071 0.168167 -0.086907
C15   C     C_R   0.928693 0.943370 0.202352 -0.146554
C16   C     C_R   0.950443 0.941336 0.284846 -0.124163
C17   C     C_R   0.946949 0.060129 0.335051 0.211552
C18   C     C_R   0.886476 0.314153 0.346225 -0.008660
H2    H     H_    0.897975 0.045758 0.104249 0.198479
H3    H     H_    0.917525 0.857072 0.164251 0.232983
H4    H     H_    0.965962 0.848195 0.309585 0.196562
H5    H     H_    0.238588 0.675685 0.268728 0.191925
C19   C     C_R   0.363871 0.806257 0.153987 0.024789
C20   C     C_R   0.453690 0.842648 0.213908 -0.017176
C21   C     C_R   0.432807 0.853915 0.295734 -0.032016
C22   C     C_R   0.289142 0.732839 0.254159 -0.148776
C23   C     C_R   0.297434 0.734254 0.173790 0.168317
C24   C     C_R   0.561345 0.870992 0.196436 0.279036
C25   C     C_R   0.627261 0.928740 0.257702 -0.066691
C26   C     C_R   0.598241 0.949699 0.336697 -0.125910
C27   C     C_R   0.499816 0.915690 0.355737 -0.087874
C28   C     C_R   0.349178 0.798675 0.315520 -0.032165
H6    H     H_    0.703167 0.955920 0.243862 0.145138
H7    H     H_    0.654425 0.990180 0.383711 0.178983
H8    H     H_    0.477305 0.938227 0.417867 0.165232
C29   C     C_R   0.308193 0.265199 0.798836 -0.019378
C30   C     C_R   0.450101 0.190252 0.772011 0.011425
C31   C     C_R   0.479396 0.260444 0.723066 -0.087108
C32   C     C_R   0.225391 0.425403 0.696435 0.203149
C33   C     C_R   0.198234 0.378561 0.759039 -0.114066
C34   C     C_R   0.566502 0.053170 0.792187 0.252733
C35   C     C_R   0.707335 0.005003 0.775275 0.285609
C36   C     C_R   0.733761 0.088086 0.734044 0.197211
C37   C     C_R   0.620947 0.219271 0.714744 -0.138123
C38   C     C_R   0.367484 0.362674 0.676641 -0.015423
H9    H     H_    0.091249 0.434110 0.778233 0.174226
H10   H     H_    0.639346 0.290058 0.689638 0.130644
C39   C     C_1   0.853269 0.328491 0.704456 0.019822
C40   C     C_1   0.898953 0.293037 0.771327 -0.008669
C41   C     C_1   0.358829 0.759484 0.713560 0.054186
C42   C     C_1   0.325527 0.806312 0.780942 0.090949
O14   O     O_R   0.171100 0.914680 0.053100 -0.490435
O15   O     O_R   0.941680 0.184840 0.050710 -0.521776
C43   C     C_R   0.958901 0.282534 0.100681 0.545470
O16   O     O_R   0.922080 0.403420 0.072610 -0.395344
O17   O     O_R   0.196880 0.369150 0.083850 -0.429208
C44   C     C_R   0.319777 0.301303 0.119551 0.591557
O18   O     O_R   0.411730 0.181020 0.091530 -0.503758
O19   O     O_R   0.365010 0.944360 0.063320 -0.467480
C45   C     C_R   0.299239 0.886270 0.083376 0.575651
O20   O     O_R   0.159380 0.906670 0.876210 -0.438414
O21   O     O_R   0.930820 0.177420 0.886730 -0.458172
C46   C     C_R   0.945002 0.272340 0.854517 0.522619
O22   O     O_R   0.910360 0.395420 0.895720 -0.472770
O23   O     O_R   0.186010 0.361730 0.919870 -0.473825
C47   C     C_R   0.281359 0.249240 0.876964 0.533843
O24   O     O_R   0.400000 0.173010 0.914630 -0.453567
O25   O     O_R   0.354140 0.936940 0.899340 -0.453735
C48   C     C_R   0.281298 0.879130 0.858315 0.579635
Cr4   Cr    Cr6+3 0.053960 0.052250 0.967380 1.105818
Cr5   Cr    Cr6+3 0.059890 0.373160 0.992710 1.185751
Cr6   Cr    Cr6+3 0.373370 0.061690 0.991710 1.138249
O26   O     O_3   0.162410 0.162370 0.983930 -0.374995
N1    N     N_R   0.108971 0.541124 0.657047 0.108047
O27   O     O_R   0.106396 0.664501 0.664166 -0.236587
O28   O     O_R   0.994150 0.532458 0.627867 -0.281364
Cl1   Cl    Cl    0.539926 0.915177 0.807992 -0.529888
Cl2   Cl    Cl    0.848148 0.833742 0.798355 -0.385642
N2    N     N_R   0.865209 0.029813 0.698275 0.096660
O29   O     O_R   0.862702 0.027162 0.621227 -0.245101
O30   O     O_R   0.987555 0.966603 0.740053 -0.265464
N3    N     N_R   0.975628 0.505757 0.225068 0.078529
O31   O     O_R   0.059190 0.542898 0.275617 -0.377785
O32   O     O_R   0.878424 0.602920 0.181643 -0.250050
N4    N     N_R   0.978522 0.051561 0.420354 0.088825
O33   O     O_R   0.949939 0.970106 0.453730 -0.289546
O34   O     O_R   0.051510 0.110581 0.463197 -0.323926
Cl3   Cl    Cl    0.640280 0.812988 0.104164 -0.476684
N5    N     N_R   0.237359 0.663497 0.112292 0.077806
O35   O     O_R   0.290488 0.611560 0.043185 -0.297185
O36   O     O_R   0.135975 0.641688 0.126833 -0.313312

loop_
_geom_bond_atom_site_label_1
_geom_bond_atom_site_label_2
_geom_bond_distance
_ccdc_geom_bond_type
O20   Cr4   2.028092 S    
O11   Cr3   2.065289 S    
C42   C48   1.429277 S    
C20   C21   1.420113 A    
O14   C45   1.294521 A    
O21   Cr4   1.933283 S    
C1    C28   1.464173 S    
O4    Cr2   1.924242 S    
C24   C25   1.390944 A    
C6    C39   1.438993 S    
O8    Cr1   1.914153 S    
C9    C10   1.458278 A    
C17   N4    1.440406 S    
C14   H2    1.068469 S    
O25   C48   1.280278 A    
O4    C2    1.254689 A    
N5    O35   1.302213 A    
C5    O11   1.298584 A    
C31   C38   1.403376 A    
C32   C33   1.384686 A    
O17   C44   1.262672 A    
C30   C31   1.384140 A    
C32   N1    1.431079 S    
C47   O24   1.264413 A    
C11   C18   1.393923 A    
O6    C3    1.292072 A    
N2    O30   1.297326 A    
C7    C8    1.182012 T    
C33   H9    1.084493 S    
O15   C43   1.297175 A    
O14   Cr4   2.052810 S    
O19   Cr6   1.946329 S    
O20   C48   1.279245 A    
C11   C17   1.422850 A    
C35   C36   1.385511 A    
Cr3   O13   1.961187 S    
C9    C43   1.496418 S    
C35   Cl2   1.775605 S    
O15   Cr4   1.912397 S    
O16   Cr5   2.053470 S    
C24   Cl3   1.774773 S    
O12   C6    1.276672 A    
H1    C12   1.084424 S    
C4    C41   1.427186 S    
O1    Cr1   2.034662 S    
C44   O18   1.247963 A    
C10   C14   1.423768 A    
C41   C42   1.202859 T    
O10   Cr2   1.944388 S    
Cr1   O13   2.001969 S    
O1    C3    1.264174 A    
O19   C45   1.270307 A    
N1    O27   1.299367 A    
O25   Cr6   1.928910 S    
C22   C28   1.404722 A    
C26   H7    1.082059 S    
C34   C35   1.409084 A    
O5    Cr3   2.061756 S    
C13   N3    1.436809 S    
O12   Cr3   1.942674 S    
C36   C37   1.384674 A    
C37   H10   1.048236 S    
C22   C23   1.386643 A    
O17   Cr5   1.944431 S    
C12   C13   1.379179 A    
N1    O28   1.299217 A    
C26   C27   1.385097 A    
C19   C23   1.399707 A    
O7    Cr1   2.053170 S    
N2    O29   1.300090 A    
O6    Cr3   1.944638 S    
C21   C27   1.411320 A    
C15   H3    1.079990 S    
N4    O34   1.301638 A    
C36   N2    1.434405 S    
C19   C20   1.426122 A    
N3    O32   1.292553 A    
Cr2   O13   1.976080 S    
C9    C13   1.428408 A    
C32   C38   1.413532 A    
O24   Cr6   2.066257 S    
C1    O3    1.272216 A    
C30   C34   1.441634 A    
C12   C18   1.389245 A    
C25   C26   1.383511 A    
C29   C33   1.396268 A    
O9    Cr2   2.037059 S    
O2    Cr1   1.934604 S    
C19   C45   1.470261 S    
C14   C15   1.389196 A    
Cr5   O26   1.961742 S    
C46   O22   1.285116 A    
H5    C22   1.083299 S    
O8    C4    1.321078 A    
C29   C30   1.447139 A    
C2    O5    1.247750 A    
C23   N5    1.438728 S    
C40   C46   1.435392 S    
C25   H6    1.069469 S    
C16   H4    1.082663 S    
N3    O31   1.298948 A    
C29   C47   1.461962 S    
C15   C16   1.383606 A    
O2    C1    1.280605 A    
C34   Cl1   1.719597 S    
C43   O16   1.314076 A    
C8    C44   1.390834 S    
N5    O36   1.298992 A    
O7    C6    1.278157 A    
O23   Cr5   1.938781 S    
C2    C7    1.392617 S    
C31   C37   1.393069 A    
C5    C38   1.465899 S    
C16   C17   1.391884 A    
C39   C40   1.208211 T    
N4    O33   1.301433 A    
O22   Cr5   2.060681 S    
O18   Cr6   2.051272 S    
C21   C28   1.412030 A    
O21   C46   1.324093 A    
O3    Cr2   2.061237 S    
C27   H8    1.081078 S    
C4    O9    1.292194 A    
O23   C47   1.327847 A    
Cr4   O26   2.002538 S    
C10   C11   1.423699 A    
C3    C18   1.469947 S    
C20   C24   1.428267 A    
O10   C5    1.281217 A    
Cr6   O26   1.975399 S    
