data_mof_unit_30755.cif
_audit_creation_date              2012-12-10T18:45:10-0500
_audit_creation_method            fapswitch 2.2
_symmetry_space_group_name_H-M    P1
_symmetry_Int_Tables_number       1
_space_group_crystal_system       triclinic
_cell_length_a                    10.707608
_cell_length_b                    9.904572
_cell_length_c                    10.660684
_cell_angle_alpha                 89.776304
_cell_angle_beta                  91.075077
_cell_angle_gamma                 89.466221
_cell_volume                      1130.3536199

loop_
_atom_site_label
_atom_site_type_symbol
_atom_type_description
_atom_site_fract_x
_atom_site_fract_y
_atom_site_fract_z
_atom_type_partial_charge
C1    C     C_R   0.260219 0.500581 0.500128 0.861173
C2    C     C_R   0.483733 0.500091 0.738483 0.905476
C3    C     C_R   0.565513 0.746250 0.098052 0.516907
C4    C     C_R   0.401850 0.743353 0.889817 0.521169
C5    C     C_R   0.527285 0.869109 0.041083 0.014457
C6    C     C_R   0.433925 0.867713 0.945130 0.015670
C7    C     C_R   0.457476 0.622904 0.937050 -0.148470
C8    C     C_R   0.511947 0.623979 0.056091 -0.152111
C9    C     C_R   0.512438 0.501364 0.124559 -0.045519
C10   C     C_R   0.461589 0.500307 0.871086 -0.046535
C11   C     C_R   0.489804 0.379232 0.063125 -0.230448
C12   C     C_R   0.740003 0.499754 0.499866 0.875663
C13   C     C_R   0.472056 0.378101 0.935711 -0.237878
C14   C     C_R   0.066272 0.384262 0.535582 -0.205910
C15   C     C_R   0.938594 0.383786 0.534388 -0.213571
C16   C     C_R   0.872773 0.500529 0.499862 -0.009658
C17   C     C_R   0.127915 0.501765 0.501213 0.001258
C18   C     C_3   0.772002 0.701439 0.131962 -0.320272
C19   C     C_3   0.199696 0.693557 0.841208 -0.325664
C20   C     C_3   0.568533 0.040873 0.197616 -0.720164
C21   C     C_3   0.377578 0.037958 0.786937 -0.701036
C22   C     C_3   0.721421 0.141496 0.728238 -0.808393
C23   C     C_R   0.934496 0.619044 0.467116 -0.212114
C24   C     C_3   0.182036 0.079507 0.363697 -0.881617
C25   C     C_R   0.062636 0.619616 0.467596 -0.209617
C26   C     C_R   0.599788 0.069221 0.548308 0.228529
C27   C     C_R   0.399436 0.072792 0.451283 0.215125
C28   C     C_R   0.599135 0.926020 0.547411 -0.151639
C29   C     C_R   0.400411 0.928369 0.452730 -0.113661
C30   C     C_R   0.508689 0.500481 0.259567 0.893842
H1    H     H_    0.486896 0.284471 0.112656 0.167408
H2    H     H_    0.766518 0.592972 0.106022 0.157250
H3    H     H_    0.849899 0.711893 0.201133 0.184932
H4    H     H_    0.167084 0.758564 0.919291 0.164292
H5    H     H_    0.207241 0.586471 0.872406 0.156535
H6    H     H_    0.127708 0.698685 0.765075 0.196318
H7    H     H_    0.585753 0.065338 0.005031 0.222931
H8    H     H_    0.626197 0.131726 0.214903 0.228934
H9    H     H_    0.595657 0.964898 0.269686 0.285850
H10   H     H_    0.468378 0.067506 0.206672 0.207285
H11   H     H_    0.367855 0.062462 0.980117 0.221328
H12   H     H_    0.468248 0.282120 0.888252 0.162386
H13   H     H_    0.322096 0.132542 0.774729 0.218064
H14   H     H_    0.342362 0.964927 0.716826 0.289745
H15   H     H_    0.476612 0.059359 0.769361 0.223918
H16   H     H_    0.787924 0.094186 0.554092 0.197307
H17   H     H_    0.721756 0.038514 0.770147 0.219496
H18   H     H_    0.644837 0.202499 0.767875 0.263763
H19   H     H_    0.810749 0.191047 0.754221 0.231400
H20   H     H_    0.325871 0.214344 0.325624 0.256845
H21   H     H_    0.194157 0.008074 0.284671 0.234332
H22   H     H_    0.110707 0.156253 0.335082 0.258106
H23   H     H_    0.116344 0.293254 0.564001 0.179145
H24   H     H_    0.147618 0.025736 0.447756 0.249187
H25   H     H_    0.892242 0.293006 0.561900 0.171692
H26   H     H_    0.884160 0.710420 0.440334 0.165137
H27   H     H_    0.110165 0.711106 0.440657 0.151885
H28   H     H_    0.678862 0.870084 0.584717 0.148586
H29   H     H_    0.323455 0.871973 0.413310 0.156570
H30   H     H_    0.794980 0.763850 0.048503 0.162663
N1    N     N_R   0.500000 0.857200 0.500000 -0.094442
N2    N     N_R   0.500000 0.142810 0.500000 -0.124235
N3    N     N_2   0.590153 0.990845 0.072871 -0.286349
N4    N     N_2   0.364850 0.987465 0.913341 -0.295238
N5    N     N_2   0.708596 0.134890 0.593048 -0.261236
N6    N     N_2   0.298761 0.146136 0.392723 -0.268177
O1    O     O_R   0.316770 0.614620 0.499990 -0.614752
O2    O     O_3   0.313552 0.739696 0.793335 -0.580027
O3    O     O_R   0.683230 0.614620 0.500010 -0.620064
O4    O     O_R   0.316800 0.385290 0.500000 -0.621417
O5    O     O_R   0.683200 0.385290 0.500000 -0.593657
O6    O     O_R   0.500010 0.614690 0.316770 -0.573971
O7    O     O_R   0.499990 0.614690 0.683230 -0.578078
O8    O     O_R   0.500040 0.385360 0.316770 -0.659664
O9    O     O_R   0.499960 0.385360 0.683230 -0.633309
O10   O     O_3   0.660761 0.746264 0.187756 -0.577488
Zn1   Zn    Zn3+2 0.500000 0.653120 0.500000 0.990850
Zn2   Zn    Zn3+2 0.500000 0.346880 0.500000 0.942972

loop_
_geom_bond_atom_site_label_1
_geom_bond_atom_site_label_2
_ccdc_geom_bond_type
C24   H22   S    
C7    C10   A    
C22   H18   S    
C12   O3    A    
O4    Zn2   S    
O3    Zn1   S    
O1    Zn1   S    
C7    C8    A    
C19   H6    S    
C5    C6    A    
C20   H10   S    
C27   C29   A    
C24   H24   S    
C15   C16   A    
C5    N3    S    
C6    N4    S    
C21   N4    S    
C21   H13   S    
C29   H29   S    
N1    Zn1   S    
C8    C9    A    
C24   N6    S    
C28   N1    A    
C24   H21   S    
C22   H17   S    
C11   H1    S    
C14   C17   A    
C25   H27   S    
C4    C7    A    
C13   H12   S    
H7    N3    S    
C21   H15   S    
C29   N1    A    
C12   C16   S    
C23   H26   S    
H16   N5    S    
C4    C6    A    
C3    C8    A    
C4    O2    S    
C20   H9    S    
C10   C13   A    
C15   H25   S    
C22   N5    S    
O6    Zn1   S    
C27   N2    A    
C21   H14   S    
C20   H8    S    
C19   O2    S    
C3    O10   S    
C9    C11   A    
C2    O7    A    
C9    C30   S    
C22   H19   S    
C18   H30   S    
C12   O5    A    
C16   C23   A    
C18   H2    S    
C18   H3    S    
C2    C10   S    
C18   O10   S    
C26   N5    S    
C26   C28   A    
N2    Zn2   S    
C3    C5    A    
C19   H4    S    
C30   O6    A    
H20   N6    S    
C28   H28   S    
C1    C17   S    
C1    O4    A    
C17   C25   A    
C20   N3    S    
C26   N2    A    
C27   N6    S    
C19   H5    S    
C11   C13   A    
C30   O8    A    
C1    O1    A    
C23   C25   A    
O9    Zn2   S    
C14   H23   S    
O8    Zn2   S    
O7    Zn1   S    
C14   C15   A    
H11   N4    S    
O5    Zn2   S    
C2    O9    A    
