data_mof_unit_29180.cif
_audit_creation_date              2012-12-10T18:32:57-0500
_audit_creation_method            fapswitch 2.2
_symmetry_space_group_name_H-M    P1
_symmetry_Int_Tables_number       1
_space_group_crystal_system       triclinic
_cell_length_a                    14.903759
_cell_length_b                    15.3208
_cell_length_c                    15.792355
_cell_angle_alpha                 91.804503
_cell_angle_beta                  103.294716
_cell_angle_gamma                 80.690441
_cell_volume                      3463.0631375

loop_
_atom_site_label
_atom_site_type_symbol
_atom_type_description
_atom_site_fract_x
_atom_site_fract_y
_atom_site_fract_z
_atom_type_partial_charge
C1    C     C_R   0.441314 0.662474 0.483390 0.891270
C2    C     C_R   0.593165 0.242663 0.500645 -0.079788
C3    C     C_R   0.283121 0.867560 0.377814 0.499746
C4    C     C_R   0.499880 0.501020 0.661431 0.894658
C5    C     C_R   0.313411 0.780766 0.409524 -0.273194
C6    C     C_R   0.470282 0.811398 0.458393 -0.210849
C7    C     C_R   0.442365 0.897449 0.426080 -0.020871
C8    C     C_R   0.345659 0.930279 0.398221 -0.135271
C9    C     C_R   0.509479 0.953013 0.428704 0.084194
C10   C     C_R   0.481823 0.044520 0.428212 0.005282
C11   C     C_R   0.385468 0.078409 0.406720 -0.273714
C12   C     C_3   0.417920 0.452623 0.028333 0.332608
C13   C     C_R   0.317600 0.023289 0.394880 0.507075
C14   C     C_R   0.602405 0.919094 0.426685 -0.245809
C15   C     C_R   0.669730 0.974562 0.433022 0.008232
C16   C     C_R   0.558660 0.336980 0.510140 0.871800
C17   C     C_R   0.647336 0.064311 0.457340 0.063592
C18   C     C_R   0.551671 0.098835 0.453485 0.103553
C19   C     C_R   0.715330 0.121017 0.486748 -0.010270
C20   C     C_R   0.686817 0.210344 0.504271 -0.210897
C21   C     C_R   0.527947 0.185535 0.480047 -0.220458
C22   C     C_R   0.828353 0.658261 0.614653 0.244828
C23   C     C_3   0.501218 0.496128 0.084551 -0.094485
C24   C     C_R   0.760017 0.606218 0.617869 0.422689
C25   C     C_R   0.787584 0.527784 0.492393 -0.058953
C26   C     C_R   0.870607 0.564150 0.496900 -0.039519
C27   C     C_R   0.889386 0.631228 0.558997 -0.066005
C28   C     C_R   0.499932 0.499154 0.338903 0.889905
C29   C     C_R   0.937893 0.532099 0.446365 -0.062078
C30   C     C_R   0.030391 0.554870 0.471173 0.000745
C31   C     C_R   0.043876 0.627299 0.530222 -0.020920
C32   C     C_R   0.972865 0.664557 0.570301 -0.153552
C33   C     C_R   0.917838 0.475164 0.374036 0.311637
C34   C     C_3   0.597971 0.451576 0.067756 0.268723
C35   C     C_R   0.991113 0.414251 0.353308 -0.122847
C36   C     C_R   0.084338 0.421866 0.393085 0.029294
C37   C     C_R   0.104056 0.499233 0.440662 -0.005592
C38   C     C_R   0.158857 0.355965 0.382246 -0.249884
C39   C     C_R   0.250583 0.368783 0.414882 0.089153
C40   C     C_3   0.432984 0.439512 0.935588 -0.540490
C41   C     C_R   0.197930 0.513458 0.457784 -0.041701
C42   C     C_3   0.462143 0.604672 0.950220 0.353386
C43   C     C_3   0.480907 0.596458 0.054456 -0.438707
C44   C     C_1   0.500302 0.496583 0.250608 -0.030100
C45   C     C_3   0.598598 0.469479 0.970699 -0.276458
C46   C     C_3   0.496115 0.506060 0.917078 0.007385
C47   C     C_R   0.754166 0.938966 0.399873 0.117496
C48   C     C_R   0.777049 0.984751 0.333905 -0.177335
C49   C     C_R   0.848345 0.946606 0.293862 -0.083718
C50   C     C_R   0.895664 0.861441 0.317373 -0.052857
C51   C     C_R   0.872760 0.814775 0.381744 -0.207051
C52   C     C_R   0.802519 0.853094 0.422816 -0.097533
C53   C     C_R   0.816720 0.089854 0.509515 0.114035
C54   C     C_R   0.873771 0.120879 0.462076 -0.199938
C55   C     C_R   0.970695 0.101031 0.489084 -0.063876
C56   C     C_1   0.501152 0.494812 0.175803 0.118123
C57   C     C_R   0.011357 0.051159 0.564769 -0.051242
C58   C     C_R   0.954840 0.020696 0.612931 -0.164100
C59   C     C_R   0.857553 0.039766 0.585373 -0.091347
C60   C     C_R   0.970832 0.344275 0.287771 0.182614
C61   C     C_R   0.997950 0.345088 0.208292 -0.074420
C62   C     C_R   0.986826 0.274479 0.150586 -0.105904
C63   C     C_R   0.948941 0.202715 0.171970 -0.044955
C64   C     C_R   0.920555 0.202249 0.250357 -0.026743
C65   C     C_R   0.931382 0.272951 0.308058 -0.073665
C66   C     C_R   0.128613 0.669617 0.556269 0.053969
C67   C     C_1   0.496033 0.506434 0.825094 0.054542
C68   C     C_R   0.207054 0.629441 0.617904 -0.188866
C69   C     C_R   0.283893 0.673190 0.646075 -0.057410
C70   C     C_R   0.280606 0.759346 0.618137 -0.100820
C71   C     C_R   0.201120 0.801308 0.560209 -0.140620
C72   C     C_R   0.125928 0.756428 0.528311 -0.139455
C73   C     C_R   0.355974 0.642056 0.915597 0.118749
C74   C     C_R   0.295488 0.605767 0.845853 -0.176081
C75   C     C_R   0.199899 0.639144 0.823177 -0.100578
C76   C     C_R   0.163420 0.713540 0.864399 -0.074067
C77   C     C_R   0.222270 0.754962 0.928566 -0.139601
C78   C     C_1   0.498368 0.504409 0.750209 -0.141331
C79   C     C_R   0.317018 0.720291 0.953438 -0.085054
C80   C     C_R   0.540785 0.659572 0.111654 0.181448
C81   C     C_R   0.635399 0.661351 0.112241 0.073760
C82   C     C_R   0.683892 0.723475 0.161745 -0.052983
C83   C     C_R   0.640242 0.783306 0.213671 -0.127709
C84   C     C_R   0.547967 0.781130 0.216514 -0.089952
C85   C     C_R   0.498703 0.720157 0.166240 -0.151026
C86   C     C_R   0.663163 0.399538 0.930626 0.172830
C87   C     C_R   0.631371 0.335042 0.870074 -0.088051
C88   C     C_R   0.694564 0.274122 0.836412 -0.136961
C89   C     C_R   0.405976 0.754069 0.454307 -0.143887
C90   C     C_R   0.790193 0.276130 0.862216 -0.106365
C91   C     C_R   0.823035 0.339496 0.921434 -0.119587
C92   C     C_R   0.760304 0.400842 0.955016 -0.078976
H1    H     H_    0.352926 0.501568 0.022187 0.104714
H2    H     H_    0.620172 0.850176 0.410727 0.137657
H3    H     H_    0.988418 0.715500 0.617746 0.204657
H4    H     H_    0.216800 0.577632 0.469919 0.162529
H5    H     H_    0.307497 0.318526 0.406023 0.143547
H6    H     H_    0.768517 0.476341 0.447329 0.216237
H7    H     H_    0.147024 0.294701 0.348850 0.200566
H8    H     H_    0.412072 0.617368 0.070825 0.131780
H9    H     H_    0.635148 0.525852 0.974012 0.169356
H10   H     H_    0.369505 0.222431 0.026650 0.391701
H11   H     H_    0.157248 0.188205 0.480616 0.362813
H12   H     H_    0.467191 0.371137 0.929846 0.270985
H13   H     H_    0.738273 0.049205 0.312081 0.153343
H14   H     H_    0.865405 0.982251 0.243122 0.150141
H15   H     H_    0.948932 0.830865 0.284636 0.173402
H16   H     H_    0.907985 0.748049 0.398334 0.150874
H17   H     H_    0.783331 0.814268 0.469872 0.186485
H18   H     H_    0.111519 0.801270 0.193703 0.378949
H19   H     H_    0.842248 0.160741 0.404507 0.135573
H20   H     H_    0.013751 0.125829 0.451979 0.182085
H21   H     H_    0.086503 0.037167 0.587035 0.171731
H22   H     H_    0.986657 0.983964 0.672558 0.136599
H23   H     H_    0.652385 0.484884 0.109987 0.151063
H24   H     H_    0.814152 0.018266 0.624434 0.172367
H25   H     H_    0.029103 0.399579 0.191972 0.154642
H26   H     H_    0.008395 0.274983 0.089717 0.140598
H27   H     H_    0.940837 0.147840 0.127502 0.135289
H28   H     H_    0.890865 0.146805 0.266498 0.120671
H29   H     H_    0.911136 0.271991 0.369421 0.107464
H30   H     H_    0.914454 0.857577 0.664539 0.361612
H31   H     H_    0.714463 0.469846 0.782394 0.374828
H32   H     H_    0.494705 0.760495 0.789769 0.405243
H33   H     H_    0.209698 0.563300 0.641611 0.138589
H34   H     H_    0.457948 0.209592 0.486842 0.168339
H35   H     H_    0.345724 0.640646 0.690182 0.172106
H36   H     H_    0.339665 0.793525 0.641203 0.159116
H37   H     H_    0.198235 0.868325 0.539416 0.197547
H38   H     H_    0.064890 0.789962 0.483309 0.174406
H39   H     H_    0.785790 0.636540 0.320170 0.339901
H40   H     H_    0.320101 0.553296 0.806190 0.123823
H41   H     H_    0.153901 0.608084 0.772329 0.150889
H42   H     H_    0.089844 0.739941 0.845725 0.186308
H43   H     H_    0.194412 0.813765 0.959751 0.161130
H44   H     H_    0.359776 0.754373 0.004165 0.170798
H45   H     H_    0.738384 0.254012 0.523411 0.169999
H46   H     H_    0.672839 0.617370 0.073648 0.126944
H47   H     H_    0.755914 0.724801 0.160233 0.142175
H48   H     H_    0.677976 0.831199 0.251788 0.148117
H49   H     H_    0.514069 0.827258 0.257139 0.147210
H50   H     H_    0.426862 0.721134 0.169847 0.134194
H51   H     H_    0.558432 0.331323 0.846470 0.132921
H52   H     H_    0.669158 0.225399 0.789761 0.149439
H53   H     H_    0.838809 0.228829 0.835964 0.145578
H54   H     H_    0.897210 0.341298 0.941268 0.149980
H55   H     H_    0.787732 0.449173 0.001184 0.170959
H56   H     H_    0.265837 0.732959 0.395599 0.208072
H57   H     H_    0.758521 0.250741 0.082117 0.365426
H58   H     H_    0.542665 0.789756 0.490164 0.188639
H59   H     H_    0.364834 0.442537 0.889049 0.180002
H60   H     H_    0.360875 0.148558 0.399529 0.185412
N1    N     N_R   0.731690 0.552720 0.548990 -0.178602
N2    N     N_R   0.268300 0.447240 0.450950 -0.114915
O1    O     O_R   0.383120 0.605620 0.475300 -0.626937
O2    O     O_2   0.281798 0.379201 0.070875 -0.312882
O3    O     O_3   0.394705 0.269436 0.002128 -0.507614
O4    O     O_2   0.142312 0.101437 0.322621 -0.259910
O5    O     O_2   0.166177 0.013208 0.455847 -0.346483
O6    O     O_3   0.219905 0.165902 0.470137 -0.611274
O7    O     O_2   0.096107 0.911756 0.327820 -0.277516
O8    O     O_2   0.188895 0.953068 0.229631 -0.264566
O9    O     O_3   0.170796 0.788503 0.238295 -0.590887
O10   O     O_2   0.747962 0.784928 0.710056 -0.198064
O11   O     O_2   0.915682 0.732433 0.760421 -0.306686
O12   O     O_R   0.531890 0.639510 0.506740 -0.611015
O13   O     O_3   0.859413 0.837177 0.626343 -0.618505
O14   O     O_2   0.820219 0.605621 0.793590 -0.215881
O15   O     O_2   0.652076 0.638305 0.733648 -0.232611
O16   O     O_3   0.739130 0.475270 0.730088 -0.560799
O17   O     O_2   0.508622 0.772812 0.961656 -0.300450
O18   O     O_2   0.621306 0.660023 0.913855 -0.269351
O19   O     O_3   0.465347 0.712109 0.806480 -0.571015
O20   O     O_2   0.828604 0.502403 0.206190 -0.324991
O21   O     O_2   0.756191 0.421289 0.295677 -0.253568
O22   O     O_3   0.744302 0.591342 0.315223 -0.562993
O23   O     O_R   0.425580 0.483050 0.607130 -0.632649
O24   O     O_2   0.620984 0.323911 0.192547 -0.202710
O25   O     O_2   0.584605 0.275364 0.041028 -0.268160
O26   O     O_3   0.750480 0.310178 0.108559 -0.534215
O27   O     O_R   0.574360 0.516930 0.638570 -0.515355
O28   O     O_R   0.468110 0.360490 0.493260 -0.625864
O29   O     O_R   0.616880 0.394380 0.524700 -0.599538
O30   O     O_R   0.425640 0.483070 0.361430 -0.602918
O31   O     O_R   0.574420 0.516950 0.392870 -0.576986
O32   O     O_2   0.437480 0.329503 0.159127 -0.235835
S1    S     S_3+6 0.383277 0.356263 0.068901 0.066706
S2    S     S_3+6 0.206899 0.074905 0.408974 0.004193
S3    S     S_3+6 0.181442 0.884124 0.292197 0.032402
S4    S     S_3+6 0.837300 0.754217 0.681471 0.033911
S5    S     S_3+6 0.741729 0.583947 0.721817 0.110967
S6    S     S_3+6 0.519408 0.688628 0.910849 0.021502
S7    S     S_3+6 0.809702 0.496236 0.295113 -0.013449
S8    S     S_3+6 0.635449 0.336875 0.103090 0.092395
Zn1   Zn    Zn3+2 0.400660 0.477370 0.479010 0.961919
Zn2   Zn    Zn3+2 0.599340 0.522630 0.520990 1.042833

loop_
_geom_bond_atom_site_label_1
_geom_bond_atom_site_label_2
_ccdc_geom_bond_type
C20   H45   S    
C31   C66   S    
C66   C68   A    
C87   C88   A    
C8    C13   A    
C74   H40   S    
C55   H20   S    
C18   C21   A    
C73   C74   A    
C35   C36   A    
C15   C47   S    
C4    O23   A    
C75   C76   A    
C81   C82   A    
C53   C59   A    
C16   O29   A    
C23   C56   S    
C53   C54   A    
O18   S6    D    
C40   C46   S    
C79   H44   S    
O24   S8    D    
C12   C23   S    
C26   C27   A    
C62   C63   A    
O14   S5    D    
C43   H8    S    
C21   H34   S    
C83   C84   A    
C38   H7    S    
C36   C37   A    
O12   Zn2   S    
C28   O30   A    
C90   H53   S    
C3    S3    S    
C30   C31   A    
C16   O28   A    
H11   O6    S    
C39   H5    S    
C41   H4    S    
C40   H12   S    
C29   C33   A    
H39   O22   S    
C23   C43   S    
C15   C17   A    
C42   C46   S    
C1    O1    A    
O27   Zn2   S    
C17   C19   A    
C66   C72   A    
C48   H13   S    
C88   H52   S    
C68   C69   A    
C54   H19   S    
C70   C71   A    
C65   H29   S    
O22   S7    S    
C22   S4    S    
C29   C30   A    
C2    C16   S    
C9    C10   A    
C34   S8    S    
C33   S7    S    
C13   S2    S    
C92   H55   S    
C61   C62   A    
C67   C78   T    
C2    C21   A    
O10   S4    D    
H10   O3    S    
C83   H48   S    
C25   C26   A    
C50   C51   A    
C6    C7    A    
C77   C79   A    
C81   H46   S    
O29   Zn2   S    
C74   C75   A    
C39   N2    A    
C2    C20   A    
C51   C52   A    
C7    C8    A    
O1    Zn1   S    
C76   C77   A    
O7    S3    D    
C3    C8    A    
C91   C92   A    
C76   H42   S    
C86   C87   A    
C59   H24   S    
C57   H21   S    
H32   O19   S    
C34   H23   S    
C45   C46   S    
C12   S1    S    
C25   N1    A    
O16   S5    S    
C28   C44   S    
H57   O26   S    
C30   C37   A    
C35   C60   S    
O5    S2    D    
C12   C40   S    
C9    C14   A    
C4    C78   S    
C80   C85   A    
C71   H37   S    
C63   H27   S    
C44   C56   T    
C47   C48   A    
C23   C34   S    
C82   H47   S    
C17   C18   A    
C73   C79   A    
O9    S3    S    
C34   C45   S    
C84   C85   A    
C69   H35   S    
C47   C52   A    
C45   H9    S    
C26   C29   A    
N2    Zn1   S    
C48   C49   A    
C88   C90   A    
C60   C65   A    
C51   H16   S    
C22   C27   A    
C55   C57   A    
C50   H15   S    
C4    O27   A    
C22   C24   A    
C12   H1    S    
C42   C43   S    
O6    S2    S    
O31   Zn2   S    
C90   C91   A    
C6    C89   A    
O26   S8    S    
C24   N1    A    
C43   C80   S    
C58   H22   S    
C41   N2    A    
O2    S1    D    
C70   H36   S    
C7    C9    A    
O13   S4    S    
C54   C55   A    
C42   C73   S    
C1    C89   S    
H30   O13   S    
O23   Zn1   S    
C27   C32   A    
C31   C32   A    
O3    S1    S    
C80   C81   A    
C3    C5    A    
O4    S2    D    
C85   H50   S    
H18   O9    S    
C75   H41   S    
C72   H38   S    
C49   H14   S    
C52   H17   S    
O30   Zn1   S    
O19   S6    S    
C64   H28   S    
C87   H51   S    
C64   C65   A    
C19   C20   A    
C36   C38   A    
C45   C86   S    
C58   C59   A    
C71   C72   A    
C61   H25   S    
C86   C92   A    
C28   O31   A    
C11   C13   A    
C19   C53   S    
C57   C58   A    
C38   C39   A    
N1    Zn2   S    
C84   H49   S    
C10   C18   A    
C33   C35   A    
C14   H2    S    
O17   S6    D    
C24   S5    S    
C91   H54   S    
C37   C41   A    
C69   C70   A    
C62   H26   S    
H31   O16   S    
O11   S4    D    
C10   C11   A    
C63   C64   A    
C6    H58   S    
C42   S6    S    
C11   H60   S    
C46   C67   S    
C32   H3    S    
C40   H59   S    
O20   S7    D    
C49   C50   A    
C25   H6    S    
C5    H56   S    
O15   S5    D    
C14   C15   A    
C60   C61   A    
O28   Zn1   S    
C77   H43   S    
C82   C83   A    
O32   S1    D    
C68   H33   S    
O21   S7    D    
O8    S3    D    
C5    C89   A    
C1    O12   A    
O25   S8    D    
