data_mof_unit_46461.cif
_audit_creation_date              2012-12-11T14:54:35-0500
_audit_creation_method            fapswitch 2.2
_symmetry_space_group_name_H-M    P1
_symmetry_Int_Tables_number       1
_space_group_crystal_system       triclinic
_cell_length_a                    18.918676
_cell_length_b                    10.910499
_cell_length_c                    18.857897
_cell_angle_alpha                 90.086824
_cell_angle_beta                  90.037935
_cell_angle_gamma                 89.540195
_cell_volume                      3892.36929004

loop_
_atom_site_label
_atom_site_type_symbol
_atom_type_description
_atom_site_fract_x
_atom_site_fract_y
_atom_site_fract_z
_atom_type_partial_charge
Br1   Br    Br    0.607549 0.845767 0.090051 -0.428474
Br2   Br    Br    0.378208 0.768575 0.920996 -0.486428
Br3   Br    Br    0.107553 0.345830 0.090056 -0.428587
Br4   Br    Br    0.878225 0.268638 0.920976 -0.486540
Br5   Br    Br    0.603287 0.816797 0.580205 -0.466444
Br6   Br    Br    0.346221 0.746223 0.403400 -0.431355
Br7   Br    Br    0.103349 0.316519 0.580261 -0.466528
Br8   Br    Br    0.846212 0.246219 0.403403 -0.431335
C1    C     C_R   0.731413 0.378582 0.646751 0.551253
C2    C     C_R   0.301067 0.869945 0.462362 0.143416
C3    C     C_R   0.943156 0.555207 0.479584 -0.132039
C4    C     C_R   0.188712 0.377506 0.536589 0.143513
C5    C     C_R   0.801068 0.369951 0.462364 0.143418
C6    C     C_R   0.692096 0.879152 0.462212 0.078872
C7    C     C_R   0.302911 0.854844 0.535953 0.089165
C8    C     C_R   0.192111 0.379034 0.462244 0.078854
C9    C     C_R   0.802914 0.354854 0.535955 0.089162
C10   C     C_R   0.757330 0.903160 0.429466 0.008751
C11   C     C_R   0.255316 0.924098 0.578399 -0.011641
C12   C     C_R   0.257325 0.403136 0.429481 0.008719
C13   C     C_R   0.270616 0.375393 0.355155 0.561338
C14   C     C_R   0.755319 0.424105 0.578400 -0.011629
C15   C     C_R   0.817012 0.929801 0.470909 -0.127475
C16   C     C_R   0.217875 0.022476 0.549060 -0.168719
C17   C     C_R   0.317003 0.429814 0.470925 -0.127484
C18   C     C_R   0.717882 0.522488 0.549062 -0.168726
C19   C     C_R   0.813004 0.933079 0.543331 -0.153116
C20   C     C_R   0.222976 0.046920 0.477747 -0.179837
C21   C     C_R   0.313029 0.432974 0.543357 -0.153135
C22   C     C_R   0.722983 0.546937 0.477750 -0.179841
C23   C     C_R   0.748608 0.914968 0.576809 0.007070
C24   C     C_R   0.231413 0.878580 0.646750 0.551258
C25   C     C_R   0.262939 0.970349 0.433707 -0.001027
C26   C     C_R   0.248638 0.414830 0.576842 0.007061
C27   C     C_R   0.762941 0.470357 0.433708 -0.001022
C28   C     C_R   0.465907 0.062388 0.950546 -0.105820
C29   C     C_R   0.447535 0.059019 0.021398 -0.102651
C30   C     C_R   0.965985 0.562302 0.950572 -0.105794
C31   C     C_R   0.947606 0.558942 0.021420 -0.102632
C32   C     C_R   0.458004 0.161366 0.064465 0.022813
C33   C     C_R   0.496366 0.167487 0.921685 0.010890
C34   C     C_R   0.957981 0.661360 0.064461 0.022761
C35   C     C_R   0.770617 0.875398 0.355149 0.561350
C36   C     C_R   0.996356 0.667465 0.921683 0.010895
C37   C     C_R   0.486330 0.268600 0.035370 -0.110773
C38   C     C_R   0.504969 0.272099 0.964007 -0.126642
C39   C     C_R   0.986195 0.768662 0.035332 -0.110869
C40   C     C_R   0.004842 0.772153 0.963969 -0.126689
C41   C     C_R   0.531505 0.155491 0.646504 0.548390
C42   C     C_R   0.436450 0.151310 0.360976 0.531445
C43   C     C_R   0.031507 0.655490 0.646503 0.548376
C44   C     C_R   0.936447 0.651309 0.360975 0.531442
C45   C     C_R   0.810744 0.964168 0.962785 -0.108383
C46   C     C_3   0.525633 0.359718 0.449341 -0.241771
C47   C     C_R   0.198435 0.000157 0.032310 -0.116475
C48   C     C_R   0.310762 0.464079 0.962767 -0.108357
C49   C     C_R   0.698423 0.500131 0.032312 -0.116519
C50   C     C_R   0.812913 0.970128 0.035439 0.061737
C51   C     C_R   0.198256 0.997023 0.959654 0.046043
C52   C     C_R   0.312943 0.470031 0.035420 0.061776
C53   C     C_R   0.698243 0.497010 0.959655 0.046011
C54   C     C_R   0.755857 0.921494 0.075572 0.029399
C55   C     C_R   0.247363 0.920198 0.923831 0.031046
C56   C     C_R   0.255874 0.421457 0.075561 0.029388
C57   C     C_3   0.547250 0.362638 0.526839 -0.243616
C58   C     C_R   0.747364 0.420218 0.923826 0.031069
C59   C     C_R   0.692464 0.890508 0.040777 0.123899
C60   C     C_R   0.301282 0.859623 0.963102 0.115118
C61   C     C_R   0.192471 0.390518 0.040774 0.123882
C62   C     C_R   0.801301 0.359681 0.963091 0.115162
C63   C     C_R   0.688749 0.900230 0.967405 -0.095332
C64   C     C_R   0.301187 0.867299 0.036657 -0.123750
C65   C     C_R   0.188749 0.400247 0.967403 -0.095322
C66   C     C_R   0.801217 0.367372 0.036645 -0.123710
C67   C     C_R   0.748461 0.933600 0.928087 -0.029547
C68   C     C_3   0.025595 0.859769 0.449350 -0.241747
C69   C     C_R   0.249947 0.937145 0.071383 -0.034077
C70   C     C_R   0.248465 0.433573 0.928079 -0.029527
C71   C     C_R   0.749956 0.437163 0.071378 -0.034065
C72   C     C_R   0.741178 0.966988 0.647755 0.561062
C73   C     C_R   0.269782 0.009199 0.360530 0.541210
C74   C     C_R   0.241184 0.466958 0.647765 0.561078
C75   C     C_R   0.769782 0.509200 0.360530 0.541215
C76   C     C_R   0.730158 0.380104 0.852208 0.572135
C77   C     C_R   0.270382 0.380176 0.147678 0.576612
C78   C     C_R   0.230157 0.880100 0.852209 0.572137
C79   C     C_3   0.047207 0.862699 0.526851 -0.243591
C80   C     C_R   0.770378 0.880185 0.147682 0.576599
C81   C     C_R   0.531453 0.157609 0.853117 0.539725
C82   C     C_R   0.438120 0.153459 0.138998 0.548497
C83   C     C_R   0.031457 0.657605 0.853121 0.539751
C84   C     C_R   0.938116 0.653458 0.138999 0.548527
C85   C     C_R   0.740893 0.972233 0.854948 0.549456
C86   C     C_R   0.258761 0.972047 0.145021 0.555895
C87   C     C_R   0.240894 0.472227 0.854945 0.549454
C88   C     C_R   0.758764 0.472054 0.145018 0.555909
C89   C     C_R   0.451597 0.158992 0.436811 0.009124
C90   C     C_R   0.688679 0.877678 0.536553 0.143522
C91   C     C_R   0.490602 0.164988 0.581017 0.016282
C92   C     C_R   0.951595 0.658988 0.436809 0.009111
C93   C     C_R   0.990606 0.664980 0.581015 0.016268
C94   C     C_R   0.470252 0.269377 0.469601 -0.006531
C95   C     C_R   0.489939 0.272222 0.540386 -0.002057
C96   C     C_R   0.970234 0.769370 0.469605 -0.006577
C97   C     C_R   0.989920 0.772216 0.540389 -0.002056
C98   C     C_R   0.461240 0.058718 0.551311 -0.112362
C99   C     C_R   0.443140 0.055215 0.479589 -0.132028
C100  C     C_R   0.961264 0.558702 0.551303 -0.112385
Cr1   Cr    Cr6+3 0.771950 0.169480 0.750100 1.111132
Cr2   Cr    Cr6+3 0.383410 0.010620 0.249390 1.111573
Cr3   Cr    Cr6+3 0.116590 0.510620 0.750610 1.107072
Cr4   Cr    Cr6+3 0.883410 0.510620 0.249390 1.111567
Cr5   Cr    Cr6+3 0.228050 0.169480 0.249900 1.096430
Cr6   Cr    Cr6+3 0.271950 0.669480 0.750100 1.111129
Cr7   Cr    Cr6+3 0.728050 0.669480 0.249900 1.096417
Cr8   Cr    Cr6+3 0.614930 0.323340 0.749170 1.070010
Cr9   Cr    Cr6+3 0.385070 0.323340 0.250830 1.075500
Cr10  Cr    Cr6+3 0.114930 0.823340 0.749170 1.070037
Cr11  Cr    Cr6+3 0.885070 0.823340 0.250830 1.075494
Cr12  Cr    Cr6+3 0.616590 0.010620 0.750610 1.107060
H1    H     H_    0.459084 0.974873 0.581518 0.200665
H2    H     H_    0.342831 0.822974 0.066646 0.187968
H3    H     H_    0.138349 0.386295 0.941552 0.196933
H4    H     H_    0.842874 0.323081 0.066630 0.187946
H5    H     H_    0.002389 0.947917 0.430707 0.173000
H6    H     H_    0.100960 0.824049 0.536328 0.163039
H7    H     H_    0.502450 0.447870 0.430696 0.173002
H8    H     H_    0.600986 0.323938 0.536315 0.163027
H9    H     H_    0.566884 0.319557 0.414104 0.176914
H10   H     H_    0.536500 0.452431 0.552762 0.179088
H11   H     H_    0.066866 0.819645 0.414113 0.176913
H12   H     H_    0.427572 0.969054 0.456485 0.188988
H13   H     H_    0.036419 0.952488 0.552782 0.179113
H14   H     H_    0.868157 0.947159 0.447544 0.181765
H15   H     H_    0.182475 0.077984 0.581004 0.192690
H16   H     H_    0.368125 0.447286 0.447548 0.181850
H17   H     H_    0.682484 0.577996 0.581008 0.192600
H18   H     H_    0.860030 0.956402 0.573071 0.172692
H19   H     H_    0.194054 0.124460 0.456453 0.173791
H20   H     H_    0.360062 0.456282 0.573096 0.172656
H21   H     H_    0.694067 0.624487 0.456457 0.173751
H22   H     H_    0.460295 0.980339 0.919115 0.197716
H23   H     H_    0.959124 0.474852 0.581505 0.200672
H24   H     H_    0.427526 0.974898 0.043292 0.166012
H25   H     H_    0.960462 0.480194 0.919170 0.197803
H26   H     H_    0.927681 0.474771 0.043334 0.166135
H27   H     H_    0.497243 0.347259 0.068317 0.177414
H28   H     H_    0.530092 0.353378 0.943332 0.173515
H29   H     H_    0.997028 0.847385 0.068256 0.177463
H30   H     H_    0.029882 0.853497 0.943268 0.173517
H31   H     H_    0.927587 0.469048 0.456479 0.188987
H32   H     H_    0.856370 0.995051 0.933345 0.203118
H33   H     H_    0.159580 0.058578 0.057973 0.205224
H34   H     H_    0.356392 0.494926 0.933319 0.203104
H35   H     H_    0.659551 0.558508 0.057981 0.205222
H36   H     H_    0.638356 0.886238 0.941548 0.196964
I1    I     I_    0.904119 0.065366 0.074826 -0.273535
I2    I     I_    0.119279 0.113932 0.912929 -0.294658
I3    I     I_    0.404189 0.565175 0.074784 -0.273411
I4    I     I_    0.619240 0.613884 0.912942 -0.294596
I5    I     I_    0.597519 0.855114 0.400810 -0.200452
I6    I     I_    0.383635 0.736700 0.579257 -0.270482
I7    I     I_    0.097532 0.354955 0.400865 -0.200519
I8    I     I_    0.883648 0.236736 0.579263 -0.270502
O1    O     O_R   0.787510 0.042610 0.670410 -0.498854
O2    O     O_R   0.454250 0.051070 0.169440 -0.462037
O3    O     O_R   0.045750 0.551070 0.830560 -0.506802
O4    O     O_R   0.954250 0.551070 0.169440 -0.462073
O5    O     O_R   0.681210 0.959150 0.825320 -0.497563
O6    O     O_R   0.318790 0.959150 0.174680 -0.508543
O7    O     O_R   0.181210 0.459150 0.825320 -0.497568
O8    O     O_R   0.818790 0.459150 0.174680 -0.508537
O9    O     O_3   0.667820 0.167810 0.749960 -0.278530
O10   O     O_3   0.332180 0.167810 0.250040 -0.342423
O11   O     O_3   0.167820 0.667810 0.749960 -0.278531
O12   O     O_R   0.212490 0.042610 0.329590 -0.490770
O13   O     O_3   0.832180 0.667810 0.250040 -0.342429
O14   O     O_R   0.765670 0.292090 0.675090 -0.469756
O15   O     O_R   0.234330 0.292090 0.324910 -0.495513
O16   O     O_R   0.265670 0.792090 0.675090 -0.469761
O17   O     O_R   0.734330 0.792090 0.324910 -0.495538
O18   O     O_R   0.670220 0.409020 0.668560 -0.518304
O19   O     O_R   0.329780 0.409020 0.331440 -0.501423
O20   O     O_R   0.170220 0.909020 0.668560 -0.518284
O21   O     O_R   0.829780 0.909020 0.331440 -0.501427
O22   O     O_R   0.556580 0.251590 0.674980 -0.504923
O23   O     O_R   0.287510 0.542610 0.670410 -0.498827
O24   O     O_R   0.443420 0.251590 0.325020 -0.491584
O25   O     O_R   0.056580 0.751590 0.674980 -0.504914
O26   O     O_R   0.943420 0.751590 0.325020 -0.491580
O27   O     O_R   0.545890 0.049670 0.670030 -0.473152
O28   O     O_R   0.454110 0.049670 0.329970 -0.459858
O29   O     O_R   0.045890 0.549670 0.670030 -0.473187
O30   O     O_R   0.954110 0.549670 0.329970 -0.459866
O31   O     O_R   0.681340 0.957860 0.676500 -0.454184
O32   O     O_R   0.318660 0.957860 0.323500 -0.459148
O33   O     O_R   0.181340 0.457860 0.676500 -0.454176
O34   O     O_R   0.712490 0.542610 0.329590 -0.490775
O35   O     O_R   0.818660 0.457860 0.323500 -0.459149
O36   O     O_R   0.787380 0.044010 0.830940 -0.487307
O37   O     O_R   0.212620 0.044010 0.169060 -0.494554
O38   O     O_R   0.287380 0.544010 0.830940 -0.487294
O39   O     O_R   0.712620 0.544010 0.169060 -0.494555
O40   O     O_R   0.765540 0.293390 0.823910 -0.455109
O41   O     O_R   0.234460 0.293390 0.176090 -0.458047
O42   O     O_R   0.265540 0.793390 0.823910 -0.455128
O43   O     O_R   0.734460 0.793390 0.176090 -0.458049
O44   O     O_R   0.670090 0.410410 0.829090 -0.489197
O45   O     O_R   0.556450 0.252890 0.823790 -0.499380
O46   O     O_R   0.329910 0.410410 0.170910 -0.489379
O47   O     O_R   0.170090 0.910410 0.829090 -0.489166
O48   O     O_R   0.829910 0.910410 0.170910 -0.489393
O49   O     O_R   0.443550 0.252890 0.176210 -0.484563
O50   O     O_R   0.056450 0.752890 0.823790 -0.499371
O51   O     O_R   0.943550 0.752890 0.176210 -0.484557
O52   O     O_R   0.545750 0.051070 0.830560 -0.506756

loop_
_geom_bond_atom_site_label_1
_geom_bond_atom_site_label_2
_ccdc_geom_bond_type
Cr9   O10   S    
C50   C54   A    
C66   H4    S    
Cr11  O51   S    
Br8   C5    S    
C29   H24   S    
C47   C51   A    
C49   C71   A    
C7    I6    S    
C91   C95   A    
C52   I3    S    
C40   H30   S    
C18   H17   S    
C42   O24   A    
C77   O46   A    
C78   O42   A    
Br4   C62   S    
C57   H10   S    
C77   O41   A    
C23   C72   S    
C72   O31   A    
C46   C57   S    
C58   C62   A    
C37   C38   A    
C99   H12   S    
C87   O38   A    
C7    C11   A    
C49   H35   S    
C85   O5    A    
Cr11  O48   S    
C64   C69   A    
C22   H21   S    
C54   C59   A    
Cr3   O11   S    
C83   O3    A    
Cr9   O46   S    
Br3   C61   S    
C5    C27   A    
C83   O50   A    
Cr7   O43   S    
C2    C7    A    
C87   O7    A    
C30   C31   A    
C47   C69   A    
C68   H11   S    
Cr1   O9    S    
C1    C14   S    
C59   C63   A    
C12   C17   A    
C35   O21   A    
Cr4   O4    S    
C69   C86   S    
C92   C96   A    
C48   C70   A    
C31   H26   S    
C84   O51   A    
C47   H33   S    
C23   C90   A    
C91   C98   A    
C17   H16   S    
C28   H22   S    
C14   C18   A    
C1    O18   A    
Br1   C59   S    
C53   C58   A    
C38   H28   S    
C41   O22   A    
C39   H29   S    
C65   H3    S    
Cr8   O18   S    
C62   C66   A    
C45   H32   S    
C33   C38   A    
Cr11  O26   S    
C61   C65   A    
Cr5   O37   S    
C42   O28   A    
Cr4   O35   S    
C34   C84   S    
C89   C94   A    
C43   O25   A    
C8    C12   A    
C76   O40   A    
C93   C100  A    
C88   O8    A    
C82   O2    A    
C17   C21   A    
C68   H5    S    
C28   C33   A    
C45   C67   A    
C20   H19   S    
C46   H9    S    
C11   C24   S    
Cr1   O14   S    
C96   C97   A    
Cr7   O17   S    
C24   O20   A    
C6    C90   A    
C31   C34   A    
Cr2   O10   S    
C8    I7    S    
C93   C97   A    
C32   C37   A    
Cr7   O34   S    
Cr12  O31   S    
C19   C23   A    
C10   C15   A    
C19   H18   S    
C57   H8    S    
C4    C8    A    
C85   O36   A    
C44   O30   A    
C78   O47   A    
C74   O33   A    
C48   H34   S    
C56   C77   S    
C43   O29   A    
Cr12  O27   S    
C27   C75   S    
C79   H13   S    
C81   O45   A    
C65   C70   A    
Cr8   O22   S    
C21   C26   A    
C35   O17   A    
Cr6   O23   S    
C48   C52   A    
Cr7   O39   S    
C3    C92   A    
Cr5   O41   S    
C68   C96   S    
Cr11  O21   S    
C30   H25   S    
C30   C36   A    
Cr8   O45   S    
C9    I8    S    
C41   C91   S    
Cr5   O10   S    
C76   O44   A    
C39   C40   A    
C79   C97   S    
C70   C87   S    
C60   C64   A    
Cr6   O38   S    
Cr10  O50   S    
C86   O37   A    
C44   O26   A    
C56   C61   A    
C12   C13   S    
C75   O34   A    
Cr9   O49   S    
C68   C79   S    
Cr4   O30   S    
Cr7   O13   S    
C36   C83   S    
Cr1   O1    S    
Cr3   O29   S    
Cr5   O12   S    
Cr8   O9    S    
C16   H15   S    
C3    H31   S    
Cr6   O11   S    
Cr5   O15   S    
C25   C73   S    
C20   C25   A    
C18   C22   A    
C15   C19   A    
C66   C71   A    
C81   O52   A    
C55   C78   S    
Cr2   O32   S    
Br7   C4    S    
C53   I4    S    
Cr3   O3    S    
C57   C95   S    
C80   O43   A    
C75   O35   A    
C29   C32   A    
Cr2   O6    S    
C72   O1    A    
Cr11  O13   S    
C67   C85   S    
C88   O39   A    
C73   O12   A    
C43   C93   S    
C13   O19   A    
C21   H20   S    
C55   C60   A    
C28   C29   A    
C42   C89   S    
C15   H14   S    
C64   H2    S    
C33   C81   S    
C37   H27   S    
C51   C55   A    
C6    C10   A    
C46   C94   S    
Cr1   O40   S    
C24   O16   A    
C16   C20   A    
Cr10  O25   S    
C50   I1    S    
Cr10  O11   S    
C45   C50   A    
Cr9   O19   S    
C49   C53   A    
C41   O27   A    
Cr10  O20   S    
Cr12  O52   S    
C22   C27   A    
C46   H7    S    
Br2   C60   S    
C9    C14   A    
C5    C9    A    
C74   O23   A    
C52   C56   A    
C100  H23   S    
C6    I5    S    
C11   C16   A    
C71   C88   S    
C10   C35   S    
C86   O6    A    
C73   O32   A    
C63   C67   A    
Cr2   O2    S    
Cr4   O8    S    
C54   C80   S    
C80   O48   A    
C63   H36   S    
C98   H1    S    
Cr2   O28   S    
C51   I2    S    
C44   C92   S    
C2    C25   A    
Cr3   O7    S    
C34   C39   A    
C82   O49   A    
C94   C95   A    
Cr12  O5    S    
C84   O4    A    
Cr6   O16   S    
Br6   C2    S    
C58   C76   S    
C89   C99   A    
Cr6   O42   S    
Cr12  O9    S    
C13   O15   A    
Br5   C90   S    
Cr8   O44   S    
C98   C99   A    
C3    C100  A    
Cr9   O24   S    
Cr10  O47   S    
Cr1   O36   S    
C26   C74   S    
C32   C82   S    
C4    C26   A    
C79   H6    S    
Cr3   O33   S    
C1    O14   A    
C36   C40   A    
Cr4   O13   S    
