data_mof_unit_28739.cif
_audit_creation_date              2012-12-10T17:46:15-0500
_audit_creation_method            fapswitch 2.2
_symmetry_space_group_name_H-M    P1
_symmetry_Int_Tables_number       1
_space_group_crystal_system       triclinic
_cell_length_a                    14.129102
_cell_length_b                    10.626144
_cell_length_c                    9.944866
_cell_angle_alpha                 89.871296
_cell_angle_beta                  90.159161
_cell_angle_gamma                 89.892477
_cell_volume                      1493.08884842

loop_
_atom_site_label
_atom_site_type_symbol
_atom_type_description
_atom_site_fract_x
_atom_site_fract_y
_atom_site_fract_z
_atom_type_partial_charge
C1    C     C_R   0.497806 0.260652 0.499994 0.861759
C2    C     C_R   0.565981 0.064188 0.438739 -0.205991
C3    C     C_R   0.565818 0.935534 0.438261 -0.208571
C4    C     C_R   0.329369 0.499943 0.500068 0.843306
C5    C     C_R   0.491598 0.871540 0.499091 -0.094147
C6    C     C_R   0.329213 0.548626 0.120898 0.168890
C7    C     C_R   0.245910 0.493365 0.066862 0.152359
C8    C     C_R   0.252248 0.425519 0.946002 -0.246505
C9    C     C_R   0.337244 0.422476 0.875133 -0.198605
C10   C     C_R   0.418424 0.477345 0.930092 0.138161
C11   C     C_R   0.416657 0.505367 0.069034 0.136347
C12   C     C_1   0.772199 0.500450 0.500873 -0.219603
C13   C     C_R   0.582192 0.502697 0.071822 -0.132863
C14   C     C_R   0.581743 0.510402 0.928716 -0.112925
C15   C     C_R   0.497833 0.739283 0.499800 0.854360
C16   C     C_R   0.670661 0.500087 0.500178 0.891472
C17   C     C_1   0.227932 0.500418 0.501013 -0.227672
C18   C     C_1   0.142661 0.500869 0.502838 -0.023008
C19   C     C_1   0.042763 0.501202 0.503719 -0.006760
C20   C     C_1   0.957456 0.501138 0.503234 -0.006643
C21   C     C_1   0.857524 0.500802 0.501945 -0.018860
C22   C     C_3   0.322361 0.683127 0.176222 -0.406937
C23   C     C_R   0.333507 0.131111 0.605843 -0.185544
C24   C     C_3   0.389969 0.775384 0.107270 -0.829715
C25   C     C_3   0.150276 0.507529 0.133350 -0.425458
C26   C     C_3   0.110844 0.380189 0.177557 -0.830756
C27   C     C_R   0.257285 0.065656 0.660623 -0.136562
C28   C     C_R   0.258219 0.934677 0.663588 -0.133641
C29   C     C_R   0.335095 0.868787 0.610980 -0.192520
C30   C     C_R   0.413399 0.933946 0.556378 0.093191
C31   C     C_R   0.412977 0.065851 0.555105 0.100833
C32   C     C_R   0.491551 0.128269 0.499110 -0.095061
H1    H     H_    0.340515 0.367457 0.784899 0.190586
H2    H     H_    0.624688 0.885518 0.393187 0.148593
H3    H     H_    0.464801 0.751432 0.129802 0.276715
H4    H     H_    0.378680 0.774212 0.996645 0.253659
H5    H     H_    0.376386 0.872172 0.144603 0.250378
H6    H     H_    0.250470 0.722047 0.158051 0.184311
H7    H     H_    0.333190 0.688299 0.285771 0.238109
H8    H     H_    0.098172 0.318166 0.089729 0.247336
H9    H     H_    0.160913 0.333091 0.247895 0.266163
H10   H     H_    0.042281 0.394332 0.229646 0.251295
H11   H     H_    0.154666 0.567626 0.224120 0.210260
H12   H     H_    0.331866 0.767152 0.611980 0.144129
H13   H     H_    0.100124 0.552960 0.061879 0.206094
H14   H     H_    0.648954 0.505432 0.125048 0.152439
H15   H     H_    0.625025 0.114120 0.394154 0.149283
H16   H     H_    0.190430 0.380993 0.902729 0.165545
H17   H     H_    0.648047 0.520821 0.875918 0.150740
H18   H     H_    0.328792 0.232440 0.601077 0.123265
H19   H     H_    0.196941 0.116693 0.699550 0.133042
H20   H     H_    0.198677 0.883924 0.705122 0.137957
N1    N     N_R   0.499190 0.498800 0.142780 -0.105168
N2    N     N_R   0.499160 0.498720 0.857170 -0.100808
O1    O     O_R   0.500000 0.316780 0.614690 -0.613456
O2    O     O_R   0.499990 0.316750 0.385360 -0.598129
O3    O     O_R   0.373720 0.500010 0.614690 -0.615598
O4    O     O_R   0.373710 0.499990 0.385360 -0.603919
O5    O     O_R   0.500010 0.683250 0.614640 -0.602236
O6    O     O_R   0.500000 0.683220 0.385310 -0.613293
O7    O     O_R   0.626290 0.500010 0.614640 -0.598250
O8    O     O_R   0.626280 0.499990 0.385310 -0.603874
Zn1   Zn    Zn3+2 0.500010 0.500020 0.653130 0.936366
Zn2   Zn    Zn3+2 0.499990 0.499980 0.346870 0.936133

loop_
_geom_bond_atom_site_label_1
_geom_bond_atom_site_label_2
_ccdc_geom_bond_type
C4    O3    A    
C19   C20   T    
O2    Zn2   S    
C6    C7    A    
C23   C27   A    
C2    H15   S    
C15   O6    A    
N2    Zn1   S    
O5    Zn1   S    
C31   C32   A    
C7    C25   S    
C17   C18   T    
O6    Zn2   S    
C25   H11   S    
C6    C22   S    
C8    H16   S    
C2    C3    A    
C1    O1    A    
C7    C8    A    
C24   H4    S    
C13   C14   A    
C9    H1    S    
C28   H20   S    
C26   H8    S    
C29   C30   A    
O1    Zn1   S    
C16   O8    A    
C4    C17   S    
C9    C10   A    
C2    C32   A    
C28   C29   A    
C14   N2    A    
C1    O2    A    
C27   H19   S    
O3    Zn1   S    
C13   N1    A    
C29   H12   S    
O4    Zn2   S    
C30   C31   A    
C10   N2    A    
N1    Zn2   S    
C22   C24   S    
C5    C15   S    
C24   H3    S    
C16   O7    A    
C22   H7    S    
C14   H17   S    
C25   H13   S    
C27   C28   A    
C20   C21   S    
C26   H10   S    
C24   H5    S    
C5    C30   A    
C10   C11   A    
C4    O4    A    
C6    C11   A    
O7    Zn1   S    
C13   H14   S    
C18   C19   S    
C23   H18   S    
O8    Zn2   S    
C3    H2    S    
C25   C26   S    
C15   O5    A    
C12   C21   T    
C1    C32   S    
C12   C16   S    
C26   H9    S    
C23   C31   A    
C8    C9    A    
C3    C5    A    
C22   H6    S    
C11   N1    A    
