data_mof_unit_21066.cif
_audit_creation_date              2012-12-10T18:57:08-0500
_audit_creation_method            fapswitch 2.2
_symmetry_space_group_name_H-M    P1
_symmetry_Int_Tables_number       1
_space_group_crystal_system       triclinic
_cell_length_a                    8.732526
_cell_length_b                    10.852031
_cell_length_c                    9.575063
_cell_angle_alpha                 90.314913
_cell_angle_beta                  97.754841
_cell_angle_gamma                 90.702871
_cell_volume                      898.997422195

loop_
_atom_site_label
_atom_site_type_symbol
_atom_type_description
_atom_site_fract_x
_atom_site_fract_y
_atom_site_fract_z
_atom_type_partial_charge
C1    C     C_R   0.501843 0.262802 0.499952 0.829807
C2    C     C_R   0.524969 0.934928 0.375344 -0.197321
C3    C     C_R   0.507844 0.869898 0.499828 -0.082352
C4    C     C_R   0.497202 0.938488 0.620600 0.051048
C5    C     C_3   0.467868 0.929446 0.769926 -0.480420
C6    C     C_3   0.468572 0.071532 0.770276 0.227184
C7    C     C_R   0.576325 0.590640 0.083342 0.211747
C8    C     C_R   0.408090 0.420113 0.060248 0.242667
C9    C     C_R   0.409892 0.420157 0.912479 -0.031815
C10   C     C_R   0.575903 0.590805 0.936260 0.233088
C11   C     C_3   0.743703 0.622313 0.950115 -0.468021
C12   C     C_R   0.204137 0.498618 0.464140 0.891791
C13   C     C_3   0.744669 0.620973 0.108671 -0.474830
C14   C     C_R   0.501676 0.737214 0.500307 0.798959
C15   C     C_R   0.796049 0.499844 0.536139 0.884688
C16   C     C_2   0.038602 0.494608 0.445056 -0.342211
C17   C     C_2   0.962001 0.501005 0.556335 -0.362391
C18   C     C_R   0.498073 0.062626 0.620700 0.089764
C19   C     C_R   0.508330 0.130215 0.499510 -0.111737
C20   C     C_R   0.525271 0.064188 0.375222 -0.159943
Cu1   Cu    Cu3+1 0.499990 0.499980 0.640670 0.974535
Cu2   Cu    Cu3+1 0.500010 0.500020 0.359330 0.982872
H1    H     H_    0.979838 0.485160 0.338620 0.176728
H2    H     H_    0.339152 0.354525 0.846182 0.155765
H3    H     H_    0.813859 0.547576 0.912030 0.232295
H4    H     H_    0.765134 0.715419 0.908448 0.194477
H5    H     H_    0.813296 0.544199 0.158794 0.221173
H6    H     H_    0.768613 0.712881 0.159288 0.198952
H7    H     H_    0.021409 0.508374 0.663480 0.177331
H8    H     H_    0.537018 0.111571 0.277920 0.206751
H9    H     H_    0.536379 0.886699 0.278010 0.173455
H10   H     H_    0.352487 0.888218 0.778872 0.175262
H11   H     H_    0.566162 0.887633 0.838572 0.224701
H12   H     H_    0.354808 0.112489 0.781581 0.115021
N1    N     N_R   0.500980 0.500930 0.148050 -0.206479
N2    N     N_R   0.500990 0.500890 0.852140 -0.198074
O1    O     O_R   0.500000 0.319640 0.618810 -0.560889
O2    O     O_R   0.500020 0.319680 0.381230 -0.563311
O3    O     O_R   0.274830 0.499980 0.591380 -0.592645
O4    O     O_R   0.274850 0.500020 0.353800 -0.563735
O5    O     O_R   0.499980 0.680320 0.618770 -0.584218
O6    O     O_R   0.500000 0.680360 0.381190 -0.592774
O7    O     O_R   0.725150 0.499980 0.646200 -0.578221
O8    O     O_R   0.725170 0.500020 0.408620 -0.580312
Cl1   Cl    Cl    0.629238 0.137547 0.881983 -0.595878
I1    I     I_    0.251295 0.290111 0.128769 -0.342484

loop_
_geom_bond_atom_site_label_1
_geom_bond_atom_site_label_2
_ccdc_geom_bond_type
C12   O4    A    
C7    C10   A    
C13   H6    S    
C6    Cl1   S    
C9    N2    A    
C17   H7    S    
C19   C20   A    
Cu1   O3    S    
C1    O1    A    
C14   O6    A    
C5    H10   S    
Cu2   O4    S    
C12   O3    A    
C2    C3    A    
C8    C9    A    
C4    C18   A    
C9    H2    S    
Cu1   N2    S    
C20   H8    S    
Cu1   Cu2   S    
Cu2   N1    S    
C11   C13   S    
Cu2   O6    S    
C3    C14   S    
C7    N1    A    
C1    O2    A    
C14   O5    A    
Cu1   O5    S    
C4    C5    S    
C15   O8    A    
C16   H1    S    
C2    H9    S    
C5    C6    S    
C6    C18   S    
C8    I1    S    
C1    C19   S    
C10   C11   S    
C11   H3    S    
C15   O7    A    
C3    C4    A    
Cu2   O2    S    
C12   C16   S    
C7    C13   S    
Cu1   O1    S    
C18   C19   A    
C15   C17   S    
C13   H5    S    
C10   N2    A    
C11   H4    S    
Cu1   O7    S    
C2    C20   A    
Cu2   O8    S    
C6    H12   S    
C16   C17   D    
C8    N1    A    
C5    H11   S    
