data_mof_unit_10321.cif
_audit_creation_date              2012-12-10T17:12:41-0500
_audit_creation_method            fapswitch 2.2
_symmetry_space_group_name_H-M    P1
_symmetry_Int_Tables_number       1
_space_group_crystal_system       triclinic
_cell_length_a                    23.447668
_cell_length_b                    10.694284
_cell_length_c                    9.999991
_cell_angle_alpha                 90.116839
_cell_angle_beta                  90.728248
_cell_angle_gamma                 89.962957
_cell_volume                      2507.34970598

loop_
_atom_site_label
_atom_site_type_symbol
_atom_type_description
_atom_site_fract_x
_atom_site_fract_y
_atom_site_fract_z
_atom_type_partial_charge
C1    C     C_R   0.501487 0.262332 0.499630 0.920884
C2    C     C_R   0.973763 0.269811 0.465546 -0.114976
C3    C     C_R   0.032601 0.274267 0.456176 -0.067540
C4    C     C_R   0.061010 0.389318 0.460025 -0.014309
C5    C     C_R   0.029890 0.502306 0.468531 -0.052034
C6    C     C_R   0.058734 0.618383 0.473093 -0.192464
C7    C     C_R   0.026758 0.731224 0.464977 0.400781
C8    C     C_R   0.967023 0.726924 0.478455 0.011875
C9    C     C_R   0.120259 0.393835 0.458397 0.655903
C10   C     C_R   0.118556 0.615203 0.489830 0.689347
C11   C     C_R   0.239394 0.521469 0.365628 0.367225
C12   C     C_R   0.389298 0.500636 0.499021 0.969801
C13   C     C_R   0.298595 0.519124 0.372411 -0.253381
C14   C     C_R   0.327057 0.503181 0.495092 -0.159666
C15   C     C_R   0.295953 0.489347 0.612502 -0.221631
C16   C     C_R   0.236509 0.489086 0.608017 0.444104
C17   C     C_R   0.208184 0.505884 0.483866 0.035137
C18   C     C_R   0.761064 0.432296 0.400087 -0.171486
C19   C     C_R   0.702022 0.436139 0.399448 0.038728
C20   C     C_R   0.673458 0.499501 0.503018 -0.245981
C21   C     C_R   0.705284 0.555603 0.609635 0.224750
C22   C     C_R   0.764530 0.531855 0.619189 0.323123
C23   C     C_R   0.495456 0.737125 0.499930 0.872362
C24   C     C_R   0.792220 0.479242 0.508226 0.101994
C25   C     C_2   0.492336 0.933279 0.390850 -0.310147
C26   C     C_2   0.478404 0.865501 0.498346 0.294493
C27   C     C_2   0.488248 0.066985 0.389875 -0.088561
C28   C     C_2   0.505800 0.129979 0.497606 -0.230925
C29   C     C_2   0.516189 0.595108 0.925665 -0.009373
C30   C     C_2   0.520473 0.591169 0.075776 -0.095652
C31   C     C_R   0.610800 0.501647 0.500854 0.969645
C32   C     C_R   0.878143 0.599559 0.486626 0.635780
C33   C     C_R   0.883259 0.376507 0.490470 0.563361
C34   C     C_R   0.942201 0.380630 0.475952 -0.010182
C35   C     C_R   0.969996 0.498014 0.473936 -0.014443
C36   C     C_R   0.938088 0.609916 0.480525 -0.103595
H1    H     H_    0.953157 0.179165 0.465537 0.217215
H2    H     H_    0.513613 0.891575 0.305680 0.166063
H3    H     H_    0.474170 0.113126 0.298511 0.188690
H4    H     H_    0.523076 0.083464 0.585596 0.192524
H5    H     H_    0.528305 0.681341 0.876746 0.214026
H6    H     H_    0.492980 0.417130 0.897554 0.170713
H7    H     H_    0.540324 0.670175 0.126078 0.173874
H8    H     H_    0.055918 0.187169 0.449623 0.248365
H9    H     H_    0.478336 0.430796 0.101202 0.172088
H10   H     H_    0.322598 0.529716 0.281392 0.216719
H11   H     H_    0.318045 0.477692 0.707375 0.215908
H12   H     H_    0.783087 0.391168 0.316093 0.191038
N1    N     N_R   0.852863 0.484870 0.497427 -0.317536
N2    N     N_R   0.147457 0.505033 0.477028 -0.341931
N3    N     N_2   0.500610 0.501330 0.852150 -0.192448
N4    N     N_2   0.500630 0.501360 0.147810 -0.192973
O1    O     O_R   0.499990 0.319060 0.613040 -0.605575
O2    O     O_2   0.856324 0.265284 0.498802 -0.545742
O3    O     O_2   0.150808 0.287754 0.443048 -0.478461
O4    O     O_2   0.147921 0.719116 0.523436 -0.401570
O5    O     O_R   0.500010 0.319100 0.386900 -0.625481
O6    O     O_R   0.416150 0.499940 0.613100 -0.595370
O7    O     O_R   0.416160 0.499980 0.386960 -0.622674
O8    O     O_R   0.499990 0.680900 0.613100 -0.538002
O9    O     O_R   0.500010 0.680940 0.386960 -0.654864
O10   O     O_R   0.583840 0.500020 0.613040 -0.553658
O11   O     O_R   0.583850 0.500060 0.386900 -0.592965
O12   O     O_2   0.844660 0.701914 0.479527 -0.545765
Zn1   Zn    Zn3+2 0.499990 0.499970 0.650990 1.065333
Zn2   Zn    Zn3+2 0.500010 0.500030 0.349010 0.982953
N5    N     N_3   0.671287 0.376049 0.292368 -0.402204
H13   H     H_    0.684123 0.415844 0.202178 0.232412
H14   H     H_    0.682769 0.281555 0.291191 0.204838
S1    S     S_3+6 0.672894 0.667855 0.717650 0.101163
O13   O     O_2   0.647982 0.601286 0.835453 -0.242745
O14   O     O_2   0.715402 0.762649 0.767507 -0.188093
O15   O     O_3   0.620614 0.745625 0.636635 -0.559676
H15   H     H_    0.639443 0.785215 0.559388 0.337836
S2    S     S_3+6 0.804474 0.558170 0.769707 0.111190
O16   O     O_2   0.828793 0.688111 0.769167 -0.186504
O17   O     O_2   0.767426 0.543271 0.890185 -0.228760
O18   O     O_3   0.858774 0.455895 0.782310 -0.531549
H16   H     H_    0.840371 0.372657 0.786096 0.368634
S3    S     S_3+6 0.431039 0.916104 0.625953 0.054139
O19   O     O_2   0.464994 0.954976 0.747561 -0.306938
O20   O     O_2   0.394544 0.023356 0.578808 -0.249682
O21   O     O_3   0.388482 0.796047 0.667458 -0.538158
H17   H     H_    0.365888 0.827098 0.743697 0.405177
S4    S     S_3+6 0.058884 0.877960 0.423981 0.116510
O22   O     O_2   0.106749 0.858893 0.327544 -0.134635
O23   O     O_2   0.016489 0.965088 0.359335 -0.309642
O24   O     O_3   0.084784 0.945130 0.564243 -0.444695
H18   H     H_    0.051531 0.952400 0.623917 0.355005
N6    N     N_3   0.937334 0.843156 0.496091 -0.380135
H19   H     H_    0.910139 0.859272 0.414346 0.274470
H20   H     H_    0.914868 0.841314 0.585699 0.258633
S5    S     S_3+6 0.205536 0.539559 0.207324 0.089724
O25   O     O_2   0.160350 0.638766 0.213956 -0.214218
O26   O     O_2   0.248183 0.576580 0.103700 -0.235419
O27   O     O_3   0.174660 0.403932 0.161780 -0.474100
H21   H     H_    0.206373 0.342841 0.158245 0.387789
S6    S     S_3+6 0.198828 0.469513 0.759033 0.103791
O28   O     O_2   0.151601 0.375950 0.740786 -0.264924
O29   O     O_2   0.238597 0.424510 0.867709 -0.231792
O30   O     O_3   0.170787 0.607862 0.803920 -0.473752
H22   H     H_    0.148749 0.589966 0.885548 0.422871

loop_
_geom_bond_atom_site_label_1
_geom_bond_atom_site_label_2
_ccdc_geom_bond_type
S5    O25   D    
O15   H15   S    
C35   C36   A    
C15   H11   S    
O5    Zn2   S    
C16   S6    S    
N4    Zn2   S    
C7    C8    A    
S4    O22   D    
O30   H22   S    
C18   C24   A    
C32   C36   A    
C18   C19   A    
O7    Zn2   S    
N3    Zn1   S    
C5    C6    A    
C28   H4    S    
C33   N1    A    
C15   C16   A    
C24   N1    S    
C34   C35   A    
C8    C36   A    
C23   C26   S    
C1    O1    A    
C12   O7    A    
O9    Zn2   S    
C19   C20   A    
C27   H3    S    
C16   C17   A    
C1    C28   S    
C19   N5    S    
S1    O13   D    
C9    O3    S    
O1    Zn1   S    
H6    N3    S    
C12   O6    A    
C11   S5    S    
O11   Zn2   S    
S5    O26   D    
C21   C22   A    
C31   O10   A    
C22   S2    S    
S3    O21   S    
S4    O23   D    
C23   O8    A    
C3    H8    S    
N5    H13   S    
C31   O11   A    
C32   O12   S    
S3    O20   D    
O18   H16   S    
S3    O19   D    
H9    N4    S    
C25   C26   D    
C26   S3    S    
N5    H14   S    
S2    O16   D    
C29   C30   S    
C1    O5    A    
C25   H2    S    
O6    Zn1   S    
N6    H20   S    
O21   H17   S    
O27   H21   S    
S1    O15   S    
C33   C34   A    
C20   C21   A    
S2    O17   D    
C12   C14   S    
O8    Zn1   S    
S5    O27   S    
S6    O29   D    
C22   C24   A    
C30   H7    S    
C8    N6    S    
C3    C4    A    
C10   N2    A    
C10   O4    S    
C29   N3    D    
S4    O24   S    
C33   O2    S    
C30   N4    D    
C11   C17   A    
O10   Zn1   S    
C29   H5    S    
C14   C15   A    
C9    N2    A    
C4    C5    A    
C18   H12   S    
C17   N2    S    
C6    C10   A    
C6    C7    A    
C25   C27   S    
S6    O30   S    
C21   S1    S    
C2    C3    A    
C11   C13   A    
C2    H1    S    
C2    C34   A    
N6    H19   S    
C7    S4    S    
C5    C35   A    
S2    O18   S    
C32   N1    A    
C23   O9    A    
O24   H18   S    
S6    O28   D    
C27   C28   D    
C13   H10   S    
S1    O14   D    
C4    C9    A    
C13   C14   A    
C20   C31   S    
