data_mof_unit_67203.cif
_audit_creation_date              2012-12-11T18:15:28-0500
_audit_creation_method            fapswitch 2.2
_symmetry_space_group_name_H-M    P1
_symmetry_Int_Tables_number       1
_space_group_crystal_system       triclinic
_cell_length_a                    20.188974
_cell_length_b                    20.428744
_cell_length_c                    8.571112
_cell_angle_alpha                 89.956504
_cell_angle_beta                  92.492696
_cell_angle_gamma                 90.202445
_cell_volume                      3531.66221611

loop_
_atom_site_label
_atom_site_type_symbol
_atom_type_description
_atom_site_fract_x
_atom_site_fract_y
_atom_site_fract_z
_atom_type_partial_charge
Ba1   Ba    Ba6+2 0.999980 0.452130 0.155200 1.730200
Ba2   Ba    Ba6+2 0.999980 0.547870 0.655200 1.701087
Ba3   Ba    Ba6+2 0.499980 0.952130 0.155200 1.731085
Ba4   Ba    Ba6+2 0.499980 0.047870 0.655200 1.701781
C1    C     C_3   0.952964 0.141174 0.356891 0.146086
C2    C     C_R   0.116336 0.663647 0.188026 -0.119649
C3    C     C_R   0.614530 0.836778 0.688631 -0.132580
C4    C     C_R   0.616349 0.163639 0.188037 -0.119933
C5    C     C_R   0.131047 0.289419 0.579218 -0.037548
C6    C     C_R   0.133813 0.709918 0.076504 -0.017445
C7    C     C_R   0.631177 0.789514 0.579087 -0.039506
C8    C     C_R   0.633843 0.209898 0.076509 -0.017386
C9    C     C_R   0.182525 0.246066 0.617592 -0.135360
C10   C     C_R   0.186449 0.752658 0.112507 -0.168609
C11   C     C_R   0.682563 0.746066 0.617581 -0.136788
C12   C     C_3   0.957166 0.860281 0.889567 0.129575
C13   C     C_R   0.686498 0.252621 0.112513 -0.168924
C14   C     C_R   0.219572 0.250721 0.760482 0.000360
C15   C     C_R   0.222171 0.748702 0.257750 -0.046484
C16   C     C_R   0.719548 0.750682 0.760566 -0.001672
C17   C     C_R   0.722180 0.248698 0.257827 -0.045368
C18   C     C_R   0.209123 0.304562 0.861223 -0.070447
C19   C     C_R   0.210419 0.695690 0.361006 -0.083530
C20   C     C_R   0.709115 0.804539 0.861286 -0.069957
C21   C     C_R   0.710353 0.195742 0.361196 -0.078596
C22   C     C_R   0.807413 0.705289 0.940007 -0.111975
C23   C     C_3   0.454709 0.640218 0.372761 0.134655
C24   C     C_R   0.807758 0.295706 0.440651 -0.118117
C25   C     C_R   0.307441 0.205317 0.939927 -0.112582
C26   C     C_R   0.307799 0.795670 0.440481 -0.125620
C27   C     C_R   0.799105 0.760762 0.037808 0.016634
C28   C     C_R   0.798363 0.241349 0.540941 0.027182
C29   C     C_R   0.299119 0.260778 0.037747 0.016138
C30   C     C_R   0.298483 0.741255 0.540634 0.028701
C31   C     C_R   0.854086 0.654585 0.987981 -0.016523
C32   C     C_R   0.854800 0.346203 0.486835 0.084636
C33   C     C_R   0.354102 0.154600 0.987930 -0.016446
C34   C     C_3   0.457189 0.360291 0.889644 0.129835
C35   C     C_R   0.354806 0.846191 0.486724 0.085790
C36   C     C_R   0.884845 0.659787 0.140704 0.116842
C37   C     C_R   0.886964 0.342633 0.635563 0.160256
C38   C     C_R   0.384844 0.159792 0.140665 0.116928
C39   C     C_R   0.386982 0.842614 0.635409 0.159527
C40   C     C_3   0.991346 0.189630 0.833128 0.280749
C41   C     C_3   0.020511 0.793923 0.432039 0.391969
C42   C     C_3   0.490752 0.689083 0.836645 0.235883
C43   C     C_3   0.520508 0.293901 0.432074 0.392527
C44   C     C_R   0.876746 0.714824 0.232534 0.059930
C45   C     C_R   0.154683 0.348595 0.823411 0.082473
C46   C     C_R   0.877234 0.288368 0.733652 -0.081168
C47   C     C_R   0.376743 0.214827 0.232502 0.060457
C48   C     C_R   0.377200 0.788383 0.733518 -0.092129
C49   C     C_R   0.836786 0.765690 0.179757 -0.127581
C50   C     C_R   0.835110 0.238025 0.684253 -0.178286
C51   C     C_R   0.336784 0.265696 0.179721 -0.127510
C52   C     C_R   0.335099 0.738021 0.684132 -0.145695
C53   C     C_R   0.767322 0.702194 0.801128 -0.006032
C54   C     C_R   0.769293 0.297657 0.299313 -0.007413
C55   C     C_R   0.267368 0.202244 0.801017 -0.004481
C56   C     C_R   0.155909 0.651612 0.323118 0.069110
C57   C     C_R   0.269247 0.797687 0.299293 -0.009337
C58   C     C_3   0.045131 0.136790 0.864692 0.584679
C59   C     C_3   0.046263 0.865402 0.421688 0.537111
C60   C     C_3   0.544008 0.636002 0.871039 0.588145
C61   C     C_3   0.546284 0.365369 0.421752 0.537181
C62   C     C_3   0.775294 0.467936 0.887271 0.385994
C63   C     C_3   0.788966 0.533583 0.352289 0.463236
C64   C     C_3   0.275288 0.967936 0.887071 0.386376
C65   C     C_3   0.289128 0.033597 0.352086 0.463686
C66   C     C_3   0.699549 0.455274 0.925328 0.525782
C67   C     C_R   0.654697 0.848590 0.823438 0.083130
C68   C     C_3   0.724388 0.569148 0.397393 0.517585
C69   C     C_3   0.199550 0.955200 0.925134 0.525875
C70   C     C_3   0.224734 0.069355 0.397434 0.517305
C71   C     C_3   0.190883 0.540519 0.993419 0.452605
C72   C     C_3   0.190736 0.459388 0.491759 0.379262
C73   C     C_3   0.690917 0.040490 0.993636 0.454170
C74   C     C_3   0.690736 0.959383 0.491663 0.380697
C75   C     C_3   0.255506 0.580469 0.013851 0.353740
C76   C     C_3   0.255152 0.418670 0.504265 0.344017
C77   C     C_3   0.755579 0.080347 0.014442 0.340284
C78   C     C_R   0.655891 0.151627 0.323186 0.064830
C79   C     C_3   0.755156 0.918669 0.504220 0.344980
C80   C     C_3   0.983321 0.208680 0.387803 0.363216
C81   C     C_3   0.987445 0.792546 0.915915 0.348500
C82   C     C_3   0.484106 0.708673 0.393816 0.393722
C83   C     C_3   0.487456 0.292548 0.915966 0.348364
C84   C     C_R   0.252323 0.310527 0.995817 0.414857
C85   C     C_R   0.252174 0.690797 0.498382 0.430720
C86   C     C_R   0.752316 0.810513 0.995870 0.415392
C87   C     C_R   0.751996 0.190925 0.498775 0.448177
C88   C     C_R   0.114472 0.336756 0.688659 -0.132812
H1    H     H_    0.953157 0.244996 0.319383 0.085470
H2    H     H_    0.156506 0.436420 0.402616 0.013791
H3    H     H_    0.058913 0.595549 0.078563 0.178726
H4    H     H_    0.517387 0.838002 0.640871 0.181326
H5    H     H_    0.559195 0.906189 0.576750 0.200037
H6    H     H_    0.519073 0.164807 0.144341 0.141395
H7    H     H_    0.558936 0.095543 0.078535 0.178765
H8    H     H_    0.946656 0.588430 0.159017 0.330429
H9    H     H_    0.909123 0.406723 0.796910 0.329521
H10   H     H_    0.446669 0.088449 0.158980 0.330378
H11   H     H_    0.409136 0.906745 0.796703 0.329660
H12   H     H_    0.239111 0.350696 0.191054 0.336815
H13   H     H_    0.658323 0.064616 0.903212 -0.013080
H14   H     H_    0.239507 0.649907 0.694561 0.332983
H15   H     H_    0.739182 0.850760 0.191087 0.336557
H16   H     H_    0.739495 0.150035 0.695078 0.331413
H17   H     H_    0.090832 0.188098 0.029933 0.329195
H18   H     H_    0.128095 0.840853 0.324533 0.283396
H19   H     H_    0.589588 0.687741 0.035589 0.332110
H20   H     H_    0.628108 0.340817 0.324564 0.283045
H21   H     H_    0.972937 0.071979 0.934795 0.149175
H22   H     H_    0.023136 0.100825 0.082390 0.186980
H23   H     H_    0.042709 0.950984 0.546045 0.187871
H24   H     H_    0.656537 0.936439 0.402423 0.012450
H25   H     H_    0.053123 0.883926 0.656271 0.231627
H26   H     H_    0.471683 0.571056 0.939045 0.152167
H27   H     H_    0.518765 0.602626 0.088545 0.187952
H28   H     H_    0.542720 0.450956 0.546089 0.186495
H29   H     H_    0.553170 0.383905 0.656328 0.232103
H30   H     H_    0.764732 0.435958 0.659284 0.214380
H31   H     H_    0.782102 0.377443 0.791944 0.152789
H32   H     H_    0.784183 0.583322 0.145246 0.145514
H33   H     H_    0.841048 0.522576 0.161369 0.187550
H34   H     H_    0.264705 0.936125 0.658983 0.214302
H35   H     H_    0.242872 0.633084 0.022832 -0.006797
H36   H     H_    0.282166 0.877538 0.791352 0.152367
H37   H     H_    0.284142 0.083259 0.144923 0.145390
H38   H     H_    0.341068 0.022541 0.161034 0.187354
H39   H     H_    0.241410 0.366130 0.509709 0.022300
H40   H     H_    0.743011 0.132957 0.023984 -0.002473
H41   H     H_    0.741421 0.866121 0.509397 0.021511
H42   H     H_    0.981244 0.220163 0.513733 -0.098890
H43   H     H_    0.992490 0.782527 0.043340 -0.043954
H44   H     H_    0.483508 0.722430 0.518720 -0.080190
H45   H     H_    0.953093 0.756027 0.859747 0.047825
H46   H     H_    0.492491 0.282514 0.043386 -0.043899
H47   H     H_    0.941659 0.136049 0.229991 0.103578
H48   H     H_    0.939547 0.864889 0.765337 0.116712
H49   H     H_    0.438506 0.633500 0.248475 0.065521
H50   H     H_    0.439567 0.364908 0.765417 0.116645
H51   H     H_    0.193276 0.208539 0.535637 0.153022
H52   H     H_    0.198802 0.789506 0.027805 0.131343
H53   H     H_    0.693338 0.708529 0.535627 0.153781
H54   H     H_    0.698884 0.289443 0.027776 0.131421
H55   H     H_    0.833900 0.807861 0.255111 0.149429
H56   H     H_    0.452467 0.743392 0.324120 0.071323
H57   H     H_    0.830866 0.196860 0.762375 0.133863
H58   H     H_    0.333887 0.307862 0.255088 0.149474
H59   H     H_    0.330760 0.696913 0.762392 0.137056
H60   H     H_    0.771902 0.661478 0.723685 0.154870
H61   H     H_    0.774356 0.337918 0.220317 0.129460
H62   H     H_    0.271964 0.161541 0.723556 0.154772
H63   H     H_    0.274184 0.838048 0.220534 0.131262
H64   H     H_    0.988732 0.101977 0.392960 0.042374
H65   H     H_    0.995266 0.898657 0.916194 0.093190
H66   H     H_    0.492813 0.602801 0.404994 0.057754
H67   H     H_    0.453104 0.256039 0.859760 0.047769
H68   H     H_    0.495296 0.398659 0.916273 0.093185
H69   H     H_    0.015667 0.231051 0.773118 -0.026407
H70   H     H_    0.051236 0.767062 0.521566 0.082431
H71   H     H_    0.515828 0.730214 0.777243 -0.023060
H72   H     H_    0.551210 0.267031 0.521626 0.082098
H73   H     H_    0.951625 0.168613 0.754746 -0.047152
H74   H     H_    0.026550 0.769830 0.317063 -0.170511
H75   H     H_    0.451376 0.668106 0.756939 0.030962
H76   H     H_    0.526560 0.269808 0.317103 -0.170636
H77   H     H_    0.808231 0.454269 0.987030 0.048371
H78   H     H_    0.165606 0.538828 0.105625 -0.110071
H79   H     H_    0.832142 0.558567 0.411846 0.108131
H80   H     H_    0.308236 0.954198 0.986767 0.048524
H81   H     H_    0.332401 0.058491 0.411467 0.108460
H82   H     H_    0.686211 0.544430 0.036965 0.204685
H83   H     H_    0.663282 0.545037 0.848520 0.218305
H84   H     H_    0.622924 0.562839 0.355471 0.184088
H85   H     H_    0.660002 0.489713 0.373535 0.213127
H86   H     H_    0.186247 0.044591 0.035791 0.204281
H87   H     H_    0.162756 0.044699 0.847573 0.218861
H88   H     H_    0.123251 0.063615 0.355326 0.185098
H89   H     H_    0.167209 0.460126 0.606144 -0.112981
H90   H     H_    0.159955 0.990271 0.372353 0.212804
H91   H     H_    0.650296 0.449434 0.721637 0.302013
H92   H     H_    0.700181 0.640263 0.248617 0.320452
H93   H     H_    0.150496 0.949060 0.721245 0.302185
H94   H     H_    0.200942 0.140900 0.249504 0.319369
H95   H     H_    0.646709 0.405832 0.086865 0.216818
H96   H     H_    0.715640 0.441015 0.161690 0.192228
H97   H     H_    0.680679 0.599039 0.595331 0.181145
H98   H     H_    0.708138 0.522922 0.602265 0.153597
H99   H     H_    0.146765 0.905764 0.086772 0.216643
H100  H     H_    0.665597 0.038730 0.105781 -0.111782
H101  H     H_    0.215524 0.941237 0.161619 0.192365
H102  H     H_    0.181333 0.099284 0.595705 0.183518
H103  H     H_    0.207861 0.022862 0.601671 0.153121
H104  H     H_    0.340557 0.580980 0.152462 0.184858
H105  H     H_    0.271620 0.582314 0.250901 0.165225
H106  H     H_    0.270929 0.419836 0.742654 0.164292
H107  H     H_    0.302499 0.485301 0.650572 0.221479
H108  H     H_    0.840851 0.079927 0.152479 0.209622
H109  H     H_    0.772043 0.082185 0.251401 0.184109
H110  H     H_    0.770806 0.919628 0.742652 0.163453
H111  H     H_    0.667165 0.960082 0.605997 -0.114508
H112  H     H_    0.802355 0.985208 0.651014 0.223255
H113  H     H_    0.319331 0.531451 0.895552 0.328775
H114  H     H_    0.316356 0.469919 0.381688 0.342436
H115  H     H_    0.819313 0.031479 0.895527 0.327329
H116  H     H_    0.816571 0.969941 0.382267 0.354822
H117  H     H_    0.904089 0.112354 0.534504 0.316578
H118  H     H_    0.886028 0.913273 0.962478 0.332894
H119  H     H_    0.384622 0.586818 0.451480 0.321463
H120  H     H_    0.386068 0.413295 0.962592 0.332687
H121  H     H_    0.074767 0.144162 0.638154 0.154700
H122  H     H_    0.158229 0.564542 0.902953 -0.014319
H123  H     H_    0.021034 0.082369 0.667418 0.129452
H124  H     H_    0.034422 0.873954 0.182385 0.150676
H125  H     H_    0.966518 0.894233 0.279309 0.222550
H126  H     H_    0.574235 0.641730 0.644762 0.152045
H127  H     H_    0.520219 0.580293 0.675740 0.149462
H128  H     H_    0.534439 0.373924 0.182448 0.151325
H129  H     H_    0.466556 0.394259 0.279389 0.220609
H130  H     H_    0.017340 0.338147 0.640642 0.182085
H131  H     H_    0.059290 0.406245 0.576648 0.199822
H132  H     H_    0.019055 0.664815 0.144356 0.141436
N1    N     N_3   0.662989 0.516524 0.949337 -0.443913
N2    N     N_3   0.295895 0.434610 0.644644 -0.488717
N3    N     N_3   0.793180 0.060081 0.156078 -0.458305
N4    N     N_3   0.795810 0.934517 0.644800 -0.487431
N5    N     N_3   0.062283 0.107231 0.716287 -0.479839
N6    N     N_3   0.018250 0.897905 0.281192 -0.468903
N7    N     N_3   0.561442 0.605363 0.724091 -0.480776
N8    N     N_3   0.518291 0.397890 0.281258 -0.470796
N9    N     N_3   0.054517 0.372330 0.666591 -0.420350
N10   N     N_3   0.055491 0.629691 0.168357 -0.461748
N11   N     N_3   0.554514 0.872257 0.666689 -0.420327
N12   N     N_3   0.665061 0.536584 0.326432 -0.512298
N13   N     N_3   0.555507 0.129682 0.168336 -0.461543
N14   N     N_3   0.021933 0.084567 0.966971 -0.441792
N15   N     N_3   0.027038 0.902433 0.558301 -0.462670
N16   N     N_3   0.519997 0.584705 0.974793 -0.440837
N17   N     N_3   0.527067 0.402400 0.558371 -0.463729
N18   N     N_3   0.793059 0.425624 0.760249 -0.502190
N19   N     N_3   0.793299 0.536354 0.185739 -0.530495
N20   N     N_3   0.293078 0.925750 0.759841 -0.502074
N21   N     N_3   0.293330 0.036315 0.185509 -0.530254
N22   N     N_3   0.162888 0.016419 0.948821 -0.444916
N23   N     N_3   0.165260 0.037236 0.325936 -0.513198
N24   N     N_3   0.696506 0.415176 0.065833 -0.501109
N25   N     N_3   0.720463 0.569668 0.566443 -0.452460
N26   N     N_3   0.196550 0.915236 0.065857 -0.500974
N27   N     N_3   0.220767 0.069540 0.566476 -0.451673
N28   N     N_3   0.293139 0.560526 0.155696 -0.469911
O1    O     O_2   0.130070 0.404060 0.104920 -0.431040
O2    O     O_3   0.954029 0.793394 0.475662 -0.627286
O3    O     O_3   0.461829 0.710478 0.973912 -0.609804
O4    O     O_3   0.454018 0.293390 0.475631 -0.627547
O5    O     O_3   0.924190 0.533610 0.949240 -0.512228
O6    O     O_3   0.924190 0.466390 0.449240 -0.412160
O7    O     O_3   0.424190 0.033610 0.949240 -0.512448
O8    O     O_3   0.424190 0.966390 0.449240 -0.412523
O9    O     O_3   0.075780 0.466370 0.861070 -0.479451
O10   O     O_3   0.075780 0.533630 0.361070 -0.485595
O11   O     O_3   0.575780 0.966370 0.861070 -0.479595
O12   O     O_2   0.130070 0.595940 0.604920 -0.431363
O13   O     O_3   0.575780 0.033630 0.361070 -0.486007
O14   O     O_3   0.022320 0.344950 0.359800 -0.500991
O15   O     O_3   0.022320 0.655050 0.859800 -0.512058
O16   O     O_3   0.522320 0.844950 0.359800 -0.500855
O17   O     O_3   0.522320 0.155050 0.859800 -0.512121
O18   O     O_2   0.132845 0.295824 0.252220 -0.480118
O19   O     O_2   0.132055 0.705697 0.747875 -0.483780
O20   O     O_2   0.632878 0.795785 0.251590 -0.479634
O21   O     O_2   0.632043 0.205708 0.747859 -0.484072
O22   O     O_3   0.206740 0.477274 0.945960 -0.593205
O23   O     O_2   0.630070 0.904060 0.104920 -0.431238
O24   O     O_3   0.206652 0.523076 0.446833 -0.597293
O25   O     O_3   0.706739 0.977275 0.945892 -0.592802
O26   O     O_3   0.706660 0.023088 0.446878 -0.593259
O27   O     O_3   0.049369 0.208900 0.341674 -0.629160
O28   O     O_3   0.049819 0.790737 0.848844 -0.610943
O29   O     O_3   0.549339 0.709156 0.342371 -0.632373
O30   O     O_3   0.549836 0.290741 0.848922 -0.611025
O31   O     O_2   0.869860 0.403670 0.205810 -0.507538
O32   O     O_2   0.869860 0.596330 0.705810 -0.426067
O33   O     O_2   0.369860 0.903670 0.205810 -0.506382
O34   O     O_2   0.630070 0.095940 0.604920 -0.431669
O35   O     O_2   0.369860 0.096330 0.705810 -0.426071
O36   O     O_3   0.977590 0.344880 0.951200 -0.437928
O37   O     O_3   0.977590 0.655120 0.451200 -0.423016
O38   O     O_3   0.477590 0.844880 0.951200 -0.436385
O39   O     O_3   0.477590 0.155120 0.451200 -0.423201
O40   O     O_2   0.871231 0.290935 0.063048 -0.492228
O41   O     O_2   0.867033 0.705933 0.555604 -0.468936
O42   O     O_2   0.370469 0.791934 0.062150 -0.492937
O43   O     O_2   0.367027 0.205931 0.555573 -0.468714
O44   O     O_3   0.666321 0.419142 0.804993 -0.707758
O45   O     O_3   0.786830 0.467421 0.393892 -0.683301
O46   O     O_3   0.727792 0.634776 0.346474 -0.767343
O47   O     O_3   0.166386 0.918899 0.805001 -0.707851
O48   O     O_3   0.228547 0.135058 0.347255 -0.767659
O49   O     O_3   0.294385 0.573044 0.882913 -0.725397
O50   O     O_3   0.292565 0.427459 0.371365 -0.683389
O51   O     O_3   0.794431 0.073130 0.883386 -0.731005
O52   O     O_3   0.792648 0.927566 0.371482 -0.682773
O53   O     O_3   0.893429 0.134452 0.433473 -0.742803
O54   O     O_3   0.903708 0.868893 0.985794 -0.741148
O55   O     O_3   0.400092 0.632648 0.466230 -0.748636
O56   O     O_3   0.784986 0.534165 0.844726 -0.641275
O57   O     O_3   0.403736 0.368909 0.985882 -0.741550
O58   O     O_3   0.911649 0.606953 0.218967 -0.760321
O59   O     O_3   0.921451 0.397052 0.689299 -0.703012
O60   O     O_3   0.411647 0.106955 0.218912 -0.760460
O61   O     O_3   0.421493 0.897022 0.689138 -0.702644
O62   O     O_3   0.250350 0.365679 0.085697 -0.659732
O63   O     O_3   0.250132 0.635495 0.588445 -0.674066
O64   O     O_3   0.750376 0.865697 0.085664 -0.659868
O65   O     O_3   0.749953 0.135623 0.588853 -0.673799
O66   O     O_3   0.102916 0.165696 0.932511 -0.728219
O67   O     O_3   0.286858 0.967459 0.393762 -0.683168
O68   O     O_3   0.115919 0.865581 0.418365 -0.742037
O69   O     O_3   0.601806 0.664834 0.938951 -0.725011
O70   O     O_3   0.615940 0.365513 0.418451 -0.742288
O71   O     O_3   0.284944 0.034211 0.844865 -0.640958
O72   O     O_3   0.963130 0.210513 0.971692 -0.612410
P1    P     P_3+3 0.136530 0.426510 0.931350 1.068607
P2    P     P_3+3 0.918140 0.717213 0.429306 1.039197
P3    P     P_3+3 0.419073 0.783127 0.929635 0.974849
P4    P     P_3+3 0.418133 0.217208 0.429279 1.039231
P5    P     P_3+3 0.085708 0.714093 0.885165 0.937054
P6    P     P_3+3 0.084769 0.285512 0.385441 0.929502
P7    P     P_3+3 0.585717 0.214088 0.885187 0.937141
P8    P     P_3+3 0.584970 0.785704 0.385240 0.928702
P9    P     P_3+3 0.136530 0.573490 0.431350 1.067647
P10   P     P_3+3 0.636530 0.926510 0.931350 1.068809
P11   P     P_3+3 0.636530 0.073490 0.431350 1.069185
P12   P     P_3+3 0.863410 0.426100 0.379280 1.027667
P13   P     P_3+3 0.863410 0.573900 0.879280 1.001653
P14   P     P_3+3 0.363410 0.926100 0.379280 1.028291
P15   P     P_3+3 0.363410 0.073900 0.879280 1.001638
P16   P     P_3+3 0.919461 0.282851 0.929438 0.975129

loop_
_geom_bond_atom_site_label_1
_geom_bond_atom_site_label_2
_ccdc_geom_bond_type
C29   C51   A    
C30   C52   A    
H12   O62   S    
H118  O54   S    
H37   N21   S    
C23   H66   S    
C9    C14   A    
Ba2   O37   S    
H120  O57   S    
C29   C84   A    
C36   O58   S    
C59   N15   S    
O28   P5    S    
C47   P4    S    
O5    P13   S    
H5    N11   S    
C80   O27   S    
C25   C29   A    
H99   N26   S    
O35   P15   D    
H109  N3    S    
C33   C38   A    
C5    C9    A    
H131  N9    S    
C72   H2    S    
H86   N22   S    
C7    C11   A    
Ba2   O12   S    
C35   P14   S    
O3    P3    S    
O43   P4    D    
C19   C85   A    
O1    P1    D    
Ba4   O8    S    
C48   P3    S    
C65   H81   S    
H91   O44   S    
C57   H63   S    
C11   C16   A    
C10   H52   S    
C80   H1    S    
C42   H75   S    
C59   O68   S    
O72   P16   S    
C24   C28   A    
C74   O26   S    
O15   P5    S    
Ba1   P12   S    
H128  N8    S    
O10   P9    S    
Ba3   P10   S    
C13   C17   A    
C68   N12   S    
H108  N3    S    
C23   C82   S    
C15   C19   A    
C54   H61   S    
C2    C56   A    
H8    O58   S    
H9    O59   S    
C27   C86   A    
H10   O60   S    
C31   P13   S    
C65   C70   S    
C58   N14   S    
C52   H59   S    
O37   P2    S    
C59   N6    S    
C43   H72   S    
C65   N21   S    
O39   P4    S    
H34   N20   S    
C12   C81   S    
H36   N20   S    
C40   H69   S    
C42   O3    S    
H121  N5    S    
Ba1   O6    S    
C36   C44   A    
C75   H35   S    
O42   P3    D    
C37   O59   S    
Ba3   O16   S    
C61   N8    S    
C73   H100  S    
C10   C15   A    
C20   C86   A    
C60   N7    S    
Ba2   O32   S    
C24   C54   A    
C40   C58   S    
C65   O67   S    
C31   C36   A    
Ba4   O39   S    
C43   O4    S    
H23   N15   S    
H20   O70   S    
C62   C66   S    
C15   C57   A    
Ba3   O7    S    
C23   H49   S    
C83   H67   S    
C13   H54   S    
C47   C51   A    
H28   N17   S    
H27   N16   S    
C22   C53   A    
C56   P9    S    
C60   N16   S    
C22   C31   A    
O8    P14   S    
H25   N15   S    
C26   C57   A    
C71   C75   S    
C16   C20   A    
Ba1   O36   S    
H106  N2    S    
O4    P4    S    
C69   O47   S    
C87   O65   S    
C75   N28   S    
C70   O48   S    
Ba3   P14   S    
C70   N27   S    
H6    N13   S    
H29   N17   S    
C78   P11   S    
H82   N1    S    
C39   C48   A    
C40   O72   S    
C63   C68   S    
H113  O49   S    
H92   O46   S    
C68   N25   S    
C41   H74   S    
H119  O55   S    
H22   N14   S    
C60   O69   S    
C9    H51   S    
C2    N10   S    
C12   H48   S    
Ba4   P15   S    
C62   O56   S    
C77   O51   S    
C5    C88   A    
H38   N21   S    
H14   O63   S    
C1    H47   S    
C79   N4    S    
C44   C49   A    
H16   O65   S    
Ba4   O35   S    
C26   C30   A    
C74   H111  S    
C6    C10   A    
Ba1   O31   S    
C1    C80   S    
H110  N4    S    
C61   N17   S    
H7    N13   S    
H125  N6    S    
C4    C8    A    
H104  N28   S    
H101  N26   S    
C85   O63   S    
C86   O64   S    
H21   N14   S    
O19   P5    D    
C7    P8    S    
C83   H46   S    
Ba3   Ba4   S    
H26   N16   S    
Ba4   O17   S    
C17   C21   A    
O32   P13   D    
C14   C18   A    
C74   H24   S    
C72   C76   S    
H127  N7    S    
C82   H56   S    
Ba3   O23   S    
H11   O61   S    
C42   H71   S    
O16   P8    S    
C83   O30   S    
H117  O53   S    
C17   C54   A    
C43   H76   S    
O14   P6    S    
O40   P16   D    
H129  N8    S    
H4    N11   S    
C26   C35   A    
C40   H73   S    
H107  N2    S    
O6    P12   S    
Ba1   O10   S    
C14   C55   A    
Ba2   O5    S    
Ba4   P11   S    
C32   P12   S    
Ba2   P9    S    
Ba3   O38   S    
C76   N2    S    
O38   P3    S    
C72   H89   S    
C66   N24   S    
C62   H77   S    
C76   O50   S    
C80   H42   S    
C46   C50   A    
C4    C78   A    
O18   P6    D    
H18   O68   S    
C88   N9    S    
H97   N25   S    
H132  N10   S    
C74   C79   S    
Ba1   O14   S    
O17   P7    S    
C8    C13   A    
H3    N10   S    
C18   C84   A    
C41   O2    S    
O2    P2    S    
C76   H39   S    
H123  N5    S    
C63   O45   S    
C32   C37   A    
C28   C50   A    
C55   H62   S    
Ba1   O1    S    
H85   N12   S    
Ba1   O5    S    
C3    N11   S    
O67   P14   S    
C61   O70   S    
H114  O50   S    
C63   N19   S    
Ba2   P13   S    
C69   N22   S    
C4    N13   S    
H98   N25   S    
Ba4   O34   S    
C41   H70   S    
C73   C77   S    
C71   H78   S    
C84   O62   S    
H32   N19   S    
O34   P11   D    
Ba4   O7    S    
O7    P15   S    
C21   C78   A    
O27   P6    S    
C81   H45   S    
C37   C46   A    
H87   N22   S    
Ba3   O33   S    
C12   H65   S    
C68   O46   S    
C2    C6    A    
C1    H64   S    
H83   N1    S    
C34   C83   S    
O29   P8    S    
C73   H13   S    
O11   P10   S    
C45   P1    S    
C64   H80   S    
C1    O53   S    
Ba2   O15   S    
C23   O55   S    
C67   P10   S    
C30   C85   A    
C34   H68   S    
C28   C87   A    
H88   N23   S    
O33   P14   D    
C24   C32   A    
C25   C33   A    
H102  N27   S    
H130  N9    S    
O71   P15   S    
Ba3   O13   S    
C66   N1    S    
O45   P12   S    
H30   N18   S    
C79   O52   S    
C3    C7    A    
O24   P9    S    
O26   P11   S    
C64   O71   S    
C3    C67   A    
Ba2   O9    S    
C5    P6    S    
Ba3   O8    S    
C49   H55   S    
C72   O24   S    
Ba1   Ba2   S    
O13   P11   S    
C73   O25   S    
O9    P1    S    
H15   O64   S    
C25   C55   A    
C44   P2    S    
H103  N27   S    
O25   P10   S    
H124  N6    S    
H33   N19   S    
C66   O44   S    
H112  N4    S    
C75   O49   S    
C38   C47   A    
O22   P1    S    
C22   C27   A    
C58   O66   S    
O41   P2    D    
C34   H50   S    
C34   O57   S    
H19   O69   S    
C50   H57   S    
C19   C56   A    
O36   P16   S    
C21   C87   A    
C39   O61   S    
H115  O51   S    
C53   H60   S    
H116  O52   S    
O31   P12   D    
C8    P7    S    
C11   H53   S    
C33   P15   S    
C77   H40   S    
C35   C39   A    
C62   N18   S    
H105  N28   S    
C63   H79   S    
C64   C69   S    
C41   C59   S    
C42   C60   S    
H93   O47   S    
O23   P10   D    
H94   O48   S    
H95   N24   S    
C58   N5    S    
O30   P7    S    
C81   O28   S    
C46   P16   S    
C27   C49   A    
C81   H43   S    
C82   H44   S    
Ba2   O6    S    
C12   O54   S    
C18   C45   A    
C71   O22   S    
O12   P9    D    
C6    P5    S    
C51   H58   S    
C69   N26   S    
C77   N3    S    
C38   O60   S    
O20   P8    D    
C71   H122  S    
H17   O66   S    
H90   N23   S    
C70   N23   S    
H84   N12   S    
C64   N20   S    
Ba4   O11   S    
C82   O29   S    
H96   N24   S    
O56   P13   S    
H126  N7    S    
C79   H41   S    
O21   P7    D    
C45   C88   A    
C16   C53   A    
C43   C61   S    
H31   N18   S    
Ba1   P1    S    
C48   C52   A    
C20   C67   A    
