data_mof_unit_64930.cif
_audit_creation_date              2012-12-10T19:57:55-0500
_audit_creation_method            fapswitch 2.2
_symmetry_space_group_name_H-M    P1
_symmetry_Int_Tables_number       1
_space_group_crystal_system       monoclinic
_cell_length_a                    39.012862
_cell_length_b                    32.106563
_cell_length_c                    21.760635
_cell_angle_alpha                 90.0
_cell_angle_beta                  124.643492
_cell_angle_gamma                 90.0
_cell_volume                      22424.2217217

loop_
_atom_site_label
_atom_site_type_symbol
_atom_type_description
_atom_site_fract_x
_atom_site_fract_y
_atom_site_fract_z
_atom_type_partial_charge
C1    C     C_R   0.419362 0.500008 0.419540 0.898487
C2    C     C_R   0.706483 0.500613 0.709920 -0.002252
C3    C     C_2   0.002597 0.009162 0.188237 0.267389
C4    C     C_2   0.531133 0.527295 0.748803 0.063313
C5    C     C_2   0.468867 0.527296 0.251197 0.063314
C6    C     C_2   0.031134 0.027294 0.748804 0.063333
C7    C     C_2   0.968866 0.027295 0.251196 0.063333
C8    C     C_2   0.511170 0.497916 0.695480 -0.285211
C9    C     C_2   0.488830 0.497916 0.304520 -0.285211
C10   C     C_2   0.011169 0.997916 0.695480 -0.285238
C11   C     C_2   0.988830 0.997916 0.304520 -0.285239
C12   C     C_R   0.226987 0.506499 0.169665 -0.080005
C13   C     C_R   0.793517 0.000613 0.290081 -0.002257
C14   C     C_R   0.773013 0.506498 0.830335 -0.080005
C15   C     C_R   0.726987 0.006495 0.169665 -0.080012
C16   C     C_R   0.273013 0.006492 0.830335 -0.080013
C17   C     C_R   0.206623 0.502281 0.206291 -0.033513
C18   C     C_R   0.793377 0.502282 0.793709 -0.033513
C19   C     C_R   0.706623 0.002282 0.206290 -0.033523
C20   C     C_R   0.293377 0.002282 0.793709 -0.033523
C21   C     C_R   0.229909 0.497590 0.284833 0.448830
C22   C     C_R   0.770091 0.497593 0.715166 0.448832
C23   C     C_R   0.729909 0.997595 0.284834 0.448830
C24   C     C_R   0.206483 0.000614 0.709919 -0.002257
C25   C     C_R   0.270092 0.997599 0.715165 0.448831
C26   C     C_R   0.555213 0.562062 0.745577 0.119296
C27   C     C_R   0.550481 0.602782 0.763339 -0.138159
C28   C     C_R   0.573829 0.635454 0.762216 -0.148720
C29   C     C_R   0.602275 0.627700 0.743949 -0.134427
C30   C     C_R   0.607576 0.587232 0.727142 -0.096695
C31   C     C_R   0.584426 0.554477 0.728525 -0.095226
C32   C     C_R   0.444788 0.562063 0.254424 0.119295
C33   C     C_R   0.449520 0.602782 0.236662 -0.138158
C34   C     C_R   0.426172 0.635455 0.237786 -0.148721
C35   C     C_R   0.270972 0.505752 0.212088 -0.045140
C36   C     C_R   0.397727 0.627701 0.256053 -0.134429
C37   C     C_R   0.392426 0.587233 0.272860 -0.096694
C38   C     C_R   0.415575 0.554478 0.271476 -0.095222
C39   C     C_R   0.055216 0.062059 0.745580 0.119291
C40   C     C_R   0.050486 0.102780 0.763344 -0.138151
C41   C     C_R   0.073837 0.135451 0.762224 -0.148740
C42   C     C_R   0.102283 0.127694 0.743958 -0.134435
C43   C     C_R   0.107581 0.087226 0.727149 -0.096693
C44   C     C_R   0.084428 0.054473 0.728528 -0.095231
C45   C     C_R   0.944786 0.062061 0.254422 0.119291
C46   C     C_R   0.729028 0.505750 0.787912 -0.045141
C47   C     C_R   0.949516 0.102781 0.236657 -0.138154
C48   C     C_R   0.926166 0.135452 0.237778 -0.148739
C49   C     C_R   0.897721 0.127697 0.256046 -0.134438
C50   C     C_R   0.892422 0.087229 0.272855 -0.096690
C51   C     C_R   0.915573 0.054475 0.271474 -0.095226
C52   C     C_R   0.293248 0.510969 0.175317 0.136903
C53   C     C_R   0.289648 0.548289 0.138345 -0.152010
C54   C     C_R   0.309996 0.552851 0.102661 -0.118537
C55   C     C_R   0.334190 0.520325 0.103901 -0.100490
C56   C     C_R   0.338060 0.483169 0.140810 -0.158127
C57   C     C_R   0.770972 0.005748 0.212088 -0.045144
C58   C     C_R   0.317650 0.478426 0.176353 -0.165688
C59   C     C_R   0.706751 0.510965 0.824683 0.136903
C60   C     C_R   0.710351 0.548284 0.861658 -0.152010
C61   C     C_R   0.690003 0.552844 0.897341 -0.118535
C62   C     C_R   0.665809 0.520317 0.896099 -0.100495
C63   C     C_R   0.661939 0.483163 0.859186 -0.158124
C64   C     C_R   0.682349 0.478421 0.823644 -0.165687
C65   C     C_R   0.793249 0.010962 0.175317 0.136917
C66   C     C_R   0.789648 0.048279 0.138339 -0.152011
C67   C     C_R   0.809997 0.052838 0.102656 -0.118538
C68   C     C_R   0.229027 0.005744 0.787912 -0.045145
C69   C     C_R   0.834191 0.020310 0.103901 -0.100478
C70   C     C_R   0.838062 0.983157 0.140817 -0.158122
C71   C     C_R   0.817651 0.978417 0.176359 -0.165694
C72   C     C_R   0.206751 0.010955 0.824683 0.136916
C73   C     C_R   0.210351 0.048270 0.861666 -0.152009
C74   C     C_R   0.190002 0.052825 0.897348 -0.118538
C75   C     C_R   0.165807 0.020297 0.896097 -0.100483
C76   C     C_R   0.161937 0.983145 0.859178 -0.158119
C77   C     C_R   0.182348 0.978409 0.823636 -0.165692
C78   C     C_R   0.202303 0.510547 0.087009 0.151084
C79   C     C_1   0.162006 0.501321 0.162695 -0.050394
C80   C     C_R   0.178034 0.546245 0.051741 -0.154777
C81   C     C_R   0.155006 0.550082 0.974035 -0.128554
C82   C     C_R   0.156123 0.518406 0.931141 -0.104824
C83   C     C_R   0.180240 0.482816 0.965884 -0.130299
C84   C     C_R   0.203245 0.478816 0.043564 -0.122424
C85   C     C_R   0.797697 0.510543 0.912991 0.151085
C86   C     C_R   0.821966 0.546240 0.948263 -0.154778
C87   C     C_R   0.844994 0.550074 0.025969 -0.128552
C88   C     C_R   0.843877 0.518397 0.068860 -0.104825
C89   C     C_R   0.819760 0.482807 0.034113 -0.130298
C90   C     C_1   0.837994 0.501321 0.837305 -0.050394
C91   C     C_R   0.796755 0.478810 0.956434 -0.122426
C92   C     C_R   0.702303 0.010538 0.087008 0.151092
C93   C     C_R   0.678033 0.046234 0.051732 -0.154780
C94   C     C_R   0.655005 0.050066 0.974026 -0.128552
C95   C     C_R   0.656123 0.018387 0.931138 -0.104813
C96   C     C_R   0.680240 0.982798 0.965889 -0.130312
C97   C     C_R   0.703246 0.978803 0.043569 -0.122456
C98   C     C_R   0.297697 0.010530 0.912993 0.151091
C99   C     C_R   0.321966 0.046226 0.948274 -0.154779
C100  C     C_R   0.344994 0.050053 0.025981 -0.128551
C101  C     C_1   0.662006 0.001321 0.162695 -0.050403
C102  C     C_R   0.343876 0.018371 0.068864 -0.104812
C103  C     C_R   0.319759 0.982783 0.034107 -0.130312
C104  C     C_R   0.296754 0.978792 0.956426 -0.122456
C105  C     C_R   0.580638 0.500008 0.580459 0.898488
C106  C     C_1   0.337994 0.001321 0.837305 -0.050402
C107  C     C_1   0.337997 0.500337 0.335797 -0.024412
C108  C     C_1   0.662003 0.500337 0.664202 -0.024413
C109  C     C_1   0.837997 0.000337 0.335798 -0.024422
C110  C     C_1   0.162002 0.000337 0.664201 -0.024424
C111  C     C_1   0.375232 0.500101 0.374255 -0.188544
C112  C     C_1   0.624768 0.500101 0.625745 -0.188544
C113  C     C_1   0.875232 0.000101 0.374255 -0.188561
C114  C     C_1   0.124768 0.000101 0.625744 -0.188560
C115  C     C_1   0.124752 0.500602 0.125634 -0.166120
C116  C     C_R   0.919362 0.000008 0.419541 0.898501
C117  C     C_1   0.875248 0.500602 0.874366 -0.166120
C118  C     C_1   0.624752 0.000603 0.125634 -0.166121
C119  C     C_1   0.375248 0.000603 0.874366 -0.166122
C120  C     C_R   0.500000 0.419340 0.000000 0.922760
C121  C     C_R   0.000000 0.919340 0.000000 0.922824
C122  C     C_R   0.499506 0.501837 0.880010 0.813779
C123  C     C_R   0.500494 0.501837 0.119990 0.813780
C124  C     C_R   0.999506 0.001837 0.880010 0.813789
C125  C     C_R   0.000494 0.001837 0.119990 0.813788
C126  C     C_R   0.500000 0.580692 1.000000 0.907769
C127  C     C_R   0.080638 0.000008 0.580459 0.898501
C128  C     C_R   0.000000 0.080692 0.000000 0.907777
C129  C     C_R   0.503518 0.499802 0.622401 0.908350
C130  C     C_R   0.496482 0.499802 0.377599 0.908350
C131  C     C_R   0.003518 0.999802 0.622401 0.908366
C132  C     C_R   0.996482 0.999802 0.377599 0.908365
C133  C     C_R   0.000000 0.419419 0.000000 0.894574
C134  C     C_R   0.500000 0.919419 0.000000 0.894525
C135  C     C_R   0.080591 0.500008 0.080883 0.905939
C136  C     C_R   0.919408 0.500008 0.919117 0.905940
C137  C     C_R   0.580592 0.000007 0.080883 0.905925
C138  C     C_R   0.273103 0.496674 0.325475 -0.181886
C139  C     C_R   0.419408 0.000008 0.919117 0.905925
C140  C     C_R   0.000000 0.580642 0.000000 0.897873
C141  C     C_R   0.500000 0.080642 0.000000 0.897891
C142  C     C_R   0.973071 0.727867 0.011513 -0.177348
C143  C     C_R   0.026929 0.727867 0.988487 -0.177348
C144  C     C_R   0.473740 0.227867 0.013175 -0.177339
C145  C     C_R   0.526260 0.227867 0.986825 -0.177338
C146  C     C_R   1.000000 0.706418 0.000000 -0.034263
C147  C     C_R   0.500000 0.206418 0.000000 -0.034336
C148  C     C_R   0.526715 0.271248 0.986592 0.431741
C149  C     C_R   0.726897 0.496676 0.674524 -0.181886
C150  C     C_R   0.473285 0.271248 0.013408 0.431741
C151  C     C_R   0.027395 0.771248 0.988283 0.431737
C152  C     C_R   0.972605 0.771248 0.011717 0.431736
C153  C     C_R   0.500000 0.293328 0.000000 -0.093139
C154  C     C_R   0.000000 0.793328 0.000000 -0.093181
C155  C     C_1   0.000000 0.662064 0.000000 -0.002391
C156  C     C_1   0.500000 0.162064 0.000000 -0.002389
C157  C     C_1   0.500000 0.337911 0.000000 -0.069735
C158  C     C_1   0.000000 0.837911 0.000000 -0.069807
C159  C     C_1   0.500000 0.375176 0.000000 -0.181896
C160  C     C_R   0.773102 0.996679 0.325477 -0.181894
C161  C     C_1   0.000000 0.875176 0.000000 -0.181910
C162  C     C_2   0.531475 0.522379 0.816299 -0.262161
C163  C     C_2   0.468525 0.522379 0.183701 -0.262162
C164  C     C_2   0.031475 0.022378 0.816300 -0.262172
C165  C     C_2   0.968525 0.022379 0.183701 -0.262173
C166  C     C_1   0.000000 0.624811 0.000000 -0.178440
C167  C     C_1   0.500000 0.124811 0.000000 -0.178430
C168  C     C_R   0.008823 0.271822 0.954301 0.388863
C169  C     C_R   0.991177 0.271822 0.045699 0.388864
C170  C     C_R   0.508350 0.771822 0.953657 0.388844
C171  C     C_R   0.226898 0.996683 0.674522 -0.181894
C172  C     C_R   0.491651 0.771822 0.046344 0.388842
C173  C     C_R   1.000000 0.293358 0.000000 0.039696
C174  C     C_R   0.500001 0.793358 0.000000 0.039672
C175  C     C_R   0.491721 0.728115 0.045955 -0.300759
C176  C     C_R   0.508280 0.728115 0.954046 -0.300760
C177  C     C_R   0.991251 0.228115 0.045316 -0.300737
C178  C     C_R   0.008749 0.228115 0.954684 -0.300736
C179  C     C_R   0.500001 0.706606 0.000000 0.082415
C180  C     C_R   0.000000 0.206606 1.000000 0.082430
C181  C     C_1   0.000000 0.337902 0.000000 0.134005
C182  C     C_R   0.293517 0.500613 0.290080 -0.002252
C183  C     C_1   0.500000 0.837902 0.000000 0.133996
C184  C     C_1   0.500000 0.662199 0.000000 -0.000572
C185  C     C_1   0.000000 0.162199 1.000000 -0.000564
C186  C     C_1   0.500000 0.624914 1.000000 -0.193342
C187  C     C_1   0.000000 0.124914 1.000000 -0.193337
C188  C     C_1   0.000000 0.375192 0.000000 -0.148678
C189  C     C_1   0.500000 0.875192 0.000000 -0.148668
C190  C     C_2   0.497402 0.509162 0.811763 0.267390
C191  C     C_2   0.502598 0.509162 0.188237 0.267390
C192  C     C_2   0.997402 0.009162 0.811763 0.267388
H1    H     H_    0.560071 0.529678 0.869951 0.130400
H2    H     H_    0.485354 0.710908 0.081293 0.147859
H3    H     H_    0.015477 0.210907 0.919836 0.147825
H4    H     H_    0.984523 0.210907 0.080163 0.147825
H5    H     H_    0.500562 0.469555 0.707111 0.180517
H6    H     H_    0.499437 0.469555 0.292889 0.180516
H7    H     H_    0.000560 0.969556 0.707109 0.180486
H8    H     H_    0.999439 0.969556 0.292890 0.180486
H9    H     H_    0.290974 0.493013 0.385653 0.180458
H10   H     H_    0.709026 0.493017 0.614346 0.180458
H11   H     H_    0.790973 0.993021 0.385654 0.180460
H12   H     H_    0.439929 0.529678 0.130049 0.130400
H13   H     H_    0.209027 0.993027 0.614344 0.180460
H14   H     H_    0.022843 0.274217 0.881681 0.335121
H15   H     H_    0.977157 0.274217 0.118319 0.335120
H16   H     H_    0.521617 0.774217 0.880013 0.335155
H17   H     H_    0.478385 0.774217 0.119988 0.335156
H18   H     H_    0.438607 0.493046 0.747839 0.349621
H19   H     H_    0.561392 0.493045 0.252161 0.349621
H20   H     H_    0.938607 0.993050 0.747839 0.349620
H21   H     H_    0.061393 0.993048 0.252161 0.349619
H22   H     H_    0.528563 0.609260 0.777624 0.142050
H23   H     H_    0.060072 0.029675 0.869952 0.130394
H24   H     H_    0.569899 0.666791 0.775602 0.138001
H25   H     H_    0.620368 0.653004 0.743222 0.133604
H26   H     H_    0.629942 0.581151 0.713811 0.141348
H27   H     H_    0.589650 0.523127 0.717312 0.105663
H28   H     H_    0.471438 0.609260 0.222377 0.142050
H29   H     H_    0.430103 0.666792 0.224399 0.138001
H30   H     H_    0.379634 0.653006 0.256781 0.133604
H31   H     H_    0.370059 0.581153 0.286192 0.141348
H32   H     H_    0.410351 0.523128 0.282689 0.105661
H33   H     H_    0.028569 0.109259 0.777629 0.142070
H34   H     H_    0.939928 0.029677 0.130048 0.130394
H35   H     H_    0.069908 0.166787 0.775612 0.137975
H36   H     H_    0.120378 0.152998 0.743233 0.133583
H37   H     H_    0.129947 0.081144 0.713818 0.141342
H38   H     H_    0.089651 0.023123 0.717314 0.105660
H39   H     H_    0.971433 0.109259 0.222372 0.142070
H40   H     H_    0.930095 0.166789 0.224390 0.137975
H41   H     H_    0.879626 0.153001 0.256771 0.133583
H42   H     H_    0.870055 0.081148 0.286186 0.141342
H43   H     H_    0.910350 0.023125 0.282688 0.105658
H44   H     H_    0.271165 0.573796 0.137313 0.129517
H45   H     H_    0.952249 0.710820 0.020414 0.176464
H46   H     H_    0.307211 0.581698 0.074428 0.134649
H47   H     H_    0.350156 0.524008 0.076701 0.127056
H48   H     H_    0.356924 0.458061 0.141956 0.139525
H49   H     H_    0.320645 0.449377 0.204311 0.139103
H50   H     H_    0.728835 0.573792 0.862692 0.129517
H51   H     H_    0.692788 0.581690 0.925576 0.134650
H52   H     H_    0.649842 0.523999 0.923298 0.127057
H53   H     H_    0.643075 0.458054 0.858038 0.139525
H54   H     H_    0.679354 0.449373 0.795684 0.139103
H55   H     H_    0.771164 0.073787 0.137302 0.129502
H56   H     H_    0.047751 0.710820 0.979585 0.176464
H57   H     H_    0.807212 0.081683 0.074419 0.134639
H58   H     H_    0.850159 0.023991 0.076702 0.127053
H59   H     H_    0.856926 0.958047 0.141967 0.139507
H60   H     H_    0.820646 0.949369 0.204321 0.139086
H61   H     H_    0.228836 0.073779 0.862707 0.129501
H62   H     H_    0.192787 0.081669 0.925589 0.134639
H63   H     H_    0.149839 0.023975 0.923296 0.127054
H64   H     H_    0.143071 0.958035 0.858023 0.139507
H65   H     H_    0.179353 0.949362 0.795670 0.139087
H66   H     H_    0.177119 0.571071 0.084479 0.131733
H67   H     H_    0.453435 0.210820 0.023362 0.176532
H68   H     H_    0.136346 0.577639 0.947079 0.136020
H69   H     H_    0.138311 0.521442 0.870995 0.130657
H70   H     H_    0.181083 0.458312 0.932613 0.135846
H71   H     H_    0.221755 0.451067 0.069891 0.130885
H72   H     H_    0.822880 0.571068 0.915527 0.131734
H73   H     H_    0.863654 0.577631 0.052928 0.136020
H74   H     H_    0.861688 0.521431 0.129006 0.130657
H75   H     H_    0.818917 0.458302 0.067382 0.135846
H76   H     H_    0.778245 0.451061 0.930104 0.130885
H77   H     H_    0.677119 0.071064 0.084466 0.131728
H78   H     H_    0.546565 0.210820 0.976638 0.176531
H79   H     H_    0.636344 0.077622 0.947064 0.136028
H80   H     H_    0.638311 0.021419 0.870992 0.130674
H81   H     H_    0.681084 0.958291 0.932623 0.135856
H82   H     H_    0.721756 0.951055 0.069902 0.130879
H83   H     H_    0.322881 0.071058 0.915545 0.131728
H84   H     H_    0.363655 0.077608 0.052948 0.136027
H85   H     H_    0.361688 0.021399 0.129011 0.130674
H86   H     H_    0.318915 0.958273 0.067369 0.135857
H87   H     H_    0.278243 0.951044 0.930089 0.130879
H88   H     H_    0.181593 0.496173 0.290780 0.345419
H89   H     H_    0.514647 0.710908 0.918708 0.147859
H90   H     H_    0.818407 0.496178 0.709219 0.345419
H91   H     H_    0.681593 0.996183 0.290781 0.345429
H92   H     H_    0.318407 0.996191 0.709218 0.345429
H93   H     H_    0.448455 0.320875 0.025894 0.346148
H94   H     H_    0.551544 0.320875 0.974106 0.346148
H95   H     H_    0.947141 0.820875 0.022628 0.346249
H96   H     H_    0.052859 0.820875 0.977372 0.346249
O1    O     O_R   0.439010 0.534430 0.439020 -0.616990
O2    O     O_R   0.939020 0.499970 0.990130 -0.610568
O3    O     O_R   0.560980 0.999970 0.009870 -0.610593
O4    O     O_R   0.439020 0.999970 0.990130 -0.610594
O5    O     O_R   0.000010 0.561020 0.051000 -0.616292
O6    O     O_R   0.999990 0.561020 0.949000 -0.616292
O7    O     O_R   0.500010 0.061020 0.051000 -0.616304
O8    O     O_R   0.499990 0.061020 0.949000 -0.616304
O9    O     O_R   0.439010 0.465570 0.438980 -0.614101
O10   O     O_R   0.560990 0.465570 0.561020 -0.614101
O11   O     O_R   0.939010 0.965570 0.438980 -0.614123
O12   O     O_R   0.560990 0.534430 0.560980 -0.616989
O13   O     O_R   0.060990 0.965570 0.561020 -0.614124
O14   O     O_R   0.500010 0.534430 0.590460 -0.596274
O15   O     O_R   0.499990 0.534430 0.409540 -0.596275
O16   O     O_R   0.000010 0.034430 0.590460 -0.596261
O17   O     O_R   0.999990 0.034430 0.409540 -0.596261
O18   O     O_R   0.500010 0.465570 0.590420 -0.626132
O19   O     O_R   0.499990 0.465570 0.409580 -0.626132
O20   O     O_R   0.000010 0.965570 0.590420 -0.626167
O21   O     O_R   0.999990 0.965570 0.409580 -0.626167
O22   O     O_R   0.534430 0.439010 0.034350 -0.609943
O23   O     O_R   0.939010 0.034430 0.439020 -0.616982
O24   O     O_R   0.465570 0.439010 0.965650 -0.609942
O25   O     O_R   0.034430 0.939010 0.034350 -0.609985
O26   O     O_R   0.965570 0.939010 0.965650 -0.609984
O27   O     O_R   0.534420 0.500000 0.943920 -0.635119
O28   O     O_R   0.465580 0.500000 0.056080 -0.635119
O29   O     O_R   0.034420 0.000000 0.943920 -0.635120
O30   O     O_R   0.965580 0.000000 0.056080 -0.635119
O31   O     O_R   0.465560 0.500000 0.875080 -0.618317
O32   O     O_R   0.534440 0.500000 0.124920 -0.618317
O33   O     O_R   0.965560 0.000000 0.875080 -0.618309
O34   O     O_R   0.060990 0.034430 0.560980 -0.616980
O35   O     O_R   0.034440 0.000000 0.124920 -0.618308
O36   O     O_R   0.534430 0.560990 0.034430 -0.612525
O37   O     O_R   0.465570 0.560990 0.965570 -0.612525
O38   O     O_R   0.034430 0.060990 0.034430 -0.612529
O39   O     O_R   0.965570 0.060990 0.965570 -0.612529
O40   O     O_R   0.000000 0.439050 0.051090 -0.605908
O41   O     O_R   0.000000 0.439050 0.948910 -0.605907
O42   O     O_R   0.500000 0.939050 0.051090 -0.605877
O43   O     O_R   0.500000 0.939050 0.948910 -0.605876
O44   O     O_3   0.017358 0.294043 0.910094 -0.756914
O45   O     O_R   0.060990 0.500040 0.112010 -0.616132
O46   O     O_3   0.982642 0.294043 0.089906 -0.756914
O47   O     O_3   0.516427 0.794044 0.908826 -0.756862
O48   O     O_3   0.483574 0.794044 0.091175 -0.756863
O49   O     O_3   0.459583 0.506563 0.742476 -0.759867
O50   O     O_3   0.540417 0.506562 0.257524 -0.759866
O51   O     O_3   0.959583 0.006565 0.742476 -0.759862
O52   O     O_3   0.040417 0.006564 0.257524 -0.759861
O53   O     O_3   0.212222 0.493501 0.324471 -0.757171
O54   O     O_3   0.787778 0.493506 0.675528 -0.757172
O55   O     O_3   0.712222 0.993511 0.324472 -0.757154
O56   O     O_R   0.939010 0.500040 0.887990 -0.616131
O57   O     O_3   0.287779 0.993519 0.675527 -0.757155
O58   O     O_3   0.446354 0.290247 0.026929 -0.757851
O59   O     O_3   0.553646 0.290247 0.973071 -0.757852
O60   O     O_3   0.944988 0.790247 0.023533 -0.757843
O61   O     O_3   0.055012 0.790247 0.976467 -0.757844
O62   O     O_R   0.560990 0.000040 0.112010 -0.616101
O63   O     O_R   0.439010 0.000040 0.887990 -0.616101
O64   O     O_R   0.060980 0.499970 0.009870 -0.610568
Zn1   Zn    Zn3+2 0.500000 0.545980 0.500000 0.995754
Zn2   Zn    Zn3+2 0.999990 0.500050 0.931820 0.989406
Zn3   Zn    Zn3+2 0.500010 0.000050 0.068180 0.989440
Zn4   Zn    Zn3+2 0.499990 0.000050 0.931820 0.989441
Zn5   Zn    Zn3+2 0.000000 0.045980 0.500000 0.995765
Zn6   Zn    Zn3+2 0.500000 0.454020 0.500000 0.973887
Zn7   Zn    Zn3+2 0.000000 0.954020 0.500000 0.973741
Zn8   Zn    Zn3+2 0.545980 0.500000 0.045940 0.972660
Zn9   Zn    Zn3+2 0.454020 0.500000 0.954060 0.972660
Zn10  Zn    Zn3+2 0.045980 0.000000 0.045940 0.972674
Zn11  Zn    Zn3+2 0.954020 0.000000 0.954060 0.972674
Zn12  Zn    Zn3+2 0.000010 0.500050 0.068180 0.989405

loop_
_geom_bond_atom_site_label_1
_geom_bond_atom_site_label_2
_ccdc_geom_bond_type
C28   H24   S    
C131  O20   A    
C130  O15   A    
C142  C146  A    
C132  O17   A    
C55   C56   A    
C170  C176  A    
C154  C158  S    
C126  O36   A    
C51   H43   S    
C73   C74   A    
C127  O34   A    
C24   C171  A    
C10   C131  S    
C133  C188  S    
C176  C179  A    
C13   C160  A    
C25   O57   S    
C172  C175  A    
C25   C171  A    
C143  C151  A    
C59   C60   A    
C183  C189  T    
C86   H72   S    
C133  O40   A    
C20   C106  S    
C45   C47   A    
C164  H23   S    
C129  O14   A    
C90   C117  T    
C168  O44   S    
C24   C110  S    
C54   H46   S    
O38   Zn10  S    
C3    O52   S    
O63   Zn4   S    
H94   O59   S    
C17   C21   A    
C19   C23   A    
C75   C76   A    
C125  O30   A    
C178  C180  A    
C16   C20   A    
C121  C161  S    
C82   H69   S    
C122  O27   A    
C1    O1    A    
O29   Zn10  S    
C74   H62   S    
C52   C58   A    
C67   H57   S    
C105  C112  S    
O18   Zn6   S    
C148  C153  A    
C191  O50   S    
C162  C190  D    
C145  C148  A    
C170  C174  A    
C124  O29   A    
C56   H48   S    
O36   Zn8   S    
C72   C73   A    
O35   Zn10  S    
C42   H36   S    
O23   Zn5   S    
C35   C52   S    
C16   C98   S    
O21   Zn7   S    
C2    C108  S    
C69   C70   A    
C138  C182  A    
C21   O53   S    
C64   H54   S    
C88   C89   A    
H95   O60   S    
C130  O19   A    
C8    C129  S    
C124  O33   A    
C61   H51   S    
C142  H45   S    
C79   C115  T    
C128  C187  S    
C10   H7    S    
C160  H11   S    
C95   H80   S    
C85   C86   A    
C101  C118  T    
C5    C163  S    
C36   C37   A    
C75   H63   S    
C133  O41   A    
C78   C80   A    
C185  C187  T    
C13   C57   A    
C38   H32   S    
C143  H56   S    
C11   H8    S    
C144  C150  A    
O13   Zn7   S    
C47   C48   A    
C27   H22   S    
C132  O21   A    
C89   C91   A    
C110  C114  T    
H90   O54   S    
C30   H26   S    
C66   C67   A    
C77   H65   S    
C96   C97   A    
C144  C147  A    
O10   Zn6   S    
C169  C177  A    
C172  C174  A    
C92   C97   A    
O11   Zn7   S    
C22   O54   S    
C63   H53   S    
C37   H31   S    
O5    Zn12  S    
C140  O5    A    
C141  O8    A    
C121  O26   A    
C145  H78   S    
C5    C9    D    
C29   C30   A    
O12   Zn1   S    
C83   C84   A    
C135  O45   A    
C128  O39   A    
C93   H77   S    
C170  O47   S    
C12   C35   A    
C53   H44   S    
C152  O60   S    
H14   O44   S    
C98   C99   A    
C148  O59   S    
C105  O10   A    
C102  H85   S    
C172  O48   S    
C52   C53   A    
C3    C165  D    
C179  C184  S    
H88   O53   S    
C169  O46   S    
C54   C55   A    
C18   C22   A    
C107  C111  T    
C151  O61   S    
C136  O56   A    
O8    Zn4   S    
C39   C44   A    
C60   H50   S    
O2    Zn12  S    
C136  O2    A    
C115  C135  S    
O62   Zn3   S    
O16   Zn5   S    
C162  H1    S    
O43   Zn4   S    
C56   C58   A    
O25   Zn10  S    
C34   C36   A    
C61   C62   A    
C76   H64   S    
C63   C64   A    
C39   C40   A    
C116  O23   A    
C134  O43   A    
C49   C50   A    
C169  C173  A    
C163  C191  D    
C103  H86   S    
C164  C192  D    
C149  H10   S    
O28   Zn9   S    
C143  C146  A    
C87   C88   A    
C106  C119  T    
C41   C42   A    
O6    Zn2   S    
C11   C132  S    
H20   O51   S    
C14   C46   A    
C9    C130  S    
C15   C19   A    
C26   C27   A    
C100  H84   S    
O27   Zn8   S    
C134  C189  S    
C1    O9    A    
C28   C29   A    
C30   C31   A    
C20   C25   A    
H21   O52   S    
O9    Zn6   S    
C142  C152  A    
C50   H42   S    
C144  H67   S    
C158  C161  T    
C137  O62   A    
C146  C155  S    
O40   Zn12  S    
C116  O11   A    
C150  C153  A    
O64   Zn2   S    
C12   C17   A    
C70   C71   A    
C105  O12   A    
C171  H13   S    
C97   H82   S    
C34   H29   S    
C4    C8    D    
C5    C32   S    
H96   O61   S    
C7    C165  S    
C22   C149  A    
C173  C181  S    
C157  C159  T    
C135  O64   A    
C120  O24   A    
O34   Zn5   S    
C120  O22   A    
C21   C138  A    
C104  H87   S    
C139  O4    A    
C145  C147  A    
C181  C188  T    
C122  C190  S    
C31   H27   S    
C66   H55   S    
C140  C166  S    
O41   Zn2   S    
C163  H12   S    
C141  C167  S    
H19   O50   S    
C107  C182  S    
C18   C90   S    
C126  C186  S    
O37   Zn9   S    
C86   C87   A    
C53   C54   A    
C108  C112  T    
C60   C61   A    
C35   C182  A    
C62   C63   A    
C129  O18   A    
O7    Zn3   S    
C50   C51   A    
C147  C156  S    
C69   H58   S    
C87   H73   S    
H17   O48   S    
C73   H61   S    
C48   C49   A    
C6    C164  S    
C134  O42   A    
C4    C162  S    
C80   H66   S    
C42   C43   A    
C123  C191  S    
C91   H76   S    
C71   H60   S    
C124  C192  S    
O32   Zn8   S    
C81   H68   S    
C99   H83   S    
C123  O32   A    
C57   C65   S    
C174  C183  S    
C6    C10   D    
C4    C26   S    
C43   H37   S    
C192  O51   S    
C62   H52   S    
O15   Zn1   S    
C119  C139  S    
C32   C33   A    
C150  O58   S    
C1    C111  S    
C140  O6    A    
C114  C127  S    
C92   C93   A    
C184  C186  T    
O4    Zn3   S    
O1    Zn1   S    
C153  C157  S    
C94   C95   A    
C24   C68   A    
C82   C83   A    
C139  O63   A    
C103  C104  A    
C6    C39   S    
C23   O55   S    
C89   H75   S    
C117  C136  S    
O33   Zn11  S    
O56   Zn2   S    
C41   H35   S    
O20   Zn7   S    
C93   C94   A    
C177  H4    S    
O39   Zn11  S    
C46   C59   S    
C14   C18   A    
C95   C96   A    
C43   C44   A    
C81   C82   A    
C85   C91   A    
C2    C46   A    
O19   Zn6   S    
C7    C11   D    
C59   C64   A    
C37   C38   A    
C7    C45   S    
O22   Zn8   S    
O17   Zn5   S    
C138  H9    S    
C168  C178  A    
C141  O7    A    
C47   H39   S    
C45   C51   A    
C155  C166  T    
C121  O25   A    
C17   C79   S    
C126  O37   A    
O26   Zn11  S    
C151  C154  A    
C40   H33   S    
C137  O3    A    
C44   H38   S    
C49   H41   S    
C15   C92   S    
C12   C78   S    
C120  C159  S    
C13   C109  S    
C84   H71   S    
H92   O57   S    
C16   C68   A    
C32   C38   A    
C118  C137  S    
C175  H2    S    
C68   C72   S    
C113  C116  S    
C2    C149  A    
C29   H25   S    
C26   C31   A    
C96   H81   S    
C15   C57   A    
C8    H5    S    
C102  C103  A    
H93   O58   S    
C168  C173  A    
C74   C75   A    
C125  O35   A    
C131  O16   A    
C76   C77   A    
C175  C179  A    
O30   Zn11  S    
C156  C167  T    
C65   C71   A    
C67   C69   A    
C58   H49   S    
C176  H89   S    
C72   C77   A    
C99   C100  A    
C177  C180  A    
C23   C160  A    
C100  C102  A    
C33   C34   A    
H91   O55   S    
C40   C41   A    
O14   Zn1   S    
C152  C154  A    
O31   Zn9   S    
O3    Zn4   S    
C36   H30   S    
C123  O28   A    
C9    H6    S    
C33   H28   S    
O45   Zn12  S    
C14   C85   S    
C80   C81   A    
C127  O13   A    
C3    C125  S    
O42   Zn3   S    
C109  C113  T    
H15   O46   S    
C178  H3    S    
H18   O49   S    
C19   C101  S    
C88   H74   S    
C98   C104  A    
C94   H79   S    
C165  H34   S    
C190  O49   S    
C128  O38   A    
O24   Zn9   S    
C180  C185  S    
C48   H40   S    
C78   C84   A    
C122  O31   A    
H16   O47   S    
C65   C66   A    
C27   C28   A    
C83   H70   S    
C55   H47   S    
C70   H59   S    
