data_mof_unit_60410.cif
_audit_creation_date              2012-12-11T14:48:22-0500
_audit_creation_method            fapswitch 2.2
_symmetry_space_group_name_H-M    P1
_symmetry_Int_Tables_number       1
_space_group_crystal_system       triclinic
_cell_length_a                    8.253465
_cell_length_b                    15.066756
_cell_length_c                    22.961463
_cell_angle_alpha                 96.901353
_cell_angle_beta                  89.109674
_cell_angle_gamma                 99.577451
_cell_volume                      2795.09800177

loop_
_atom_site_label
_atom_site_type_symbol
_atom_type_description
_atom_site_fract_x
_atom_site_fract_y
_atom_site_fract_z
_atom_type_partial_charge
Ba1   Ba    Ba6+2 0.857590 0.542650 0.472590 1.694428
Ba2   Ba    Ba6+2 0.332250 0.457420 0.527420 1.670826
C1    C     C_3   0.577115 0.838882 0.288824 -0.293826
C2    C     C_R   0.191270 0.518599 0.929123 -0.024939
C3    C     C_R   0.141721 0.524235 0.870853 0.606544
C4    C     C_3   0.148995 0.735126 0.314944 0.392443
C5    C     C_R   0.870870 0.451097 0.892081 0.591724
C6    C     C_R   0.909184 0.462979 0.952595 -0.016636
C7    C     C_R   0.071908 0.492959 0.970720 -0.046588
C8    C     C_R   0.357477 0.538740 0.947127 -0.043710
C9    C     C_R   0.402233 0.530110 0.004701 -0.062600
C10   C     C_R   0.281533 0.508203 0.047006 -0.031911
C11   C     C_R   0.116012 0.494814 0.030513 -0.053491
C12   C     C_3   0.647817 0.788644 0.333491 0.742818
C13   C     C_R   0.789146 0.441006 0.995303 -0.073418
C14   C     C_R   0.830059 0.453799 0.055053 -0.038511
C15   C     C_R   0.994408 0.480610 0.073376 -0.035521
C16   C     C_3   0.133845 0.760560 0.253325 -0.291836
C17   C     C_R   0.040728 0.493899 0.133376 0.592533
C18   C     C_R   0.321153 0.497205 0.105141 0.677140
C19   C     C_2   0.778673 0.454849 0.767330 -0.085912
C20   C     C_3   0.751495 0.416044 0.703882 -0.064633
C21   C     C_1   0.008800 0.511761 0.684159 0.029363
C22   C     C_2   0.059128 0.505966 0.738740 -0.106981
C23   C     C_3   0.476681 0.327306 0.349305 0.297090
C24   C     C_2   0.935867 0.483065 0.787312 0.158414
C25   C     C_R   0.405631 0.566072 0.233801 0.332669
C26   C     C_R   0.453461 0.567706 0.292859 -0.065698
C27   C     C_R   0.191137 0.479474 0.314199 0.028797
C28   C     C_3   0.232122 0.735982 0.600438 0.329181
C29   C     C_R   0.151989 0.466059 0.253936 -0.148069
C30   C     C_R   0.254547 0.511287 0.212283 0.158828
C31   C     C_2   0.863279 0.469915 0.664183 -0.288897
C32   C     C_R   0.754365 0.234251 0.523100 -0.290623
C33   C     C_R   0.844486 0.174378 0.543877 0.002492
C34   C     C_3   0.470053 0.305200 0.282919 -0.357584
C35   C     C_R   0.782812 0.081056 0.537159 -0.085626
C36   C     C_R   0.631983 0.046127 0.506870 0.025892
C37   C     C_R   0.551171 0.109039 0.482574 -0.109326
C38   C     C_R   0.612242 0.201365 0.490451 0.039328
C39   C     C_R   0.412189 0.912521 0.467465 -0.111772
C40   C     C_3   0.258470 0.838437 0.616880 0.225262
C41   C     C_R   0.350898 0.819886 0.458073 -0.022085
C42   C     C_R   0.582621 0.788314 0.509455 0.091912
C43   C     C_R   0.644731 0.881121 0.519688 -0.009898
C44   C     C_R   0.563269 0.945797 0.497614 0.056595
C45   C     C_3   0.009121 0.260868 0.684759 0.372010
C46   C     C_R   0.438963 0.757902 0.477197 -0.275857
C47   C     C_3   0.960404 0.265130 0.402290 0.280057
C48   C     C_3   0.930807 0.162759 0.386003 -0.342340
C49   C     C_3   0.719110 0.657638 0.647909 0.314644
C50   C     C_3   0.731952 0.682183 0.714057 -0.282088
C51   C     C_3   0.991723 0.230765 0.745857 0.234604
C52   C     C_3   0.473321 0.223397 0.674113 0.278371
C53   C     C_3   0.411573 0.139930 0.704469 -0.259195
C54   C     C_R   0.342629 0.528835 0.332689 -0.349104
Cl1   Cl    Cl    0.781720 0.870668 0.379962 -0.678778
Cl2   Cl    Cl    0.418191 0.873064 0.670210 -0.618430
Cl3   Cl    Cl    0.853328 0.126206 0.744600 -0.617534
Cl4   Cl    Cl    0.529221 0.640193 0.190542 -0.656268
H1    H     H_    0.143108 0.859524 0.634812 0.086909
H2    H     H_    0.762461 0.624653 0.735067 0.041124
H3    H     H_    0.613004 0.698530 0.731775 0.172393
H4    H     H_    0.511457 0.891655 0.311647 0.082629
H5    H     H_    0.354981 0.342120 0.364794 0.015074
H6    H     H_    0.571823 0.388249 0.360311 0.059832
H7    H     H_    0.372264 0.246178 0.270217 0.128527
H8    H     H_    0.442966 0.364218 0.262471 0.067180
H9    H     H_    0.590213 0.289019 0.266369 0.138847
H10   H     H_    0.488410 0.791459 0.259842 0.112869
H11   H     H_    0.165115 0.705650 0.220538 0.101492
H12   H     H_    0.844149 0.287569 0.416504 0.002265
H13   H     H_    0.093493 0.326879 0.687591 0.000270
H14   H     H_    0.886033 0.269460 0.670019 -0.078560
H15   H     H_    0.113219 0.222680 0.762555 0.081522
H16   H     H_    0.942908 0.282942 0.776260 0.025497
H17   H     H_    0.609421 0.231232 0.673332 -0.002102
H18   H     H_    0.426019 0.211675 0.628287 0.076847
H19   H     H_    0.460557 0.080798 0.681660 0.152473
H20   H     H_    0.275585 0.124374 0.703328 0.157732
H21   H     H_    0.057047 0.673554 0.319246 0.091526
H22   H     H_    0.454165 0.151282 0.750821 0.168424
H23   H     H_    0.051417 0.282663 0.438559 0.071848
H24   H     H_    0.734259 0.438551 0.086692 0.179107
H25   H     H_    0.530929 0.544408 0.016766 0.118696
H26   H     H_    0.453752 0.558209 0.916294 0.129661
H27   H     H_    0.185323 0.499109 0.744141 0.174711
H28   H     H_    0.671394 0.451749 0.794844 0.161164
H29   H     H_    0.041241 0.419740 0.240040 0.137811
H30   H     H_    0.377596 0.533752 0.378325 0.088476
H31   H     H_    0.274132 0.719560 0.320641 -0.127807
H32   H     H_    0.840371 0.454033 0.617374 0.080505
H33   H     H_    0.335297 0.956160 0.452422 0.079208
H34   H     H_    0.832681 0.143012 0.352115 0.138886
H35   H     H_    0.754741 0.900553 0.545895 0.073923
H36   H     H_    0.443414 0.088968 0.455397 0.073448
H37   H     H_    0.389482 0.686252 0.470632 0.060549
H38   H     H_    0.802095 0.306144 0.528050 0.063123
H39   H     H_    0.006365 0.770423 0.245036 0.177481
H40   H     H_    0.218274 0.824526 0.248001 0.110531
H41   H     H_    0.350382 0.714533 0.587389 -0.006467
H42   H     H_    0.144567 0.718437 0.563020 -0.011076
H43   H     H_    0.292864 0.873225 0.577630 -0.037353
H44   H     H_    0.045572 0.140318 0.368567 0.138622
H45   H     H_    0.892805 0.127835 0.424907 0.082645
H46   H     H_    0.545805 0.758411 0.360793 -0.124695
H47   H     H_    0.662451 0.415785 0.982714 0.124946
H48   H     H_    0.857390 0.037899 0.554293 0.090221
H49   H     H_    0.838433 0.641988 0.631051 -0.014466
H50   H     H_    0.622218 0.597289 0.638120 0.069546
H51   H     H_    0.676684 0.871555 0.261525 0.152992
H52   H     H_    0.829894 0.741808 0.724943 0.146303
N1    N     N_R   0.982124 0.487677 0.850675 -0.419261
N2    N     N_R   0.205138 0.501291 0.149802 -0.421789
O1    O     O_2   0.888680 0.450300 0.360330 -0.461153
O2    O     O_2   0.184713 0.178144 0.539253 -0.482892
O3    O     O_3   0.074075 0.196270 0.646175 -0.578713
O4    O     O_3   0.129270 0.451230 0.431380 -0.495691
O5    O     O_3   0.578310 0.608920 0.529980 -0.500411
O6    O     O_2   0.337770 0.279070 0.470480 -0.461662
O7    O     O_3   0.515421 0.252725 0.374189 -0.637279
O8    O     O_2   0.450524 0.476020 0.706464 -0.481104
O9    O     O_3   0.418810 0.299816 0.704559 -0.587651
O10   O     O_2   0.241845 0.562867 0.838885 -0.583167
O11   O     O_2   0.739705 0.404747 0.876899 -0.597268
O12   O     O_3   0.680015 0.731741 0.623086 -0.589077
O13   O     O_2   0.934441 0.500068 0.170509 -0.545632
O14   O     O_2   0.457128 0.481016 0.115364 -0.556665
O15   O     O_3   0.676100 0.614850 0.396630 -0.480544
O16   O     O_2   0.788071 0.556817 0.292972 -0.427246
O17   O     O_3   0.017766 0.305502 0.352677 -0.632371
O18   O     O_3   0.739625 0.725475 0.304409 -0.563836
O19   O     O_2   0.851930 0.720960 0.529560 -0.470651
O20   O     O_3   0.095720 0.661380 0.425720 -0.501293
O21   O     O_2   0.017216 0.822120 0.464715 -0.424526
O22   O     O_3   0.119865 0.807475 0.356196 -0.543086
O23   O     O_2   0.301020 0.549730 0.639710 -0.450549
O24   O     O_3   0.060450 0.548840 0.568630 -0.505277
O25   O     O_3   0.513610 0.385220 0.603380 -0.479333
O26   O     O_3   0.169671 0.694237 0.649117 -0.603535
O27   O     O_3   0.611400 0.391150 0.470030 -0.482879
O28   O     O_3   0.093990 0.338690 0.574280 -0.493564
P1    P     P_3+3 0.054670 0.423610 0.368990 0.993099
P2    P     P_3+3 0.674060 0.707690 0.546600 1.019562
P3    P     P_3+3 0.145955 0.778563 0.426688 1.017718
P4    P     P_3+3 0.135040 0.576460 0.631020 1.014102
P5    P     P_3+3 0.050029 0.220790 0.574632 0.973976
P6    P     P_3+3 0.663136 0.615394 0.320765 1.054775
P7    P     P_3+3 0.520363 0.278519 0.450593 0.953249
P8    P     P_3+3 0.533539 0.396282 0.679669 0.962038

loop_
_geom_bond_atom_site_label_1
_geom_bond_atom_site_label_2
_ccdc_geom_bond_type
C52   O9    S    
C20   P8    S    
C48   H44   S    
C19   C24   D    
C40   H43   S    
C40   Cl2   S    
Ba2   O4    S    
C34   H7    S    
O27   P7    S    
C5    C6    A    
O20   P3    S    
C12   O18   S    
C43   C44   A    
C42   C43   A    
C46   H37   S    
C47   O17   S    
C3    O10   D    
O6    P7    D    
C32   C38   A    
Ba2   O25   S    
O8    P8    D    
C33   C35   A    
C22   C24   S    
C18   O14   D    
Ba1   O15   S    
C25   Cl4   S    
C36   C37   A    
C32   C33   A    
C50   H52   S    
C13   C14   A    
C27   P1    S    
C14   H24   S    
Ba1   Ba2   S    
Ba1   O5    S    
C13   H47   S    
C12   Cl1   S    
C7    C11   A    
O15   P6    S    
C4    O22   S    
C15   C17   A    
C39   H33   S    
C1    H51   S    
C14   C15   A    
C29   H29   S    
C47   H12   S    
C48   H45   S    
C39   C44   A    
C41   C46   A    
O22   P3    S    
C42   P2    S    
C45   C51   S    
C52   H17   S    
C54   H30   S    
O9    P8    S    
C49   H49   S    
C4    H21   S    
C19   C20   S    
O5    P2    S    
C39   C41   A    
C10   C18   A    
C51   H15   S    
C16   H40   S    
Ba1   O19   S    
C51   Cl3   S    
C4    C16   S    
C21   P4    S    
O1    P1    D    
C26   P6    S    
C28   O26   S    
O16   P6    D    
C49   C50   S    
Ba2   O24   S    
O23   P4    D    
C1    H10   S    
C23   H5    S    
C45   H13   S    
C35   H48   S    
C21   C31   D    
O4    P1    S    
C31   H32   S    
O26   P4    S    
C37   C38   A    
Ba2   O6    S    
C6    C7    A    
C17   N2    Am   
O21   P3    D    
C1    H4    S    
O18   P6    S    
C35   C36   A    
Ba1   P1    S    
C53   H19   S    
C29   C30   A    
C45   O3    S    
C21   C22   D    
C28   H42   S    
C33   P5    S    
C5    O11   D    
C53   H22   S    
C40   H1    S    
C1    C12   S    
C6    C13   A    
Ba2   O28   S    
C51   H16   S    
Ba2   P4    S    
C16   H39   S    
C2    C8    A    
Ba1   O20   S    
C43   H35   S    
O17   P1    S    
C34   H9    S    
C9    H25   S    
C16   H11   S    
C20   C31   S    
C52   C53   S    
C8    H26   S    
O19   P2    D    
C3    N1    Am   
C25   C30   A    
Ba2   O23   S    
O28   P5    S    
C48   H34   S    
C23   H6    S    
C45   H14   S    
C2    C3    A    
C49   O12   S    
C50   H3    S    
O2    P5    D    
Ba2   O5    S    
C34   H8    S    
C27   C54   A    
C49   H50   S    
C17   O13   D    
O25   P8    S    
C11   C15   A    
O3    P5    S    
C41   P3    S    
C47   H23   S    
C24   N1    S    
C27   C29   A    
Ba1   P2    S    
C50   H2    S    
C36   C44   S    
C18   N2    Am   
C53   H20   S    
C5    N1    Am   
O24   P4    S    
C28   H41   S    
O12   P2    S    
C32   H38   S    
O7    P7    S    
C38   P7    S    
Ba1   O4    S    
C22   H27   S    
C37   H36   S    
C19   H28   S    
Ba1   O27   S    
C8    C9    A    
Ba1   O24   S    
C23   C34   S    
C42   C46   A    
C12   H46   S    
C10   C11   A    
C47   C48   S    
C25   C26   A    
Ba2   O27   S    
C28   C40   S    
Ba1   O1    S    
C30   N2    S    
C2    C7    A    
C23   O7    S    
C26   C54   A    
C4    H31   S    
C9    C10   A    
C52   H18   S    
