data_mof_unit_21413.cif
_audit_creation_date              2012-12-11T15:47:00-0500
_audit_creation_method            fapswitch 2.2
_symmetry_space_group_name_H-M    P1
_symmetry_Int_Tables_number       1
_space_group_crystal_system       triclinic
_cell_length_a                    20.222248
_cell_length_b                    7.256867
_cell_length_c                    13.488411
_cell_angle_alpha                 90.075583
_cell_angle_beta                  102.940872
_cell_angle_gamma                 89.942201
_cell_volume                      1929.15024579

loop_
_atom_site_label
_atom_site_type_symbol
_atom_type_description
_atom_site_fract_x
_atom_site_fract_y
_atom_site_fract_z
_atom_type_partial_charge
O1    O     O_R   0.449560 0.506810 0.599700 -0.532794
O2    O     O_R   0.550440 0.006810 0.400300 -0.533568
O3    O     O_R   0.587960 0.180060 0.595760 -0.544635
O4    O     O_R   0.412040 0.680060 0.404240 -0.544088
C1    C     C_R   0.614696 0.344015 0.617450 0.694902
C2    C     C_R   0.385314 0.844029 0.382536 0.696584
O5    O     O_R   0.452380 0.177430 0.611700 -0.539547
O6    O     O_R   0.547620 0.677430 0.388300 -0.539809
O7    O     O_R   0.413900 0.001890 0.416350 -0.541606
O8    O     O_R   0.586100 0.501890 0.583650 -0.541358
C3    C     C_R   0.436270 0.345945 0.637713 0.686037
C4    C     C_R   0.563705 0.845660 0.362252 0.684399
O9    O     O_3   0.487530 0.337490 0.435890 -0.379412
O10   O     O_3   0.512470 0.837490 0.564110 -0.379182
V1    V     V_3+5 0.502310 0.064660 0.511890 1.417988
V2    V     V_3+5 0.497690 0.564660 0.488110 1.419221
C5    C     C_R   0.611314 0.895771 0.110182 -0.162492
C6    C     C_R   0.388287 0.408668 0.888803 -0.162518
H1    H     H_    0.517564 0.890195 0.159569 0.104593
H2    H     H_    0.482057 0.403133 0.839479 0.105142
H3    H     H_    0.695272 0.922748 0.985562 0.119612
H4    H     H_    0.304132 0.441414 0.012843 0.118802
H5    H     H_    0.585839 0.915922 0.031249 0.114573
H6    H     H_    0.413596 0.434721 0.967269 0.114508
C7    C     C_R   0.603920 0.854786 0.284890 -0.027920
C8    C     C_R   0.396031 0.356272 0.715037 -0.029758
C9    C     C_R   0.932010 0.830307 0.320567 0.417890
C10   C     C_R   0.068151 0.320638 0.679992 0.443012
C11   C     C_R   0.894944 0.815100 0.395682 -0.143622
C12   C     C_R   0.105274 0.303980 0.604994 -0.118767
C13   C     C_R   0.824532 0.825503 0.371402 -0.231820
C14   C     C_R   0.175583 0.318480 0.628968 -0.211695
C15   C     C_R   0.788092 0.851416 0.269969 0.077748
C16   C     C_R   0.211848 0.350563 0.729936 0.073142
C17   C     C_R   0.825643 0.868452 0.192688 0.008465
C18   C     C_R   0.174173 0.371132 0.806894 0.006058
C19   C     C_R   0.715610 0.860055 0.242710 0.092212
C20   C     C_R   0.284279 0.361984 0.757057 0.094301
C21   C     C_R   0.682416 0.886098 0.139012 0.138579
C22   C     C_R   0.317267 0.395396 0.860186 0.138758
C23   C     C_R   0.720255 0.902771 0.064753 -0.200441
C24   C     C_R   0.279302 0.415913 0.934079 -0.200486
C25   C     C_R   0.790569 0.893985 0.090902 -0.172205
C26   C     C_R   0.209062 0.403693 0.908136 -0.167892
C27   C     C_R   0.674633 0.844118 0.314711 -0.207886
C28   C     C_R   0.325402 0.341707 0.685472 -0.202766
C29   C     C_R   0.572329 0.880783 0.182820 -0.175174
C30   C     C_R   0.427386 0.390164 0.816487 -0.174951
C31   C     C_R   0.897634 0.858072 0.218424 -0.205492
C32   C     C_R   0.102281 0.356426 0.781490 -0.215586
H7    H     H_    0.695713 0.825012 0.394738 0.102890
H8    H     H_    0.304476 0.316691 0.605896 0.105024
H9    H     H_    0.800312 0.811920 0.434342 0.167540
H10   H     H_    0.199876 0.302976 0.566189 0.170649
H11   H     H_    0.920539 0.794069 0.474353 0.206673
H12   H     H_    0.079811 0.278067 0.526705 0.215607
H13   H     H_    0.817192 0.907269 0.030048 0.121254
H14   H     H_    0.182349 0.419838 0.968727 0.120336
C33   C     C_R   0.210403 0.017088 0.252327 0.013949
C34   C     C_R   0.789864 0.516111 0.747032 0.009298
C35   C     C_R   0.275697 0.006190 0.314994 -0.198733
C36   C     C_R   0.724512 0.505456 0.684500 -0.204071
H15   H     H_    0.294928 0.121441 0.364361 0.128202
H16   H     H_    0.705412 0.620228 0.634788 0.128030
C37   C     C_R   0.316454 0.850593 0.315029 -0.053922
C38   C     C_R   0.683589 0.350525 0.684912 -0.055290
C39   C     C_R   0.290564 0.701852 0.251425 -0.152100
C40   C     C_R   0.709389 0.202228 0.748807 -0.154958
H17   H     H_    0.321040 0.579739 0.249211 0.121172
H18   H     H_    0.678815 0.080586 0.751290 0.121914
C41   C     C_R   0.225451 0.709889 0.188315 -0.134132
C42   C     C_R   0.774533 0.210131 0.811857 -0.133719
H19   H     H_    0.208330 0.594976 0.138135 0.155407
H20   H     H_    0.791607 0.095516 0.862222 0.155662
C43   C     C_R   0.183679 0.865340 0.187523 -0.075946
C44   C     C_R   0.816413 0.365048 0.812292 -0.079754
O11   O     O_R   0.913920 0.203370 0.916260 -0.526725
O12   O     O_R   0.086080 0.703370 0.083740 -0.528449
O13   O     O_R   0.047620 0.535540 0.888290 -0.539203
O14   O     O_R   0.952380 0.035540 0.111710 -0.538440
C45   C     C_R   0.063350 0.367793 0.861489 0.781489
C46   C     C_R   0.936586 0.868129 0.138441 0.776280
O15   O     O_R   0.912040 0.532780 0.904220 -0.531987
O16   O     O_R   0.087960 0.032780 0.095780 -0.530822
O17   O     O_R   0.949550 0.708160 0.099720 -0.531563
O18   O     O_R   0.050450 0.208160 0.900280 -0.530125
C47   C     C_R   0.885646 0.366120 0.881818 0.727725
C48   C     C_R   0.114393 0.866175 0.118108 0.727313
O19   O     O_3   0.012480 0.375300 0.064060 -0.363625
O20   O     O_3   0.987520 0.875300 0.935940 -0.362549
V3    V     V_3+5 0.997690 0.648180 0.988110 1.617861
V4    V     V_3+5 0.002310 0.148180 0.011890 1.621337
S1    S     S_3+6 0.021506 0.814134 0.356637 0.014567
O21   O     O_2   0.044683 0.650655 0.304928 -0.324943
O22   O     O_2   0.052086 0.985296 0.323405 -0.347479
O23   O     O_3   0.048344 0.789466 0.483335 -0.475029
H21   H     H_    0.043592 0.913333 0.511932 0.356511
S2    S     S_3+6 0.978935 0.295533 0.644514 -0.022864
O24   O     O_2   0.958014 0.134457 0.700325 -0.360376
O25   O     O_2   0.946393 0.467620 0.673141 -0.337153
O26   O     O_3   0.953089 0.260290 0.518439 -0.503108
H22   H     H_    0.903707 0.236727 0.506892 0.364044
C49   C     C_2   0.173688 0.190944 0.260194 0.819330
O27   O     O_2   0.159524 0.295552 0.187659 -0.568996
O28   O     O_R   0.161531 0.243487 0.354233 -0.641556
H23   H     H_    0.138528 0.368077 0.351693 0.341579
C50   C     C_2   0.827004 0.688602 0.738312 0.817802
O29   O     O_2   0.840839 0.795442 0.810004 -0.567291
O30   O     O_R   0.840047 0.737198 0.644313 -0.644282
H24   H     H_    0.863190 0.861340 0.646094 0.330695

loop_
_geom_bond_atom_site_label_1
_geom_bond_atom_site_label_2
_ccdc_geom_bond_type
O15   C47   A    
O11   V4    S    
O4    V2    S    
S1    O21   D    
C7    C27   A    
C9    C11   A    
C50   O30   S    
C38   C40   A    
O1    C3    A    
C42   C44   A    
O2    C4    A    
C2    O7    A    
O17   V3    S    
C18   C32   A    
C21   C23   A    
O5    C3    A    
C5    H5    S    
C6    H6    S    
H1    C29   S    
C27   H7    S    
O12   C48   A    
C28   H8    S    
C34   C36   A    
C5    C21   A    
C35   H15   S    
C6    C22   A    
C36   H16   S    
C10   C32   A    
C2    C37   S    
C26   H14   S    
C37   C39   A    
C17   C31   A    
C50   O29   D    
C13   C15   A    
C12   C14   A    
C17   C25   A    
C7    C29   A    
O13   V3    S    
C45   O18   A    
C8    C30   A    
C22   C24   A    
S1    O22   D    
C11   C13   A    
C23   C25   A    
C24   C26   A    
C14   H10   S    
C41   C43   A    
C33   C35   A    
C36   C38   A    
O26   H22   S    
C5    C29   A    
C42   H20   S    
O13   C45   A    
C25   H13   S    
C11   H11   S    
C3    C8    S    
C12   H12   S    
C34   C44   A    
C15   C19   A    
C40   C42   A    
C39   H17   S    
C14   C16   A    
C31   C46   S    
O14   V4    S    
O6    C4    A    
O23   H21   S    
C49   O28   S    
O1    V2    S    
C13   H9    S    
O19   V4    S    
O2    V1    S    
C44   C47   S    
O11   C47   A    
H2    C30   S    
C34   C50   S    
H3    C23   S    
O4    C2    A    
S1    O23   S    
S2    O25   D    
C9    S1    S    
C19   C27   A    
C46   O17   A    
C33   C43   A    
O3    V1    S    
C41   H19   S    
C10   S2    S    
C16   C20   A    
O16   C48   A    
C1    C38   S    
O3    C1    A    
C6    C30   A    
O12   V3    S    
S2    O26   S    
O15   V3    S    
O28   H23   S    
C4    C7    S    
C33   C49   S    
C10   C12   A    
O7    V1    S    
C1    O8    A    
C19   C21   A    
O8    V2    S    
O30   H24   S    
C20   C22   A    
O20   V3    S    
H4    C24   S    
O5    V1    S    
C15   C17   A    
O14   C46   A    
C39   C41   A    
C20   C28   A    
C18   C26   A    
C8    C28   A    
C35   C37   A    
C43   C48   S    
C16   C18   A    
O6    V2    S    
S2    O24   D    
O9    V2    S    
C49   O27   D    
C40   H18   S    
O10   V1    S    
O18   V4    S    
O16   V4    S    
C9    C31   A    
C32   C45   S    
