data_mof_unit_35997.cif
_audit_creation_date              2012-10-26T21:21:05-0400
_audit_creation_method            fapswitch 2.2
_symmetry_space_group_name_H-M    P1
_symmetry_Int_Tables_number       1
_space_group_crystal_system       triclinic
_cell_length_a                    10.865758
_cell_length_b                    10.901952
_cell_length_c                    9.6616
_cell_angle_alpha                 89.101918
_cell_angle_beta                  88.783837
_cell_angle_gamma                 91.859377
_cell_volume                      1143.47992418

loop_
_atom_site_label
_atom_site_type_symbol
_atom_type_description
_atom_site_fract_x
_atom_site_fract_y
_atom_site_fract_z
_atom_type_partial_charge
C1    C     C_R   0.512881 0.266173 0.501785 0.561472
C2    C     C_2   0.547403 0.137373 0.511683 -0.000191
C3    C     C_2   0.419169 0.438769 0.924959 -0.041205
C4    C     C_R   0.261609 0.498066 0.502837 0.555249
C5    C     C_2   0.430151 0.424077 0.081327 0.368799
C6    C     C_R   0.496379 0.734690 0.498791 0.539870
C7    C     C_R   0.737768 0.505010 0.497902 0.529872
C8    C     C_R   0.107325 0.573425 0.754606 -0.102505
C9    C     C_R   0.041876 0.640839 0.850870 -0.136298
C10   C     C_R   0.932373 0.692928 0.814076 -0.092213
C11   C     C_R   0.881710 0.668396 0.684966 0.055117
C12   C     C_R   0.058678 0.547817 0.622416 -0.005358
C13   C     C_R   0.935334 0.577853 0.599879 -0.003726
C14   C     C_3   0.591419 0.090894 0.652537 -0.274616
C15   C     C_3   0.708510 0.159731 0.698146 -0.436961
C16   C     C_3   0.352525 0.221870 0.086655 -0.008115
C17   C     C_3   0.223243 0.193650 0.033196 -0.275576
C18   C     C_3   0.220785 0.080758 0.941756 -0.481811
C19   C     C_3   0.792276 0.759497 0.629014 -0.255872
C20   C     C_3   0.857992 0.883781 0.601672 -0.467412
C21   C     C_3   0.832189 0.294187 0.293364 0.038048
C22   C     C_3   0.917912 0.201513 0.228978 -0.284583
C23   C     C_R   0.126681 0.497043 0.509963 -0.062609
C24   C     C_3   0.856376 0.073974 0.223742 -0.491147
C25   C     C_R   0.064882 0.455555 0.393083 -0.134642
C26   C     C_R   0.937834 0.458279 0.387285 0.230051
C27   C     C_R   0.871875 0.518041 0.492312 -0.009972
C28   C     C_2   0.550356 0.934418 0.398580 -0.179116
C29   C     C_2   0.488624 0.866648 0.495418 -0.125518
C30   C     C_2   0.545345 0.068529 0.397051 -0.163982
Cu1   Cu    Cu3+1 0.500020 0.500020 0.638630 0.896395
Cu2   Cu    Cu3+1 0.499980 0.499980 0.361370 0.992075
H1    H     H_    0.115035 0.417070 0.306721 0.170714
H2    H     H_    0.534978 0.111680 0.296460 0.123715
H3    H     H_    0.781651 0.156297 0.616575 0.131581
H4    H     H_    0.691333 0.256884 0.721724 0.195915
H5    H     H_    0.742646 0.115703 0.793778 0.123707
H6    H     H_    0.517181 0.101393 0.731966 0.140733
H7    H     H_    0.614400 0.993151 0.653440 0.149837
H8    H     H_    0.371498 0.150153 0.165094 0.146373
H9    H     H_    0.424153 0.212390 0.003284 0.105084
H10   H     H_    0.160103 0.176069 0.123284 0.157789
H11   H     H_    0.189066 0.273073 0.973780 0.158543
H12   H     H_    0.343502 0.392007 0.874690 0.136549
H13   H     H_    0.253155 0.999678 0.999957 0.148106
H14   H     H_    0.280565 0.097416 0.848182 0.147564
H15   H     H_    0.125120 0.060866 0.908349 0.145491
H16   H     H_    0.882347 0.928255 0.700465 0.145394
H17   H     H_    0.796856 0.944247 0.543718 0.142646
H18   H     H_    0.942976 0.872704 0.537652 0.161184
H19   H     H_    0.754111 0.731437 0.528842 0.154256
H20   H     H_    0.714673 0.769805 0.704179 0.156077
H21   H     H_    0.741972 0.287395 0.241449 0.175152
H22   H     H_    0.813700 0.270206 0.404703 0.105924
H23   H     H_    0.576501 0.534377 0.891848 0.203720
H24   H     H_    0.944321 0.232058 0.121807 0.176823
H25   H     H_    0.002195 0.196850 0.291678 0.148808
H26   H     H_    0.827372 0.042179 0.329280 0.152623
H27   H     H_    0.922423 0.008358 0.180271 0.147619
H28   H     H_    0.774433 0.075445 0.156960 0.140281
H29   H     H_    0.544035 0.570852 0.102428 0.164466
H30   H     H_    0.192394 0.539124 0.790734 0.152316
H31   H     H_    0.080295 0.659245 0.951241 0.120636
H32   H     H_    0.890172 0.757414 0.883256 0.103919
H33   H     H_    0.599400 0.891010 0.314312 0.139419
H34   H     H_    0.434740 0.908898 0.576636 0.104653
N1    N     N_2   0.498640 0.498660 0.846910 -0.382177
N2    N     N_2   0.498610 0.498630 0.153040 -0.317694
O1    O     O_R   0.500020 0.321960 0.617040 -0.501852
O2    O     O_3   0.880892 0.414979 0.269911 -0.556053
O3    O     O_R   0.499980 0.321920 0.382900 -0.469014
O4    O     O_R   0.319670 0.500020 0.617100 -0.513961
O5    O     O_R   0.319630 0.499980 0.382950 -0.452970
O6    O     O_R   0.500020 0.678080 0.617100 -0.503443
O7    O     O_R   0.499980 0.678040 0.382960 -0.501055
O8    O     O_R   0.680370 0.500020 0.617050 -0.516318
O9    O     O_R   0.680330 0.499980 0.382900 -0.469445
O10   O     O_3   0.356274 0.336913 0.153421 -0.527155

loop_
_geom_bond_atom_site_label_1
_geom_bond_atom_site_label_2
_ccdc_geom_bond_type
C19   C20   S    
C18   H15   S    
C22   H25   S    
C6    O7    A    
Cu1   N1    S    
C12   C23   A    
C11   C19   S    
C26   C27   A    
C1    O3    A    
C28   C29   D    
C21   H22   S    
C7    C27   S    
C1    C2    S    
C17   H10   S    
C15   H5    S    
C20   H18   S    
Cu2   O9    S    
C19   H20   S    
C8    C9    A    
C9    C10   A    
C24   H28   S    
C7    O9    A    
C14   H7    S    
C21   C22   S    
Cu2   O7    S    
C5    N2    D    
C18   H14   S    
C15   H3    S    
C6    O6    A    
Cu2   O3    S    
C10   H32   S    
C3    H12   S    
C30   H2    S    
Cu2   O5    S    
C4    C23   S    
C16   C17   S    
Cu1   O6    S    
C22   H24   S    
C25   C26   A    
C1    O1    A    
C17   H11   S    
C20   H17   S    
C14   H6    S    
Cu1   Cu2   S    
C8    C12   A    
C17   C18   S    
C4    O5    A    
C20   H16   S    
C16   H8    S    
Cu1   O4    S    
C26   O2    S    
C22   C24   S    
C18   H13   S    
C15   H4    S    
C4    O4    A    
C9    H31   S    
C3    N1    D    
C3    C5    S    
H23   N1    S    
C7    O8    A    
Cu2   N2    S    
C21   O2    S    
C2    C30   D    
C28   C30   S    
C28   H33   S    
C21   H21   S    
C11   C13   A    
H29   N2    S    
Cu1   O8    S    
C24   H27   S    
C16   O10   S    
C23   C25   A    
C2    C14   S    
C10   C11   A    
C29   H34   S    
C19   H19   S    
Cu1   O1    S    
C6    C29   S    
C12   C13   A    
C24   H26   S    
C8    H30   S    
C14   C15   S    
C13   C27   A    
C5    O10   S    
C16   H9    S    
C25   H1    S    
