data_mof_unit_27149.cif
_audit_creation_date              2012-12-11T17:45:29-0500
_audit_creation_method            fapswitch 2.2
_symmetry_space_group_name_H-M    P1
_symmetry_Int_Tables_number       1
_space_group_crystal_system       triclinic
_cell_length_a                    15.011269
_cell_length_b                    14.926382
_cell_length_c                    14.962835
_cell_angle_alpha                 110.010518
_cell_angle_beta                  109.218879
_cell_angle_gamma                 109.338066
_cell_volume                      2575.83933589

loop_
_atom_site_label
_atom_site_type_symbol
_atom_type_description
_atom_site_fract_x
_atom_site_fract_y
_atom_site_fract_z
_atom_type_partial_charge
C1    C     C_R   0.977027 0.252993 0.066576 -0.122805
C2    C     C_R   0.702150 0.194974 0.791427 -0.164841
C3    C     C_R   0.778971 0.593344 0.025232 -0.139336
C4    C     C_R   0.315231 0.759931 0.225915 -0.057910
C5    C     C_R   0.941639 0.409559 0.684274 -0.131160
C6    C     C_R   0.676398 0.502397 0.949301 -0.003427
C7    C     C_R   0.960079 0.503987 0.675732 0.052769
C8    C     C_R   0.703175 0.127014 0.701079 0.079536
C9    C     C_R   0.061810 0.869279 0.070676 0.069898
C10   C     C_R   0.605924 0.162834 0.091773 -0.125699
C11   C     C_R   0.671983 0.270502 0.181902 -0.176849
C12   C     C_R   0.325124 0.784943 0.329186 0.097000
C13   C     C_R   0.753707 0.292685 0.279699 0.120874
C14   C     C_R   0.765664 0.205076 0.286312 -0.168238
C15   C     C_R   0.697189 0.097763 0.197467 -0.113017
C16   C     C_R   0.211094 0.410085 0.905398 -0.136204
C17   C     C_R   0.618195 0.076684 0.099718 -0.095339
C18   C     C_R   0.837480 0.415240 0.477546 -0.240547
C19   C     C_R   0.922614 0.510588 0.575795 0.071085
C20   C     C_R   0.978127 0.606591 0.573717 0.042066
C21   C     C_R   0.946208 0.602731 0.474273 -0.226563
C22   C     C_R   0.888370 0.500680 0.377438 0.053434
C23   C     C_R   0.304010 0.502818 0.937987 -0.011669
C24   C     C_R   0.824842 0.405313 0.377146 0.034534
C25   C     C_R   0.105609 0.798754 0.733846 -0.238069
C26   C     C_R   0.210023 0.881269 0.821029 -0.175271
C27   C     C_R   0.299649 0.867709 0.831412 0.022869
C28   C     C_R   0.987606 0.589919 0.294873 -0.141613
C29   C     C_R   0.285182 0.770187 0.755981 -0.077568
C30   C     C_R   0.180571 0.684033 0.672389 0.009858
C31   C     C_R   0.089459 0.697557 0.661848 0.059672
C32   C     C_R   0.263817 0.040042 0.515908 -0.126886
C33   C     C_R   0.343648 0.011676 0.516356 -0.138668
C34   C     C_R   0.923226 0.498178 0.295335 0.067683
C35   C     C_R   0.347517 0.929991 0.541267 0.154835
C36   C     C_R   0.271580 0.878709 0.567939 -0.043929
C37   C     C_R   0.191381 0.906966 0.566744 -0.157370
C38   C     C_R   0.186977 0.986859 0.539916 -0.151202
C39   C     C_R   0.531887 0.960488 0.632967 -0.079269
C40   C     C_R   0.301319 0.593111 0.999764 -0.086146
C41   C     C_R   0.624313 0.006516 0.624355 -0.059063
C42   C     C_R   0.624186 0.942587 0.529012 -0.063131
C43   C     C_R   0.524682 0.850282 0.438366 -0.082037
C44   C     C_R   0.426727 0.842284 0.435698 0.018103
C45   C     C_R   0.686449 0.409346 0.931265 -0.143194
C46   C     C_R   0.430915 0.899043 0.536794 -0.035772
C47   C     C_R   0.743023 0.011621 0.456891 -0.222807
C48   C     C_R   0.846886 0.059054 0.469435 -0.108897
C49   C     C_R   0.932745 0.061208 0.546199 -0.113971
C50   C     C_R   0.914260 0.013399 0.608501 -0.137001
C51   C     C_R   0.811625 0.969074 0.599029 -0.137384
C52   C     C_R   0.902752 0.407967 0.206615 -0.139091
C53   C     C_R   0.726150 0.970368 0.524979 0.120653
C54   C     C_3   0.476918 0.420784 0.821258 -0.402915
C55   C     C_3   0.372018 0.415730 0.820094 -0.415703
C56   C     C_R   0.027508 0.593442 0.780429 -0.118617
C57   C     C_3   0.554170 0.475009 0.022254 -0.409524
C58   C     C_3   0.589480 0.619670 0.967890 -0.507614
C59   C     C_3   0.575861 0.504125 0.938632 0.397966
C60   C     C_3   0.401106 0.505026 0.933550 0.284050
C61   C     C_3   0.454274 0.479419 0.022016 -0.393803
C62   C     C_3   0.486475 0.621042 0.964110 -0.140512
C63   C     C_R   0.212409 0.111421 0.832460 -0.253697
C64   C     C_R   0.220494 0.747542 0.313792 -0.130050
C65   C     C_R   0.158581 0.102751 0.892096 -0.192844
C66   C     C_R   0.218179 0.157065 0.007236 0.116191
C67   C     C_R   0.793863 0.194306 0.701918 -0.129231
C68   C     C_R   0.332087 0.215445 0.061343 -0.172765
C69   C     C_R   0.385692 0.217895 0.001172 -0.167787
C70   C     C_R   0.326292 0.165608 0.886362 0.067741
C71   C     C_R   0.166540 0.041590 0.080963 -0.236845
C72   C     C_R   0.096249 0.987036 0.110104 0.060247
C73   C     C_R   0.050720 0.042757 0.160876 0.016726
C74   C     C_R   0.064729 0.141020 0.164750 -0.233400
C75   C     C_R   0.103605 0.173235 0.101427 0.065613
C76   C     C_R   0.073295 0.259779 0.980346 -0.136798
C77   C     C_R   0.164511 0.128619 0.067565 0.031499
C78   C     C_R   0.000873 0.802335 0.096756 -0.147594
C79   C     C_R   0.859698 0.946839 0.119074 -0.131614
C80   C     C_R   0.782886 0.896104 0.144065 -0.182051
C81   C     C_R   0.816543 0.889630 0.239371 -0.114828
C82   C     C_R   0.927596 0.938522 0.312267 -0.109212
C83   C     C_R   0.005186 0.995596 0.291073 -0.190795
C84   C     C_R   0.971192 0.994513 0.191295 0.118698
C85   C     C_R   0.057859 0.231191 0.055184 0.062904
C86   C     C_1   0.168457 0.583195 0.597391 0.032682
C87   C     C_2   0.543764 0.971292 0.739309 0.526291
C88   C     C_2   0.524741 0.764542 0.350311 0.461231
C89   C     C_R   0.092905 0.806189 0.007610 -0.152219
C90   C     C_2   0.443561 0.660940 0.888880 0.456284
C91   C     C_2   0.381474 0.163002 0.821382 0.458345
H1    H     H_    0.943055 0.241200 0.117466 0.098023
H2    H     H_    0.544798 0.145239 0.015519 0.182174
H3    H     H_    0.661376 0.336628 0.175086 0.114940
H4    H     H_    0.379762 0.778402 0.206390 0.086904
H5    H     H_    0.828044 0.219926 0.360677 0.109254
H6    H     H_    0.705304 0.031114 0.204869 0.126254
H7    H     H_    0.789612 0.343797 0.479075 0.127273
H8    H     H_    0.989692 0.678053 0.476783 0.115409
H9    H     H_    0.036845 0.810954 0.726274 0.135707
H10   H     H_    0.221896 0.955331 0.881805 0.152107
H11   H     H_    0.380396 0.933165 0.897674 0.134154
H12   H     H_    0.050425 0.677715 0.807497 0.125081
H13   H     H_    0.355544 0.761909 0.762132 0.169774
H14   H     H_    0.125983 0.009731 0.540777 0.098077
H15   H     H_    0.183437 0.325543 0.849140 0.098172
H16   H     H_    0.262465 0.104167 0.498198 0.108126
H17   H     H_    0.402282 0.052902 0.496774 0.112438
H18   H     H_    0.271902 0.813999 0.584925 0.133714
H19   H     H_    0.132517 0.867115 0.586462 0.127398
H20   H     H_    0.677958 0.013674 0.399778 0.118083
H21   H     H_    0.861211 0.095180 0.420535 0.122908
H22   H     H_    0.013381 0.099105 0.556670 0.096952
H23   H     H_    0.829393 0.171530 0.653095 0.135957
H24   H     H_    0.979876 0.012844 0.665866 0.106395
H25   H     H_    0.007493 0.673878 0.341865 0.094527
H26   H     H_    0.799689 0.937427 0.651873 0.110388
H27   H     H_    0.467653 0.337561 0.792366 0.158231
H28   H     H_    0.489554 0.446580 0.762884 0.157809
H29   H     H_    0.326963 0.427027 0.753148 0.149727
H30   H     H_    0.317925 0.332278 0.801741 0.152995
H31   H     H_    0.541235 0.391336 0.001297 0.178322
H32   H     H_    0.395365 0.399777 0.006585 0.183510
H33   H     H_    0.656518 0.679805 0.053364 0.162843
H34   H     H_    0.978509 0.824115 0.158090 0.127482
H35   H     H_    0.611365 0.645724 0.913115 0.158951
H36   H     H_    0.355501 0.678766 0.031414 0.117892
H37   H     H_    0.511797 0.682073 0.048850 0.127186
H38   H     H_    0.625868 0.533163 0.106582 0.161093
H39   H     H_    0.478721 0.543658 0.104747 0.187244
H40   H     H_    0.165682 0.069269 0.743885 0.115826
H41   H     H_    0.070764 0.052161 0.849129 0.122789
H42   H     H_    0.379337 0.253660 0.149655 0.133904
H43   H     H_    0.473452 0.261294 0.044676 0.130708
H44   H     H_    0.212732 0.008267 0.053948 0.123850
H45   H     H_    0.152658 0.835028 0.984325 0.101656
H46   H     H_    0.028794 0.181445 0.203189 0.130972
H47   H     H_    0.849771 0.322372 0.174531 0.120753
H48   H     H_    0.832483 0.948131 0.043111 0.116027
H49   H     H_    0.697113 0.860464 0.088583 0.145896
H50   H     H_    0.756636 0.847078 0.256901 0.115673
H51   H     H_    0.953263 0.931111 0.384493 0.118319
H52   H     H_    0.090866 0.033321 0.347718 0.117723
H53   H     H_    0.194623 0.742993 0.371507 0.112707
H54   H     H_    0.134574 0.264245 0.958281 0.129666
H55   H     H_    0.622415 0.324815 0.879304 0.161628
H56   H     H_    0.649482 0.172146 0.823527 0.139271
H57   H     H_    0.623583 0.001551 0.805844 -0.004934
H58   H     H_    0.592818 0.784150 0.335444 0.010188
H59   H     H_    0.410729 0.612698 0.801174 0.030134
H60   H     H_    0.341236 0.150916 0.740309 0.036533
H61   H     H_    0.802286 0.679109 0.061181 0.116492
H62   H     H_    0.891836 0.324552 0.618754 0.098928
H63   H     H_    0.566458 0.993564 0.030275 0.153021
N1    N     N_R   0.947080 0.293830 0.002870 -0.042399
N2    N     N_R   0.153670 0.443180 0.946090 -0.035103
N3    N     N_R   0.002360 0.556820 0.208890 -0.039128
N4    N     N_R   0.210070 0.556820 0.002870 -0.032540
N5    N     N_R   0.945960 0.443180 0.152110 -0.039135
N6    N     N_R   0.151710 0.706170 0.208890 -0.047245
N7    N     N_R   0.004320 0.293830 0.946090 -0.043716
N8    N     N_R   0.789930 0.443180 0.997130 -0.036784
N9    N     N_1   0.158546 0.502322 0.537208 -0.087550
N10   N     N_R   0.054040 0.556820 0.847890 -0.044321
N11   N     N_R   0.848290 0.293830 0.791110 -0.045893
N12   N     N_R   0.995680 0.706170 0.053910 -0.041913
N13   N     N_R   0.052920 0.706170 0.997130 -0.042821
N14   N     N_R   0.791050 0.293830 0.847890 -0.041382
N15   N     N_R   0.846330 0.556820 0.053910 -0.039220
N16   N     N_R   0.997640 0.443180 0.791110 -0.042760
N17   N     N_R   0.208950 0.706170 0.152110 -0.050973
Ni1   Ni    Ni4+2 0.869690 0.369690 0.000000 0.224450
Ni2   Ni    Ni4+2 0.130310 0.630310 0.000000 0.229085
Ni3   Ni    Ni4+2 0.000970 0.369690 0.869780 0.218291
Ni4   Ni    Ni4+2 0.999030 0.630310 0.130220 0.215236
O1    O     O_2   0.466356 0.946040 0.754285 -0.603902
O2    O     O_2   0.450461 0.669167 0.296575 -0.584392
O3    O     O_2   0.448059 0.749845 0.927198 -0.644881
O4    O     O_2   0.471657 0.172401 0.856800 -0.631188

loop_
_geom_bond_atom_site_label_1
_geom_bond_atom_site_label_2
_ccdc_geom_bond_type
C25   C31   A    
C49   H22   S    
C90   O3    D    
C41   C42   A    
C58   C62   S    
C69   H43   S    
C4    N17   A    
C27   C29   A    
C88   H58   S    
C79   H48   S    
C35   C36   A    
C9    C72   S    
C39   C87   S    
C82   H51   S    
C3    C6    A    
C63   C65   A    
C81   C82   A    
C88   O2    D    
C39   C41   A    
N1    N7    A    
C87   O1    D    
N17   Ni2   S    
N2    Ni3   S    
C3    H61   S    
C29   C30   A    
C18   C24   A    
C43   C88   S    
C57   H38   S    
C68   H42   S    
C6    C45   A    
C67   H23   S    
C18   C19   A    
C42   C53   S    
C71   H44   S    
C30   C31   A    
C21   H8    S    
C5    H62   S    
C57   C59   S    
C66   C68   A    
C10   C17   A    
C23   C40   A    
C60   C62   S    
C50   H24   S    
C73   C74   A    
C55   H29   S    
C1    N1    A    
C89   N13   A    
C55   H30   S    
C28   H25   S    
C13   C14   A    
C33   C35   A    
C57   H31   S    
N10   N16   A    
N1    Ni1   S    
C75   C85   S    
C83   C84   A    
C68   C69   A    
C32   H16   S    
C91   O4    D    
C16   N2    A    
C52   H47   S    
C5    N16   A    
C63   H40   S    
C4    C12   A    
C73   C84   S    
C90   H59   S    
C47   C53   A    
C16   C23   A    
C67   N11   A    
C52   N5    A    
C81   H50   S    
C28   C34   A    
N3    N5    A    
C89   H45   S    
C55   C60   S    
C76   N7    A    
C33   H17   S    
C7    C56   A    
C15   H6    S    
C17   H63   S    
C14   H5    S    
C44   C46   A    
C54   C59   S    
C1    C85   A    
C23   C60   S    
C22   C34   S    
C74   H46   S    
C54   H28   S    
C78   N12   A    
C87   H57   S    
C45   H55   S    
C8    C41   S    
C72   C73   A    
C74   C75   A    
C9    C89   A    
C5    C7    A    
C3    N15   A    
C64   H53   S    
C10   H2    S    
N11   Ni3   S    
C80   H49   S    
C40   H36   S    
C82   C83   A    
C13   C24   S    
C60   C61   S    
C51   C53   A    
C45   N8    A    
C37   C38   A    
C4    H4    S    
C58   H33   S    
C25   H9    S    
C47   C48   A    
C63   C70   A    
C91   H60   S    
C64   N6    A    
C50   C51   A    
N12   Ni4   S    
N10   Ni2   S    
C75   C77   A    
C70   C91   S    
C37   H19   S    
C61   H39   S    
N3    Ni4   S    
C39   C46   A    
C11   H3    S    
C48   C49   A    
C48   H21   S    
C76   H54   S    
C58   H35   S    
C1    H1    S    
C32   C38   A    
C54   H27   S    
C43   C44   A    
C26   C27   A    
N12   N13   A    
N6    Ni4   S    
C22   C24   A    
C58   C59   S    
C30   C86   S    
C42   C43   A    
C2    N14   A    
C71   C77   A    
C65   H41   S    
N16   Ni3   S    
C40   N4    A    
C15   C17   A    
C12   C64   A    
C54   C55   S    
C36   C37   A    
N5    Ni1   S    
C78   H34   S    
C34   C52   A    
C6    C59   S    
C2    C8    A    
C56   H12   S    
C80   C81   A    
C2    H56   S    
C57   C61   S    
N11   N14   A    
C16   H15   S    
N15   Ni4   S    
C56   N10   A    
C27   H11   S    
C7    C19   S    
N13   Ni2   S    
C61   H32   S    
C32   C33   A    
C19   C20   A    
N2    N4    A    
C25   C26   A    
C71   C72   A    
C26   H10   S    
C62   H37   S    
N7    Ni3   S    
C11   C13   A    
C79   C84   A    
N8    N15   A    
C38   H14   S    
C47   H20   S    
C62   C90   S    
C28   N3    A    
C51   H26   S    
N6    N17   A    
N4    Ni2   S    
C9    C78   A    
C65   C66   A    
C69   C70   A    
C10   C11   A    
C79   C80   A    
N14   Ni1   S    
N8    Ni1   S    
C20   C21   A    
C29   H13   S    
C8    C67   A    
C12   C44   S    
C49   C50   A    
C36   H18   S    
C14   C15   A    
C83   H52   S    
C86   N9    T    
C18   H7    S    
C21   C22   A    
C35   C46   S    
C76   C85   A    
C66   C77   S    
C20   C31   S    
