data_mof_unit_67982.cif
_audit_creation_date              2013-03-05T16:49:26-0500
_audit_creation_method            fapswitch 2.2
_symmetry_space_group_name_H-M    P1
_symmetry_Int_Tables_number       1
_space_group_crystal_system       triclinic
_cell_length_a                    11.039732
_cell_length_b                    8.956791
_cell_length_c                    8.408919
_cell_angle_alpha                 89.88777
_cell_angle_beta                  92.43101
_cell_angle_gamma                 93.388815
_cell_volume                      829.277655972

loop_
_atom_site_label
_atom_site_type_symbol
_atom_site_description
_atom_site_fract_x
_atom_site_fract_y
_atom_site_fract_z
_atom_type_partial_charge
O1    O     O_R   0.499990 0.285340 0.636850 -0.597894
O2    O     O_R   0.500010 0.714660 0.363150 -0.600231
O3    O     O_R   0.500010 0.285350 0.363100 -0.628698
O4    O     O_R   0.499990 0.714650 0.636900 -0.585348
C1    C     C_R   0.499802 0.219181 0.500063 0.895068
C2    C     C_R   0.500348 0.780822 0.499945 0.923231
O5    O     O_R   0.316750 0.500000 0.636870 -0.681297
O6    O     O_R   0.683250 0.500000 0.363130 -0.696484
O7    O     O_R   0.316770 0.500020 0.363120 -0.602417
O8    O     O_R   0.683230 0.499980 0.636880 -0.590918
C3    C     C_R   0.259666 0.496836 0.497182 0.809829
C4    C     C_R   0.739781 0.502149 0.502561 0.858878
Zn1   Zn    Zn3+2 0.499990 0.499990 0.682780 1.001507
Zn2   Zn    Zn3+2 0.500010 0.500010 0.317220 0.974828
H1    H     H_    0.301427 0.410072 0.878876 0.207377
H2    H     H_    0.682887 0.383441 0.137376 0.204036
C5    C     C_R   0.247843 0.598252 0.016125 0.011071
C6    C     C_R   0.761158 0.270329 0.958060 0.042576
C7    C     C_R   0.175435 0.636818 0.141226 -0.064960
C8    C     C_R   0.832992 0.280663 0.823784 0.015149
C9    C     C_R   0.099441 0.522716 0.205703 -0.119482
C10   C     C_R   0.887307 0.422707 0.785582 -0.144342
C11   C     C_R   0.085404 0.377322 0.140859 0.524246
C12   C     C_R   0.862668 0.553990 0.867964 0.515668
C13   C     C_R   0.159912 0.339435 0.019666 -0.103692
C14   C     C_R   0.784279 0.543029 0.993296 -0.069754
C15   C     C_R   0.243284 0.447818 0.965534 -0.393207
C16   C     C_R   0.742977 0.399353 0.043290 -0.351518
C17   C     C_R   0.932030 0.552304 0.371897 -0.181141
C18   C     C_R   0.065919 0.441830 0.626153 -0.289269
H3    H     H_    0.882682 0.593163 0.271098 0.141875
H4    H     H_    0.115474 0.394099 0.722202 0.164727
C19   C     C_R   0.872643 0.503062 0.505261 -0.012364
C20   C     C_R   0.125807 0.494122 0.494031 -0.111999
C21   C     C_R   0.941347 0.447700 0.633483 0.028107
C22   C     C_R   0.055131 0.538864 0.362146 0.011644
C23   C     C_1   0.500048 0.065418 0.500124 -0.133861
C24   C     C_1   0.500226 0.934587 0.499886 -0.104770
N1    N     N_1   0.500020 0.500030 0.073640 -0.071533
N2    N     N_1   0.499980 0.499970 0.926360 -0.068351
C25   C     C_2   0.323017 0.712615 0.931517 0.528443
H5    H     H_    0.312108 0.722898 0.803836 0.068692
O9    O     O_2   0.399639 0.793673 0.003192 -0.489634
C26   C     C_2   0.691730 0.132701 0.007263 0.611984
H6    H     H_    0.699911 0.095000 0.129681 0.045401
O10   O     O_2   0.616592 0.068978 0.916317 -0.481466
C27   C     C_2   0.181514 0.789728 0.212792 0.417723
H7    H     H_    0.155469 0.805396 0.334046 0.034984
O11   O     O_2   0.212402 0.900579 0.136957 -0.564683
C28   C     C_2   0.846797 0.150981 0.716105 0.445634
H8    H     H_    0.900483 0.164907 0.611963 0.021365
O12   O     O_2   0.799718 0.027000 0.740829 -0.473633
O13   O     O_3   0.993382 0.277959 0.190840 -0.601346
C29   C     C_3   0.040479 0.170013 0.295691 0.138772
H9    H     H_    0.052628 0.215873 0.417402 0.123661
H10   H     H_    0.129519 0.131612 0.260849 0.182156
C30   C     C_3   0.949624 0.035722 0.300566 -0.756153
H11   H     H_    0.937824 0.982824 0.181453 0.307226
H12   H     H_    0.982387 0.951997 0.386650 0.186735
H13   H     H_    0.860456 0.071315 0.337789 0.232859
O14   O     O_3   0.887135 0.692569 0.797028 -0.548906
C31   C     C_3   0.008177 0.743332 0.834096 0.211949
H14   H     H_    0.068682 0.650385 0.845472 0.088143
H15   H     H_    0.012091 0.808129 0.946593 0.211869
C32   C     C_3   0.057155 0.841654 0.701008 -0.769690
H16   H     H_    0.001912 0.938682 0.681295 0.285230
H17   H     H_    0.151690 0.883643 0.732157 0.193483
H18   H     H_    0.056400 0.776954 0.589102 0.223380
C33   C     C_2   0.152038 0.190160 0.942277 0.427199
H19   H     H_    0.225282 0.157071 0.870255 0.079781
O15   O     O_2   0.062471 0.104984 0.952281 -0.554839
C34   C     C_2   0.737841 0.680720 0.063225 0.435014
H20   H     H_    0.671885 0.673894 0.153757 0.132318
O16   O     O_2   0.773433 0.805648 0.021761 -0.519938

loop_
_geom_bond_atom_site_label_1
_geom_bond_atom_site_label_2
_geom_bond_distance
_ccdc_geom_bond_type
H2    C16   1.057921 S    
O1    Zn1   1.961726 S    
C28   O12   1.219232 D    
O7    Zn2   2.075437 S    
C2    C24   1.377318 S    
C23   C24   1.171945 T    
C6    C26   1.480350 S    
C13   C15   1.387417 A    
C14   C34   1.494233 S    
C25   H5    1.079670 S    
C25   O9    1.221372 D    
H1    C15   1.060005 S    
C27   H7    1.082676 S    
C8    C10   1.416309 A    
O6    C4    1.304271 A    
C32   H18   1.105574 S    
C31   H14   1.099272 S    
C11   C13   1.391321 A    
C28   H8    1.081003 S    
C30   H13   1.110077 S    
C17   H3    1.064120 S    
C9    C22   1.433342 S    
O13   C29   1.414111 S    
C32   H16   1.099188 S    
C18   H4    1.059818 S    
C10   C21   1.445565 S    
O7    C3    1.314202 A    
C17   C22   1.377295 A    
Zn1   N2    2.048249 S    
C30   H11   1.108231 S    
O2    C2    1.294771 A    
O3    Zn2   1.960248 S    
O8    C4    1.313073 A    
C18   C21   1.383328 A    
C4    C19   1.465514 S    
C12   O14   1.393025 S    
O1    C1    1.294796 A    
C10   C12   1.411934 A    
C34   O16   1.219066 D    
C19   C21   1.398817 A    
C12   C14   1.391466 A    
C11   O13   1.388747 S    
C20   C22   1.400392 A    
C33   H19   1.085823 S    
C9    C11   1.410308 A    
O14   C31   1.408153 S    
O2    Zn2   1.961728 S    
C29   H10   1.111379 S    
C30   H12   1.106753 S    
C5    C25   1.480167 S    
C13   C33   1.484428 S    
C1    C23   1.377390 S    
C18   C20   1.383649 A    
C5    C15   1.411178 A    
C17   C19   1.381395 A    
O5    Zn1   2.043286 S    
C6    C16   1.390078 A    
C26   H6    1.084525 S    
C6    C8    1.406853 A    
C27   O11   1.218474 D    
O4    C2    1.294222 A    
C7    C27   1.493771 S    
N1    N2    1.238447 T    
C33   O15   1.218378 D    
C29   H9    1.103481 S    
C34   H20   1.074732 S    
O5    C3    1.308782 A    
C31   H15   1.108737 S    
O6    Zn2   2.043285 S    
C31   C32   1.520369 S    
C5    C7    1.403689 A    
Zn2   N1    2.048249 S    
C7    C9    1.406171 A    
C14   C16   1.409067 A    
C29   C30   1.521558 S    
C3    C20   1.475638 S    
C32   H17   1.109056 S    
O4    Zn1   1.960249 S    
C26   O10   1.220905 D    
C8    C28   1.492986 S    
O3    C1    1.294248 A    
O8    Zn1   2.075437 S    
