data_mof_unit_31115.cif
_audit_creation_date              2013-03-05T15:42:05-0500
_audit_creation_method            fapswitch 2.2
_symmetry_space_group_name_H-M    P1
_symmetry_Int_Tables_number       1
_space_group_crystal_system       triclinic
_cell_length_a                    7.776975
_cell_length_b                    8.573406
_cell_length_c                    15.732864
_cell_angle_alpha                 90.676984
_cell_angle_beta                  86.79256
_cell_angle_gamma                 93.503173
_cell_volume                      1045.35388879

loop_
_atom_site_label
_atom_site_type_symbol
_atom_site_description
_atom_site_fract_x
_atom_site_fract_y
_atom_site_fract_z
_atom_type_partial_charge
O1    O     O_R   0.389250 0.738570 0.505570 -0.613652
O2    O     O_R   0.610750 0.261430 0.494430 -0.613658
O3    O     O_R   0.678390 0.711630 0.491020 -0.626673
O4    O     O_R   0.321610 0.288370 0.508980 -0.626679
C1    C     C_R   0.545622 0.794616 0.497810 0.963491
C2    C     C_R   0.454378 0.205384 0.502189 0.963480
O5    O     O_R   0.355460 0.513480 0.630490 -0.592813
O6    O     O_R   0.644540 0.486520 0.369510 -0.592746
O7    O     O_R   0.644600 0.486540 0.615950 -0.616290
O8    O     O_R   0.355400 0.513460 0.384050 -0.616297
C3    C     C_R   0.503685 0.500151 0.661761 0.891330
C4    C     C_R   0.496315 0.499848 0.338239 0.891304
Zn1   Zn    Zn3+2 0.306940 0.517990 0.509710 0.995320
Zn2   Zn    Zn3+2 0.693060 0.482010 0.490290 0.995347
C5    C     C_2   0.569643 0.958076 0.496565 -0.345465
C6    C     C_2   0.430357 0.041924 0.503435 -0.345468
C7    C     C_3   0.435720 0.637277 0.028943 -0.312329
C8    C     C_3   0.564312 0.362729 0.971054 -0.312339
C9    C     C_3   0.604804 0.619946 0.974010 0.249745
C10   C     C_3   0.395229 0.380057 0.025990 0.249763
H1    H     H_    0.382665 0.747940 0.052733 0.242923
H2    H     H_    0.617363 0.252065 0.947264 0.242952
C11   C     C_1   0.512503 0.500084 0.750148 -0.092269
C12   C     C_1   0.487500 0.499916 0.249852 -0.092125
C13   C     C_3   0.346286 0.514007 0.970633 0.260244
C14   C     C_3   0.653745 0.485997 0.029366 0.260265
C15   C     C_3   0.514059 0.499965 0.915949 -0.132797
C16   C     C_3   0.485971 0.500037 0.084050 -0.132845
N1    N     N_2   0.950320 0.457950 0.477300 -0.164072
N2    N     N_2   0.049680 0.542050 0.522700 -0.164082
C17   C     C_1   0.517068 0.500080 0.825154 0.163990
C18   C     C_1   0.482945 0.499921 0.174845 0.164208
N3    N     N_R   0.721951 0.750992 0.946421 0.267429
O9    O     O_R   0.783364 0.848909 0.002460 -0.259994
O10   O     O_R   0.760757 0.774267 0.865923 -0.335600
N4    N     N_R   0.278112 0.248995 0.053589 0.267510
O11   O     O_R   0.216874 0.150950 0.997567 -0.259943
O12   O     O_R   0.239218 0.225800 0.134086 -0.335665
N5    N     N_R   0.821260 0.471766 0.064512 0.253095
O13   O     O_R   0.900416 0.343293 0.053215 -0.272457
O14   O     O_R   0.884430 0.581169 0.113817 -0.317975
N6    N     N_R   0.178779 0.528227 0.935476 0.253012
O15   O     O_R   0.115123 0.418388 0.886627 -0.317437
O16   O     O_R   0.099961 0.656923 0.946414 -0.272749
H3    H     H_    0.701291 0.008891 0.490008 0.187028
H4    H     H_    0.298709 0.991109 0.509991 0.187029
H5    H     H_    0.012979 0.382620 0.436544 0.207483
H6    H     H_    0.987021 0.617380 0.563456 0.207473

loop_
_geom_bond_atom_site_label_1
_geom_bond_atom_site_label_2
_geom_bond_distance
_ccdc_geom_bond_type
C13   N6    1.455836 S    
O7    Zn2   1.992144 S    
C12   C18   1.182580 T    
N1    N2    1.268330 D    
C13   C15   1.532389 S    
C9    C15   1.533556 S    
C4    C12   1.396102 S    
C14   C16   1.532395 S    
C8    C14   1.549484 S    
C16   C18   1.427364 S    
O6    C4    1.290274 A    
C7    C13   1.549494 S    
N4    O12   1.300263 A    
N3    O9    1.300296 A    
N5    O14   1.300759 A    
O5    C3    1.290274 A    
O7    C3    1.288144 A    
O2    C2    1.279862 A    
O3    Zn2   1.978737 S    
N6    O16   1.299656 A    
N1    H5    1.029282 S    
O1    C1    1.279862 A    
O8    C4    1.288145 A    
N2    H6    1.029284 S    
N4    O11   1.300288 A    
C7    C9    1.546549 S    
C8    C10   1.546557 S    
C9    N3    1.457013 S    
O2    Zn2   1.959756 S    
C14   N5    1.455834 S    
C1    C5    1.402671 S    
O1    Zn1   1.959758 S    
N6    O15   1.300387 A    
C5    H3    1.087833 S    
Zn2   N1    2.022577 S    
C2    C6    1.402671 S    
C5    C6    1.334933 D    
C10   N4    1.457025 S    
Zn1   N2    2.022577 S    
O5    Zn1   1.959197 S    
C3    C11   1.396104 S    
O4    C2    1.288167 A    
C10   C13   1.528524 S    
C6    H4    1.087833 S    
N5    O13   1.299897 A    
C9    C14   1.528495 S    
O6    Zn2   1.959197 S    
C10   C16   1.533527 S    
N3    O10   1.300266 A    
C8    H2    1.110244 S    
C7    C16   1.551459 S    
C15   C17   1.427358 S    
C7    H1    1.110244 S    
C8    C15   1.551425 S    
O4    Zn1   1.978736 S    
O3    C1    1.288167 A    
O8    Zn1   1.992144 S    
C11   C17   1.182581 T    
