data_mof_unit_14806.cif
_audit_creation_date              2012-12-11T17:05:33-0500
_audit_creation_method            fapswitch 2.2
_symmetry_space_group_name_H-M    P1
_symmetry_Int_Tables_number       1
_space_group_crystal_system       triclinic
_cell_length_a                    7.066197
_cell_length_b                    14.389355
_cell_length_c                    16.167003
_cell_angle_alpha                 90.034086
_cell_angle_beta                  89.617823
_cell_angle_gamma                 89.92724
_cell_volume                      1643.79061471

loop_
_atom_site_label
_atom_site_type_symbol
_atom_type_description
_atom_site_fract_x
_atom_site_fract_y
_atom_site_fract_z
_atom_type_partial_charge
O1    O     O_R   0.494380 0.415640 0.412830 -0.551152
O2    O     O_R   0.823960 0.405540 0.586560 -0.526952
O3    O     O_R   0.994270 0.584360 0.587170 -0.533392
C1    C     C_R   0.654592 0.383355 0.614443 0.737342
O4    O     O_R   0.824090 0.404620 0.413450 -0.561732
O5    O     O_R   0.994400 0.583430 0.412820 -0.528532
C2    C     C_R   0.655880 0.382038 0.385255 0.692235
O6    O     O_R   0.494250 0.416570 0.587180 -0.514970
O7    O     O_3   0.660800 0.558670 0.500000 -0.330006
V1    V     V_3+5 0.935650 0.489120 0.500000 1.607504
O8    O     O_R   0.324110 0.594460 0.413440 -0.519920
C3    C     C_R   0.155991 0.613998 0.383316 0.717140
O9    O     O_R   0.323980 0.595380 0.586550 -0.490392
C4    C     C_R   0.155459 0.617061 0.615284 0.893390
V2    V     V_3+5 0.435660 0.510880 0.500000 1.695350
O10   O     O_3   0.160640 0.441330 0.500000 -0.376235
C5    C     C_3   0.987419 0.656678 0.748249 -0.373688
H1    H     H_    0.851976 0.651973 0.715943 0.236983
H2    H     H_    0.012774 0.583955 0.768988 0.223964
C6    C     C_3   0.974605 0.722249 0.824790 0.708531
C7    C     C_3   0.101623 0.788587 0.654716 0.589752
C8    C     C_3   0.332974 0.685221 0.739984 0.575870
C9    C     C_3   0.146580 0.686698 0.686727 -0.312224
C10   C     C_3   0.120810 0.804250 0.815781 -0.363369
C11   C     C_3   0.100977 0.857029 0.730461 0.064816
C12   C     C_3   0.317230 0.756551 0.813704 0.181764
H3    H     H_    0.417432 0.814086 0.802473 0.168639
H4    H     H_    0.230300 0.900639 0.724652 0.155640
C13   C     C_R   0.238927 0.826187 0.248560 -0.053639
C14   C     C_R   0.117390 0.813909 0.181508 -0.134732
C15   C     C_R   0.996506 0.736155 0.184073 -0.128844
H5    H     H_    0.897850 0.724781 0.134053 0.176736
C16   C     C_R   0.011313 0.668017 0.246878 0.442632
C17   C     C_R   0.144298 0.679557 0.312521 -0.184970
C18   C     C_R   0.250419 0.761724 0.312526 -0.133466
C19   C     C_3   0.458581 0.780737 0.324102 0.698721
C20   C     C_3   0.443104 0.853087 0.254242 0.480554
C21   C     C_R   0.528613 0.235562 0.677957 -0.014782
C22   C     C_R   0.645164 0.314150 0.681858 -0.114028
C23   C     C_R   0.764788 0.321871 0.750502 -0.103304
H6    H     H_    0.857308 0.381472 0.755676 0.191096
C24   C     C_R   0.760907 0.255750 0.814836 0.390955
C25   C     C_R   0.626366 0.182470 0.814505 -0.127578
C26   C     C_R   0.518519 0.172071 0.742790 -0.072908
C27   C     C_3   0.312894 0.153209 0.731127 -0.404921
C28   C     C_3   0.321713 0.224120 0.660802 0.698589
H7    H     H_    0.225868 0.175623 0.785102 0.223993
H8    H     H_    0.286914 0.080709 0.710369 0.180414
C29   C     C_R   0.485754 0.256436 0.305896 0.085182
C30   C     C_R   0.647877 0.311322 0.317895 -0.113505
C31   C     C_R   0.790689 0.307011 0.256675 -0.202232
H9    H     H_    0.906875 0.355910 0.258533 0.157674
C32   C     C_R   0.772614 0.248180 0.187161 0.395857
C33   C     C_R   0.621197 0.185274 0.180634 -0.134001
C34   C     C_R   0.470876 0.197558 0.236299 -0.055739
C35   C     C_3   0.286667 0.241798 0.213853 0.298818
C36   C     C_3   0.291674 0.294586 0.294202 -0.429824
H10   H     H_    0.169102 0.191000 0.209170 0.093737
H11   H     H_    0.190966 0.267188 0.341341 0.153395
H12   H     H_    0.287004 0.371419 0.286831 0.195788
O11   O     O_R   0.771490 0.080820 0.910070 -0.515933
O12   O     O_R   0.441590 0.092730 0.083780 -0.541739
O13   O     O_R   0.271350 0.913900 0.084390 -0.518259
C37   C     C_R   0.609994 0.116036 0.111595 0.750996
O14   O     O_R   0.441780 0.091820 0.910670 -0.539530
O15   O     O_R   0.271540 0.912980 0.910040 -0.540578
C38   C     C_R   0.611389 0.114366 0.882962 0.781330
O16   O     O_R   0.771300 0.081740 0.084420 -0.530302
O17   O     O_3   0.604960 0.938700 0.997240 -0.348766
V3    V     V_3+5 0.330090 0.008230 0.997220 1.625133
O18   O     O_R   0.941820 0.901930 0.910640 -0.508422
C39   C     C_R   0.110986 0.876310 0.885330 0.806851
O19   O     O_R   0.941630 0.902840 0.083750 -0.561385
C40   C     C_R   0.110014 0.881127 0.112191 0.700741
V4    V     V_3+5 0.830090 0.986410 0.997190 1.634969
O20   O     O_3   0.105080 0.055990 0.997200 -0.352769
Cl1   Cl    Cl    0.265229 0.830723 0.578071 -0.516590
O21   O     O_3   0.901125 0.589471 0.238403 -0.605124
H13   H     H_    0.960122 0.537559 0.268968 0.281074
O22   O     O_3   0.576307 0.704370 0.305470 -0.598649
H14   H     H_    0.528687 0.673679 0.254660 0.307563
O23   O     O_3   0.502055 0.818372 0.402040 -0.544567
H15   H     H_    0.406485 0.866738 0.415658 0.350183
O24   O     O_3   0.547874 0.831061 0.182859 -0.630625
H16   H     H_    0.679273 0.850859 0.194458 0.306644
O25   O     O_3   0.467661 0.945496 0.280181 -0.650198
H17   H     H_    0.424408 0.985187 0.233850 0.281475
Cl2   Cl    Cl    0.920693 0.271787 0.896231 -0.471811
Cl3   Cl    Cl    0.187811 0.326417 0.681221 -0.609049
O26   O     O_3   0.283985 0.186615 0.582214 -0.617924
H18   H     H_    0.369693 0.132777 0.572895 0.300309
Cl4   Cl    Cl    0.903342 0.273940 0.098163 -0.452048
Cl5   Cl    Cl    0.319100 0.319788 0.127585 -0.454494
O27   O     O_3   0.004107 0.668461 0.896295 -0.556963
H19   H     H_    0.983818 0.708956 0.945367 0.332095
Cl6   Cl    Cl    0.746435 0.765552 0.834319 -0.624456
Cl7   Cl    Cl    0.888025 0.792274 0.596039 -0.441243
O28   O     O_3   0.952654 0.922664 0.729293 -0.598764
H20   H     H_    0.830245 0.889938 0.728605 0.392002
Cl8   Cl    Cl    0.531078 0.716026 0.677239 -0.555240
O29   O     O_3   0.362276 0.594126 0.769703 -0.592095
H21   H     H_    0.495137 0.589180 0.788799 0.371010
Cl9   Cl    Cl    0.379388 0.707108 0.913674 -0.466877

loop_
_geom_bond_atom_site_label_1
_geom_bond_atom_site_label_2
_ccdc_geom_bond_type
C34   C35   S    
V4    O20   S    
O29   H21   S    
O19   C40   A    
C18   C19   S    
C1    O6    A    
C7    Cl1   S    
C28   Cl3   S    
C32   C33   A    
O11   V4    S    
O16   V4    S    
C12   H3    S    
C5    C9    S    
C8    O29   S    
C37   O16   A    
C19   C20   S    
C10   C12   S    
O5    C3    A    
C14   C15   A    
C14   C40   S    
C16   O21   S    
C36   H11   S    
O14   V3    S    
O28   H20   S    
C5    C6    S    
C29   C36   S    
C35   C36   S    
O12   V3    S    
C5    H1    S    
C17   C18   A    
C6    O27   S    
O12   C37   A    
O8    V2    S    
O15   C39   A    
C6    C10   S    
C19   O23   S    
O14   C38   A    
C15   C16   A    
C20   O24   S    
O1    V2    S    
O7    V1    S    
C23   C24   A    
C6    Cl6   S    
O9    C4    A    
O19   V4    S    
O17   V3    S    
C30   C31   A    
C27   H7    S    
C35   Cl5   S    
C8    Cl8   S    
O13   V3    S    
C31   H9    S    
C20   O25   S    
C21   C22   A    
C10   C11   S    
C19   O22   S    
C22   C23   A    
O4    C2    A    
O25   H17   S    
C36   H12   S    
C29   C34   A    
C31   C32   A    
C4    C9    S    
O2    C1    A    
C25   C26   A    
C21   C26   A    
C13   C14   A    
C12   Cl9   S    
C7    Cl7   S    
O11   C38   A    
C15   H5    S    
C1    C22   S    
C32   Cl4   S    
C16   C17   A    
O24   H16   S    
O3    C4    A    
C23   H6    S    
O23   H15   S    
O6    V2    S    
O9    V2    S    
V3    O20   S    
C24   Cl2   S    
C24   C25   A    
C3    C17   S    
O2    V1    S    
C26   C27   S    
C10   C39   S    
C27   H8    S    
C7    C11   S    
C33   C34   A    
O1    C2    A    
C2    C30   S    
O22   H14   S    
O5    V1    S    
O8    C3    A    
C28   O26   S    
O13   C40   A    
C13   C18   A    
C7    C9    S    
O7    V2    S    
O18   C39   A    
O3    V1    S    
V1    O10   S    
O18   V4    S    
O21   H13   S    
O26   H18   S    
O15   V3    S    
C33   C37   S    
C5    H2    S    
C35   H10   S    
O17   V4    S    
O27   H19   S    
C21   C28   S    
C11   H4    S    
C27   C28   S    
C11   O28   S    
O4    V1    S    
C25   C38   S    
C29   C30   A    
C8    C12   S    
C13   C20   S    
C8    C9    S    
V2    O10   S    
