data_mof_unit_19273.cif
_audit_creation_date              2012-12-10T16:52:41-0500
_audit_creation_method            fapswitch 2.2
_symmetry_space_group_name_H-M    P1
_symmetry_Int_Tables_number       1
_space_group_crystal_system       triclinic
_cell_length_a                    7.925354
_cell_length_b                    8.564941
_cell_length_c                    13.701971
_cell_angle_alpha                 94.733291
_cell_angle_beta                  93.315427
_cell_angle_gamma                 93.186417
_cell_volume                      923.66463733

loop_
_atom_site_label
_atom_site_type_symbol
_atom_type_description
_atom_site_fract_x
_atom_site_fract_y
_atom_site_fract_z
_atom_type_partial_charge
C1    C     C_R   0.042190 0.793035 0.492905 0.944009
C2    C     C_R   0.936805 0.486801 0.317940 0.839374
C3    C     C_R   0.091361 0.517348 0.787864 -0.060254
C4    C     C_R   0.901946 0.456826 0.212922 -0.061047
C5    C     C_R   0.037949 0.626741 0.950083 -0.188204
C6    C     C_R   0.923426 0.290624 0.063839 -0.191052
C7    C     C_R   0.988183 0.599856 0.850790 -0.196497
C8    C     C_R   0.988982 0.346674 0.157501 -0.200472
C9    C     C_R   0.234297 0.450221 0.824960 -0.290028
C10   C     C_R   0.756395 0.516040 0.173427 -0.288191
C11   C     C_R   0.288803 0.477453 0.923753 0.091008
C12   C     C_R   0.956859 0.206524 0.503206 0.881515
C13   C     C_R   0.677236 0.447699 0.085561 0.091617
C14   C     C_R   0.191197 0.572039 0.986026 0.184155
C15   C     C_R   0.765954 0.337519 0.028428 0.177643
C16   C     C_R   0.444810 0.424345 0.959789 0.063182
C17   C     C_R   0.511495 0.483971 0.054432 0.064437
C18   C     C_3   0.269448 0.907817 0.347944 -0.765820
C19   C     C_3   0.939742 0.007605 0.692530 -0.800421
C20   C     C_3   0.481950 0.372969 0.384593 -0.488382
C21   C     C_3   0.518201 0.626537 0.615614 -0.502182
C22   C     C_R   0.408311 0.573743 0.115973 -0.245762
C23   C     C_R   0.536832 0.314936 0.904142 -0.236171
C24   C     C_R   0.250096 0.614992 0.082389 -0.223765
C25   C     C_R   0.694377 0.272277 0.938306 -0.229640
C26   C     C_2   0.052587 0.952581 0.472871 -0.013383
C27   C     C_2   0.944946 0.046788 0.519502 -0.054172
C28   C     C_R   0.062659 0.510686 0.682069 0.860350
H1    H     H_    0.175574 0.684839 0.131333 0.145529
H2    H     H_    0.487828 0.254973 0.835266 0.147246
H3    H     H_    0.069338 0.056581 0.340138 0.209433
H4    H     H_    0.329401 0.971133 0.290122 0.216708
H5    H     H_    0.211054 0.794126 0.313557 0.237432
H6    H     H_    0.370417 0.888666 0.404584 0.265740
H7    H     H_    0.733426 0.053853 0.602243 0.239644
H8    H     H_    0.856306 0.962086 0.747463 0.226722
H9    H     H_    0.983401 0.130940 0.717124 0.232183
H10   H     H_    0.050715 0.934115 0.688560 0.235865
H11   H     H_    0.370691 0.294957 0.355890 0.185971
H12   H     H_    0.759898 0.186865 0.894186 0.145852
H13   H     H_    0.506310 0.456612 0.328846 0.180516
H14   H     H_    0.587643 0.296709 0.396225 0.211163
H15   H     H_    0.495430 0.542634 0.671561 0.186249
H16   H     H_    0.629009 0.705469 0.643912 0.187838
H17   H     H_    0.411694 0.702016 0.604318 0.210324
H18   H     H_    0.702905 0.610388 0.216020 0.145904
H19   H     H_    0.307953 0.386735 0.773274 0.153225
H20   H     H_    0.102847 0.299752 0.187881 0.152700
H21   H     H_    0.874920 0.650397 0.822551 0.153220
H22   H     H_    0.960941 0.696103 0.997783 0.139365
H23   H     H_    0.991374 0.205358 0.021180 0.137856
H24   H     H_    0.444107 0.611526 0.191571 0.147249
N1    N     N_2   0.440860 0.456490 0.474790 0.001083
N2    N     N_2   0.559140 0.543510 0.525210 -0.000184
N3    N     N_2   0.141828 0.001900 0.390644 -0.308570
N4    N     N_2   0.846605 0.000458 0.598042 -0.290986
O1    O     O_R   0.891570 0.738930 0.506190 -0.591338
O2    O     O_R   0.108430 0.261070 0.493810 -0.587086
O3    O     O_R   0.174650 0.711050 0.490030 -0.632843
O4    O     O_R   0.825350 0.288950 0.509970 -0.635068
O5    O     O_R   0.909850 0.521900 0.644940 -0.607214
O6    O     O_R   0.090150 0.478100 0.355060 -0.623283
O7    O     O_R   0.192930 0.494020 0.628780 -0.627182
O8    O     O_R   0.807070 0.505980 0.371220 -0.625471
Zn1   Zn    Zn3+2 0.810990 0.518620 0.510790 0.939303
Zn2   Zn    Zn3+2 0.189010 0.481380 0.489210 0.933060

loop_
_geom_bond_atom_site_label_1
_geom_bond_atom_site_label_2
_ccdc_geom_bond_type
C19   N4    S    
C10   H18   S    
C2    C4    S    
C8    H20   S    
H7    N4    S    
C3    C9    A    
C19   H10   S    
C1    O1    A    
C6    H23   S    
C21   H16   S    
C9    C11   A    
C11   C16   A    
C20   H14   S    
C17   C22   A    
C13   C17   A    
C4    C8    A    
C12   O2    A    
C26   N3    S    
C13   C15   A    
C20   H13   S    
C5    C14   A    
O7    Zn2   S    
C25   H12   S    
N2    Zn1   S    
C21   H15   S    
N1    N2    D    
C28   O5    A    
N1    Zn2   S    
C18   H6    S    
C26   C27   D    
C21   N2    S    
C18   N3    S    
O8    Zn1   S    
C3    C28   S    
C18   H5    S    
C1    O3    A    
C2    O8    A    
O4    Zn1   S    
C9    H19   S    
C16   C23   A    
C21   H17   S    
C19   H8    S    
C23   C25   A    
O3    Zn2   S    
C1    C26   S    
C11   C14   A    
C22   C24   A    
C5    H22   S    
C15   C25   A    
C18   H4    S    
O6    Zn2   S    
C12   C27   S    
C4    C10   A    
C12   O4    A    
C23   H2    S    
O5    Zn1   S    
C7    H21   S    
C22   H24   S    
C28   O7    A    
C14   C24   A    
C5    C7    A    
C20   H11   S    
C24   H1    S    
C16   C17   A    
C6    C8    A    
C19   H9    S    
C3    C7    A    
H3    N3    S    
C6    C15   A    
C27   N4    S    
O2    Zn2   S    
C2    O6    A    
O1    Zn1   S    
C20   N1    S    
C10   C13   A    
