data_mof_unit_6367.cif
_audit_creation_date              2012-12-10T17:36:34-0500
_audit_creation_method            fapswitch 2.2
_symmetry_space_group_name_H-M    P1
_symmetry_Int_Tables_number       1
_space_group_crystal_system       triclinic
_cell_length_a                    11.985652
_cell_length_b                    12.829724
_cell_length_c                    15.725365
_cell_angle_alpha                 90.135979
_cell_angle_beta                  87.168058
_cell_angle_gamma                 94.148384
_cell_volume                      2408.84783688

loop_
_atom_site_label
_atom_site_type_symbol
_atom_type_description
_atom_site_fract_x
_atom_site_fract_y
_atom_site_fract_z
_atom_type_partial_charge
C1    C     C_R   0.522941 0.700377 0.496649 0.945460
C2    C     C_R   0.539408 0.025963 0.470674 -0.034555
C3    C     C_R   0.949597 0.391616 0.429527 0.316521
C4    C     C_R   0.050404 0.608387 0.570470 0.316514
C5    C     C_R   0.834366 0.403961 0.435432 -0.004410
C6    C     C_R   0.165634 0.596041 0.564567 -0.004409
C7    C     C_R   0.860370 0.548014 0.528866 0.036006
C8    C     C_R   0.139630 0.451987 0.471133 0.036012
C9    C     C_R   0.977391 0.539854 0.525260 -0.069211
C10   C     C_R   0.022609 0.460148 0.474738 -0.069213
C11   C     C_R   0.501110 0.500171 0.661982 0.910683
C12   C     C_R   0.477059 0.299623 0.503351 0.945459
C13   C     C_R   0.498890 0.499827 0.338017 0.910687
C14   C     C_3   0.555925 0.585869 0.027803 0.435192
C15   C     C_3   0.444080 0.414106 0.972196 0.435203
C16   C     C_3   0.606952 0.502107 0.970910 -0.068878
C17   C     C_3   0.393053 0.497870 0.029089 -0.068861
C18   C     C_1   0.503724 0.500621 0.750673 -0.116231
C19   C     C_1   0.496276 0.499366 0.249326 -0.116223
C20   C     C_3   0.452636 0.585880 0.972532 -0.313369
C21   C     C_3   0.547372 0.414096 0.027467 -0.313346
C22   C     C_3   0.504066 0.501021 0.916689 -0.002147
C23   C     C_R   0.619224 0.970444 0.423701 0.377085
C24   C     C_3   0.495939 0.498954 0.083310 -0.002149
C25   C     C_1   0.504981 0.500960 0.825841 0.042408
C26   C     C_1   0.495020 0.499019 0.174159 0.042424
C27   C     C_R   0.461694 0.188019 0.509033 -0.228109
C28   C     C_R   0.538306 0.811981 0.490967 -0.228110
C29   C     C_R   0.726625 0.509250 0.936286 0.153773
C30   C     C_R   0.799697 0.433010 0.956164 -0.127154
C31   C     C_R   0.911106 0.441758 0.924483 -0.119573
C32   C     C_R   0.950357 0.526596 0.873053 -0.104395
C33   C     C_R   0.878164 0.602746 0.853103 -0.098113
C34   C     C_R   0.380776 0.029556 0.576300 0.377086
C35   C     C_R   0.766675 0.594136 0.884435 -0.103970
C36   C     C_R   0.273376 0.490758 0.063706 0.153739
C37   C     C_R   0.200345 0.567044 0.043849 -0.127165
C38   C     C_R   0.088933 0.558329 0.075523 -0.119552
C39   C     C_R   0.049635 0.473481 0.126925 -0.104448
C40   C     C_R   0.121786 0.397286 0.146855 -0.098141
C41   C     C_R   0.233280 0.405863 0.115531 -0.103952
C42   C     C_R   0.617843 0.862335 0.433353 0.339900
C43   C     C_R   0.382157 0.137665 0.566647 0.339899
C44   C     C_R   0.462880 0.867425 0.539411 -0.223111
C45   C     C_R   0.537120 0.132575 0.460590 -0.223110
C46   C     C_R   0.460592 0.974037 0.529327 -0.034554
Cl1   Cl    Cl    0.629387 0.700031 0.067690 -0.524661
Cl2   Cl    Cl    0.370618 0.299944 0.932311 -0.524660
Cl3   Cl    Cl    0.289677 0.209225 0.631355 -0.447676
Cl4   Cl    Cl    0.710323 0.790775 0.368646 -0.447678
Cl5   Cl    Cl    0.720043 0.034141 0.351440 -0.460901
Cl6   Cl    Cl    0.279957 0.965859 0.648560 -0.460898
Cl7   Cl    Cl    0.997672 0.289157 0.366059 -0.580237
Cl8   Cl    Cl    0.002330 0.710851 0.633932 -0.580256
H1    H     H_    0.582977 0.343300 0.052130 0.188632
H2    H     H_    0.967233 0.383049 0.940221 0.176911
H3    H     H_    0.036742 0.533500 0.848937 0.166107
H4    H     H_    0.908647 0.668709 0.813654 0.204362
H5    H     H_    0.711657 0.653835 0.868665 0.161727
H6    H     H_    0.228856 0.632968 0.003738 0.148642
H7    H     H_    0.032840 0.617075 0.059801 0.176921
H8    H     H_    0.963247 0.466602 0.151034 0.166111
H9    H     H_    0.091266 0.331315 0.186282 0.204355
H10   H     H_    0.288266 0.346131 0.131288 0.161762
H11   H     H_    0.417042 0.656679 0.947865 0.188621
H12   H     H_    0.595804 0.174660 0.416153 0.217266
H13   H     H_    0.404196 0.825340 0.583847 0.217265
H14   H     H_    0.177527 0.392696 0.432806 0.189089
H15   H     H_    0.822473 0.607304 0.567193 0.189084
H16   H     H_    0.222232 0.648446 0.598827 0.175163
H17   H     H_    0.777768 0.351556 0.401171 0.175163
H18   H     H_    0.771220 0.367097 0.996299 0.148632
N1    N     N_R   0.207800 0.519340 0.515560 -0.139795
N2    N     N_R   0.792200 0.480660 0.484440 -0.139793
O1    O     O_R   0.421700 0.658830 0.504150 -0.630952
O2    O     O_R   0.578300 0.341170 0.495850 -0.630952
O3    O     O_R   0.609310 0.646410 0.494170 -0.577701
O4    O     O_R   0.390690 0.353590 0.505830 -0.577701
O5    O     O_R   0.406210 0.506220 0.628210 -0.596987
O6    O     O_R   0.593790 0.493780 0.371790 -0.596989
O7    O     O_R   0.593830 0.493800 0.618230 -0.621826
O8    O     O_R   0.406170 0.506200 0.381770 -0.621822
Zn1   Zn    Zn3+2 0.374730 0.508290 0.506660 1.009041
Zn2   Zn    Zn3+2 0.625270 0.491710 0.493340 1.009038

loop_
_geom_bond_atom_site_label_1
_geom_bond_atom_site_label_2
_ccdc_geom_bond_type
C11   C18   S    
C6    H16   S    
C33   H4    S    
C1    O3    A    
O6    Zn2   S    
O2    Zn2   S    
C11   O7    A    
C16   C21   S    
C23   C42   A    
C32   H3    S    
C36   C37   A    
C37   C38   A    
C24   C26   S    
C30   C31   A    
C17   C20   S    
C35   H5    S    
C14   C24   S    
C5    N2    A    
C19   C26   T    
O4    Zn1   S    
C15   C22   S    
C22   C25   S    
C12   O4    A    
C1    C28   S    
C34   C46   A    
C17   C36   S    
C31   H2    S    
C9    C10   A    
C38   H7    S    
C27   C45   A    
C13   O6    A    
C36   C41   A    
C18   C25   T    
C15   Cl2   S    
C44   C46   A    
C7    N2    A    
C2    C45   A    
C17   C24   S    
C13   C19   S    
C12   C27   S    
C1    O1    A    
C14   C20   S    
C20   H11   S    
C4    C6    A    
C39   C40   A    
C21   H1    S    
C43   Cl3   S    
O3    Zn2   S    
C16   C29   S    
C13   O8    A    
C28   C44   A    
C2    C46   A    
C29   C30   A    
C23   Cl5   S    
C31   C32   A    
C40   H9    S    
C11   O5    A    
C42   Cl4   S    
C40   C41   A    
C20   C22   S    
C8    H14   S    
C12   O2    A    
C14   C16   S    
C45   H12   S    
O7    Zn2   S    
C6    N1    A    
C7    C9    A    
C39   H8    S    
C16   C22   S    
C4    Cl8   S    
C34   C43   A    
N2    Zn2   S    
C3    C5    A    
C7    H15   S    
C30   H18   S    
C15   C17   S    
C14   Cl1   S    
C29   C35   A    
C34   Cl6   S    
C32   C33   A    
C5    H17   S    
C3    C10   A    
O5    Zn1   S    
C3    Cl7   S    
O1    Zn1   S    
C38   C39   A    
C28   C42   A    
C8    N1    A    
C33   C35   A    
C37   H6    S    
C27   C43   A    
C15   C21   S    
C8    C10   A    
O8    Zn1   S    
C21   C24   S    
C2    C23   A    
C44   H13   S    
C41   H10   S    
C4    C9    A    
N1    Zn1   S    
