data_mof_unit_24113.cif
_audit_creation_date              2012-12-10T20:27:11-0500
_audit_creation_method            fapswitch 2.2
_symmetry_space_group_name_H-M    P1
_symmetry_Int_Tables_number       1
_space_group_crystal_system       triclinic
_cell_length_a                    10.744417
_cell_length_b                    10.6767
_cell_length_c                    9.867934
_cell_angle_alpha                 90.154096
_cell_angle_beta                  103.702391
_cell_angle_gamma                 90.165599
_cell_volume                      1099.7704403

loop_
_atom_site_label
_atom_site_type_symbol
_atom_type_description
_atom_site_fract_x
_atom_site_fract_y
_atom_site_fract_z
_atom_type_partial_charge
C1    C     C_R   0.494529 0.260087 0.498527 0.915695
C2    C     C_R   0.579357 0.576851 0.092656 -0.133968
C3    C     C_R   0.579352 0.576873 0.948691 -0.138340
C4    C     C_R   0.258846 0.504458 0.441944 0.941692
C5    C     C_R   0.428150 0.414546 0.910025 0.217277
C6    C     C_3   0.286068 0.400942 0.868060 -0.515384
C7    C     C_3   0.286002 0.401188 0.021655 -0.516285
C8    C     C_R   0.494453 0.739811 0.498722 0.905208
C9    C     C_R   0.741269 0.504881 0.557871 0.935149
C10   C     C_2   0.122092 0.521379 0.408591 -0.369676
C11   C     C_2   0.067837 0.559915 0.509210 -0.157748
C12   C     C_R   0.473699 0.128511 0.495251 -0.143911
C13   C     C_2   0.878024 0.524557 0.589785 -0.379848
C14   C     C_2   0.931341 0.556439 0.485855 -0.153719
C15   C     C_R   0.507937 0.063857 0.620401 0.091717
C16   C     C_R   0.412568 0.064966 0.371727 0.038680
C17   C     C_R   0.412135 0.933411 0.371911 0.033706
C18   C     C_R   0.473130 0.871047 0.495614 -0.139487
C19   C     C_R   0.507662 0.936679 0.620600 0.100561
C20   C     C_3   0.626633 0.929749 0.735255 -0.481087
C21   C     C_3   0.626955 0.071824 0.735019 -0.464585
C22   C     C_R   0.428076 0.414591 0.052589 0.232538
H1    H     H_    0.709277 0.113154 0.700226 0.195206
H2    H     H_    0.607974 0.889151 0.832209 0.201363
H3    H     H_    0.708772 0.888120 0.700632 0.194415
H4    H     H_    0.608484 0.113317 0.831824 0.204767
H5    H     H_    0.875131 0.567890 0.379347 0.182968
H6    H     H_    0.065746 0.499883 0.304181 0.147236
H7    H     H_    0.258330 0.109081 0.216800 0.168055
H8    H     H_    0.400201 0.108165 0.168786 0.179625
H9    H     H_    0.399183 0.888267 0.168945 0.182653
H10   H     H_    0.257434 0.887744 0.217221 0.173301
H11   H     H_    0.641505 0.640746 0.163179 0.142355
H12   H     H_    0.641494 0.640752 0.910570 0.142666
H13   H     H_    0.238371 0.484456 0.812600 0.212674
H14   H     H_    0.256010 0.309819 0.815540 0.202953
H15   H     H_    0.238341 0.484715 0.053859 0.218583
H16   H     H_    0.255321 0.310256 0.057450 0.206573
H17   H     H_    0.123759 0.582422 0.613309 0.176426
H18   H     H_    0.934880 0.512057 0.695751 0.151328
N1    N     N_R   0.499160 0.499140 0.142600 -0.104452
N2    N     N_R   0.499160 0.499180 0.856960 -0.105271
N3    N     N_3   0.355240 0.133347 0.247831 -0.443850
N4    N     N_3   0.354244 0.863811 0.248201 -0.429837
O1    O     O_R   0.500020 0.316790 0.614700 -0.620627
O2    O     O_R   0.500000 0.316760 0.385350 -0.592126
O3    O     O_R   0.317820 0.500020 0.571850 -0.618514
O4    O     O_R   0.317800 0.499980 0.342510 -0.613003
O5    O     O_R   0.500000 0.683240 0.614650 -0.625378
O6    O     O_R   0.499980 0.683210 0.385300 -0.599057
O7    O     O_R   0.682200 0.500020 0.657490 -0.618265
O8    O     O_R   0.682180 0.499980 0.428150 -0.619228
Zn1   Zn    Zn3+2 0.500010 0.500020 0.653140 0.935739
Zn2   Zn    Zn3+2 0.499990 0.499980 0.346860 0.952538

loop_
_geom_bond_atom_site_label_1
_geom_bond_atom_site_label_2
_ccdc_geom_bond_type
C15   C19   A    
C21   H4    S    
C3    N2    A    
C6    C7    S    
C8    O6    A    
C14   H5    S    
C7    C22   S    
C19   C20   S    
C9    O7    A    
C12   C15   A    
O3    Zn1   S    
O2    Zn2   S    
C2    C3    A    
H10   N4    S    
C17   N4    S    
O1    Zn1   S    
C13   C14   D    
H7    N3    S    
O4    Zn2   S    
N1    Zn2   S    
C1    C12   S    
C16   N3    S    
C1    O1    A    
O6    Zn2   S    
C9    O8    A    
O5    Zn1   S    
C2    H11   S    
C7    H16   S    
O8    Zn2   S    
C17   C18   A    
C10   C11   D    
C21   H1    S    
N2    Zn1   S    
C7    H15   S    
C5    C6    S    
H8    N3    S    
C11   C14   S    
C1    O2    A    
C22   N1    A    
H9    N4    S    
C2    N1    A    
C4    C10   S    
C11   H17   S    
C15   C21   S    
C6    H13   S    
C5    N2    A    
C4    O4    A    
C18   C19   A    
C20   H3    S    
C10   H6    S    
C9    C13   S    
C13   H18   S    
C12   C16   A    
C3    H12   S    
C20   C21   S    
C8    O5    A    
C8    C18   S    
C5    C22   A    
C20   H2    S    
C6    H14   S    
C16   C17   A    
O7    Zn1   S    
C4    O3    A    
