data_mof_unit_7200.cif
_audit_creation_date              2012-12-10T20:34:49-0500
_audit_creation_method            fapswitch 2.2
_symmetry_space_group_name_H-M    P1
_symmetry_Int_Tables_number       1
_space_group_crystal_system       triclinic
_cell_length_a                    10.656722
_cell_length_b                    10.668469
_cell_length_c                    9.859579
_cell_angle_alpha                 90.065994
_cell_angle_beta                  89.972301
_cell_angle_gamma                 90.39107
_cell_volume                      1120.91751108

loop_
_atom_site_label
_atom_site_type_symbol
_atom_type_description
_atom_site_fract_x
_atom_site_fract_y
_atom_site_fract_z
_atom_type_partial_charge
C1    C     C_R   0.497485 0.260022 0.500022 0.863864
C2    C     C_3   0.878162 0.501693 0.498864 0.075045
C3    C     C_3   0.925364 0.626584 0.561353 -0.429646
C4    C     C_3   0.928005 0.490384 0.351428 -0.404472
C5    C     C_R   0.502734 0.064079 0.621906 0.129377
C6    C     C_R   0.481503 0.128351 0.501680 -0.115752
C7    C     C_R   0.439130 0.064303 0.386067 -0.220281
C8    C     C_R   0.438559 0.934579 0.386310 -0.201270
C9    C     C_R   0.480216 0.871350 0.502269 -0.109436
C10   C     C_R   0.501486 0.936405 0.622534 0.167620
C11   C     C_3   0.610366 0.929812 0.717907 -0.491270
C12   C     C_R   0.257669 0.505129 0.499945 0.876388
C13   C     C_3   0.612239 0.071821 0.716299 -0.473750
C14   C     C_R   0.450873 0.400685 0.071272 0.168040
C15   C     C_R   0.559361 0.591975 0.072057 -0.101104
C16   C     C_R   0.559497 0.591881 0.928069 -0.106732
C17   C     C_R   0.450986 0.400292 0.928466 0.210770
C18   C     C_3   0.318050 0.354094 0.924364 -0.064540
C19   C     C_3   0.319027 0.354311 0.078590 -0.495946
C20   C     C_R   0.496818 0.739929 0.500176 0.886041
C21   C     C_R   0.742158 0.500136 0.499680 0.857838
C22   C     C_3   0.071152 0.386381 0.577606 -0.000499
C23   C     C_3   0.926696 0.389716 0.583059 -0.395714
C24   C     C_3   0.069579 0.626275 0.570692 -0.037564
C25   C     C_3   0.070233 0.503364 0.349985 -0.027706
C26   C     C_3   0.120816 0.505214 0.499729 0.050528
H1    H     H_    0.106140 0.389807 0.683819 0.197610
H2    H     H_    0.885776 0.563578 0.285829 0.215741
H3    H     H_    0.106783 0.710713 0.518117 0.170802
H4    H     H_    0.894685 0.706574 0.497213 0.167459
H5    H     H_    0.413625 0.113531 0.294250 0.166598
H6    H     H_    0.412804 0.884699 0.294556 0.189192
H7    H     H_    0.582999 0.890525 0.818056 0.206317
H8    H     H_    0.694944 0.887145 0.671033 0.197902
H9    H     H_    0.587108 0.114180 0.815578 0.206705
H10   H     H_    0.697492 0.112211 0.667441 0.197579
H11   H     H_    0.605384 0.667442 0.126417 0.147565
H12   H     H_    0.606040 0.666887 0.873815 0.144205
H13   H     H_    0.252475 0.423402 0.880661 0.215580
H14   H     H_    0.255022 0.425142 0.121981 0.224592
H15   H     H_    0.312382 0.260106 0.126226 0.197647
H16   H     H_    0.884306 0.300802 0.544468 0.168589
H17   H     H_    0.896347 0.399311 0.690672 0.183694
H18   H     H_    0.882916 0.640630 0.663244 0.206873
H19   H     H_    0.108585 0.421488 0.294588 0.154867
H20   H     H_    0.900369 0.397794 0.307920 0.169255
N1    N     N_R   0.499150 0.499140 0.142800 -0.099313
N2    N     N_R   0.499150 0.499180 0.857150 -0.114460
O1    O     O_R   0.500020 0.316790 0.614690 -0.619019
O2    O     O_R   0.500000 0.316760 0.385350 -0.619984
O3    O     O_R   0.314800 0.500000 0.614670 -0.605327
O4    O     O_R   0.314790 0.499960 0.385330 -0.605485
O5    O     O_R   0.500000 0.683240 0.614650 -0.609399
O6    O     O_R   0.499980 0.683210 0.385310 -0.619022
O7    O     O_R   0.685210 0.500040 0.614670 -0.626750
O8    O     O_R   0.685200 0.500000 0.385330 -0.627333
Zn1   Zn    Zn3+2 0.500010 0.500020 0.653130 0.958750
Zn2   Zn    Zn3+2 0.499990 0.499980 0.346870 0.957726
C27   C     C_3   0.116961 0.260567 0.518549 -0.945188
H21   H     H_    0.087932 0.182695 0.586647 0.257334
H22   H     H_    0.076269 0.242183 0.416843 0.253245
H23   H     H_    0.220713 0.258765 0.510902 0.238092
C28   C     C_3   0.303511 0.223198 0.862823 -0.854559
H24   H     H_    0.374808 0.157755 0.903565 0.242266
H25   H     H_    0.208591 0.185677 0.886517 0.250390
H26   H     H_    0.312890 0.228552 0.751117 0.262623
I1    I     I_    0.125048 0.657474 0.779544 -0.401375
I2    I     I_    0.123580 0.665978 0.228537 -0.411811

loop_
_geom_bond_atom_site_label_1
_geom_bond_atom_site_label_2
_ccdc_geom_bond_type
C21   O8    A    
C2    C4    S    
C18   H13   S    
C28   H25   S    
C25   I2    S    
C6    C7    A    
O3    Zn1   S    
C11   H7    S    
C25   H19   S    
C3    H4    S    
N2    Zn1   S    
C1    O2    A    
C9    C20   S    
C5    C13   S    
C17   N2    A    
C15   N1    A    
C10   C11   S    
C16   N2    A    
C2    C21   S    
C17   C18   S    
C28   H26   S    
O1    Zn1   S    
C27   H21   S    
C22   C27   S    
C4    H20   S    
N1    Zn2   S    
C11   C13   S    
C14   C17   A    
C19   H15   S    
C3    C24   S    
C14   N1    A    
C23   H16   S    
O4    Zn2   S    
C20   O5    A    
C4    H2    S    
O8    Zn2   S    
C13   H9    S    
C2    C3    S    
C22   H1    S    
O7    Zn1   S    
O6    Zn2   S    
C5    C6    A    
C18   C28   S    
C3    H18   S    
C27   H22   S    
C7    H5    S    
C19   H14   S    
C22   C26   S    
C28   H24   S    
C8    H6    S    
C4    C25   S    
C5    C10   A    
C12   O3    A    
C23   H17   S    
C13   H10   S    
C20   O6    A    
C7    C8    A    
C9    C10   A    
C16   H12   S    
C2    C23   S    
C21   O7    A    
O5    Zn1   S    
C22   C23   S    
C18   C19   S    
C27   H23   S    
C1    C6    S    
C24   I1    S    
C12   O4    A    
C25   C26   S    
C24   H3    S    
C1    O1    A    
C14   C19   S    
C11   H8    S    
C15   H11   S    
C15   C16   A    
C12   C26   S    
C8    C9    A    
C24   C26   S    
O2    Zn2   S    
