data_mof_unit_51472.cif
_audit_creation_date              2012-12-11T15:36:47-0500
_audit_creation_method            fapswitch 2.2
_symmetry_space_group_name_H-M    P1
_symmetry_Int_Tables_number       1
_space_group_crystal_system       triclinic
_cell_length_a                    8.467032
_cell_length_b                    17.627877
_cell_length_c                    19.395854
_cell_angle_alpha                 101.504351
_cell_angle_beta                  94.963686
_cell_angle_gamma                 98.330048
_cell_volume                      2786.8962546

loop_
_atom_site_label
_atom_site_type_symbol
_atom_type_description
_atom_site_fract_x
_atom_site_fract_y
_atom_site_fract_z
_atom_type_partial_charge
Ba1   Ba    Ba6+2 0.162080 0.538580 0.468810 1.856938
Ba2   Ba    Ba6+2 0.648090 0.461410 0.531130 1.913693
C1    C     C_3   0.361147 0.757582 0.231627 -0.271102
C2    C     C_3   0.408097 0.727274 0.297385 0.301557
C3    C     C_3   0.595174 0.700737 0.653570 0.651864
C4    C     C_3   0.666627 0.785553 0.687775 -0.199976
C5    C     C_3   0.907125 0.261012 0.714418 0.723416
C6    C     C_3   0.809528 0.178391 0.689079 0.309079
C7    C     C_3   0.378252 0.286699 0.720845 0.730765
C8    C     C_3   0.370026 0.246849 0.784028 -0.215324
C9    C     C_2   0.751874 0.723878 0.489351 -0.244054
C10   C     C_3   0.667203 0.774547 0.449049 -0.024947
C11   C     C_2   0.720773 0.861070 0.476009 -0.069463
C12   C     C_3   0.953730 0.755588 0.336924 0.312752
C13   C     C_2   0.864763 0.888554 0.515080 -0.011541
C14   C     C_2   0.957852 0.828696 0.538973 -0.136863
C15   C     C_1   0.893327 0.752118 0.527672 0.028715
C16   C     C_R   0.075477 0.148500 0.553997 -0.273128
C17   C     C_R   0.156953 0.219604 0.545615 -0.040648
C18   C     C_R   0.914561 0.244119 0.477586 -0.091265
C19   C     C_R   0.842807 0.163343 0.474929 0.335033
C20   C     C_R   0.923210 0.116450 0.516144 -0.043078
C21   C     C_2   0.938355 0.974345 0.524625 -0.071093
C22   C     C_2   0.851911 0.033715 0.520300 0.026624
C23   C     C_3   0.001577 0.838971 0.326167 0.377439
C24   C     C_R   0.079107 0.263626 0.504573 0.121094
C25   C     C_R   0.599306 0.541315 0.302613 -0.227632
C26   C     C_R   0.444257 0.499535 0.277370 -0.000808
C27   C     C_R   0.386069 0.493912 0.203956 0.368342
C28   C     C_R   0.490728 0.519732 0.156525 -0.001049
C29   C     C_R   0.649967 0.555659 0.184108 -0.187190
C30   C     C_R   0.704743 0.566354 0.256376 0.060832
C31   C     C_R   0.463677 0.580169 0.049612 -0.127243
C32   C     C_R   0.419808 0.578581 0.977372 -0.032844
C33   C     C_R   0.343315 0.508813 0.930996 -0.001544
C34   C     C_3   0.844147 0.296763 0.283085 0.637769
C35   C     C_R   0.315939 0.441123 0.958206 -0.144532
C36   C     C_R   0.362436 0.440456 0.029420 0.402056
C37   C     C_R   0.436097 0.511968 0.078061 0.028226
C38   C     C_R   0.136952 0.461817 0.823632 -0.074388
C39   C     C_R   0.090414 0.448011 0.750460 0.013498
C40   C     C_R   0.348951 0.518525 0.735136 0.017395
C41   C     C_R   0.395300 0.533663 0.809030 -0.126071
C42   C     C_R   0.290981 0.503340 0.853919 0.003080
C43   C     C_R   0.198805 0.474046 0.706566 -0.248842
C44   C     C_3   0.781035 0.228584 0.218730 0.274859
C45   C     C_3   0.090338 0.651853 0.689783 0.668444
C46   C     C_3   0.183405 0.694357 0.761764 0.382942
C47   C     C_3   0.326920 0.276437 0.295793 0.704164
C48   C     C_3   0.322213 0.219222 0.224789 -0.249502
H1    H     H_    0.346954 0.665411 0.289500 0.040886
H2    H     H_    0.648449 0.219199 0.209723 0.068464
H3    H     H_    0.815782 0.174020 0.230823 0.071844
H4    H     H_    0.178283 0.625961 0.656724 -0.119358
H5    H     H_    0.286673 0.736691 0.753394 -0.028528
H6    H     H_    0.230864 0.651394 0.788895 -0.047413
H7    H     H_    0.249733 0.241664 0.325658 0.072424
H8    H     H_    0.410032 0.724816 0.185496 0.065712
H9    H     H_    0.196744 0.199323 0.199496 0.161416
H10   H     H_    0.370796 0.166114 0.233342 0.070274
H11   H     H_    0.395047 0.245934 0.188785 0.216328
H12   H     H_    0.540555 0.729109 0.302320 0.002821
H13   H     H_    0.410152 0.821000 0.239572 0.174388
H14   H     H_    0.696524 0.669847 0.637693 -0.011299
H15   H     H_    0.747834 0.787746 0.736318 0.182785
H16   H     H_    0.735882 0.812977 0.650485 0.039644
H17   H     H_    0.569473 0.819630 0.702520 0.106165
H18   H     H_    0.228616 0.749079 0.219783 0.161271
H19   H     H_    0.976769 0.272164 0.670253 -0.134128
H20   H     H_    0.731714 0.176021 0.639131 0.003286
H21   H     H_    0.893042 0.135353 0.678063 -0.007998
H22   H     H_    0.256307 0.298510 0.705067 -0.115352
H23   H     H_    0.322893 0.283838 0.828226 0.100321
H24   H     H_    0.491620 0.237451 0.803133 0.175670
H25   H     H_    0.026430 0.750446 0.385844 -0.002531
H26   H     H_    0.289184 0.189182 0.768097 0.109505
H27   H     H_    0.722625 0.021442 0.519484 0.116140
H28   H     H_    0.078448 0.848676 0.566491 0.098311
H29   H     H_    0.135814 0.116120 0.587033 0.096255
H30   H     H_    0.068556 0.987101 0.529684 0.089116
H31   H     H_    0.652441 0.899582 0.453777 0.137903
H32   H     H_    0.711744 0.660956 0.473508 0.033198
H33   H     H_    0.512385 0.567354 0.830965 0.110475
H34   H     H_    0.824252 0.745618 0.343236 -0.067843
H35   H     H_    0.443155 0.632221 0.958103 0.118445
H36   H     H_    0.519972 0.635595 0.083776 0.101795
H37   H     H_    0.261643 0.386533 0.922157 0.122507
H38   H     H_    0.052334 0.440721 0.857125 0.085277
H39   H     H_    0.732818 0.574457 0.148938 0.123431
H40   H     H_    0.161717 0.464174 0.650265 0.060064
H41   H     H_    0.643416 0.548365 0.357929 0.070283
H42   H     H_    0.006779 0.881377 0.377348 -0.027618
H43   H     H_    0.122575 0.846102 0.308102 0.052694
H44   H     H_    0.972163 0.297291 0.287401 0.009418
O1    O     O_2   0.166667 0.691630 0.546720 -0.414431
O2    O     O_3   0.261222 0.342833 0.286092 -0.579724
O3    O     O_3   0.984616 0.701143 0.278422 -0.596154
O4    O     O_2   0.643630 0.308330 0.453260 -0.359434
O5    O     O_3   0.916470 0.406310 0.458240 -0.449523
O6    O     O_3   0.419940 0.355340 0.582140 -0.369464
O7    O     O_3   0.764610 0.278994 0.340593 -0.606848
O8    O     O_3   0.383960 0.539280 0.585630 -0.442746
O9    O     O_3   0.845010 0.394580 0.619730 -0.520043
O10   O     O_2   0.769731 0.460337 0.745711 -0.387074
O11   O     O_3   0.801982 0.315307 0.731055 -0.553009
O12   O     O_3   0.893830 0.593690 0.541700 -0.518366
O13   O     O_3   0.426330 0.460710 0.414310 -0.417866
O14   O     O_2   0.638540 0.536570 0.671920 -0.413819
O15   O     O_3   0.514678 0.667561 0.703585 -0.653355
O16   O     O_2   0.482714 0.214381 0.535015 -0.406852
O17   O     O_3   0.433644 0.236084 0.666313 -0.597428
O18   O     O_3   0.390350 0.644650 0.417800 -0.517697
O19   O     O_2   0.358553 0.783641 0.494424 -0.441177
O20   O     O_3   0.019146 0.706364 0.659538 -0.631903
O21   O     O_3   0.361137 0.773935 0.357513 -0.597652
O22   O     O_2   0.171750 0.463380 0.328050 -0.447364
O23   O     O_3   0.965290 0.605410 0.380210 -0.473403
O24   O     O_2   0.035835 0.558303 0.251335 -0.379832
P1    P     P_3+3 0.992230 0.679190 0.566750 0.993318
P2    P     P_3+3 0.339610 0.439630 0.337240 1.195938
P3    P     P_3+3 0.919677 0.606455 0.290786 1.083513
P4    P     P_3+3 0.818060 0.320800 0.433200 1.216428
P5    P     P_3+3 0.881134 0.405147 0.712006 1.040095
P6    P     P_3+3 0.444446 0.745796 0.432368 0.976964
P7    P     P_3+3 0.470444 0.565213 0.675278 1.014563
P8    P     P_3+3 0.371524 0.255198 0.584003 1.103857
S1    S     S_3+6 0.858057 0.238638 0.137126 -0.005121
O25   O     O_2   0.027046 0.282597 0.150942 -0.261928
O26   O     O_2   0.856012 0.158267 0.092484 -0.216610
O27   O     O_3   0.741340 0.287040 0.093215 -0.437965
H45   H     H_    0.790068 0.289737 0.048975 0.376758
O28   O     O_3   0.970750 0.592990 0.700140 -0.716213
H46   H     H_    0.948334 0.552774 0.655342 0.296015
S2    S     S_3+6 0.063994 0.747414 0.819567 -0.007607
O29   O     O_2   0.901462 0.699097 0.817611 -0.233927
O30   O     O_2   0.147319 0.766322 0.894030 -0.247611
O31   O     O_3   0.041571 0.831514 0.794396 -0.495077
H47   H     H_    0.152405 0.859740 0.796296 0.337278
O32   O     O_3   0.480754 0.296438 0.329403 -0.654136
H48   H     H_    0.499784 0.246892 0.342653 0.337397
O33   O     O_3   0.485681 0.700763 0.595191 -0.710362
H49   H     H_    0.508067 0.660991 0.555031 0.285903
S3    S     S_3+6 0.859874 0.862124 0.263207 -0.033935
O34   O     O_2   0.711108 0.876291 0.297273 -0.319160
O35   O     O_2   0.931555 0.935149 0.240762 -0.209600
O36   O     O_3   0.812773 0.787509 0.191880 -0.505924
H50   H     H_    0.716727 0.798897 0.165425 0.360355
O37   O     O_3   0.015105 0.263861 0.774352 -0.787092
H51   H     H_    0.952080 0.263379 0.815171 0.347437
O38   O     O_3   0.714275 0.159324 0.740709 -0.685555
H52   H     H_    0.650021 0.106774 0.719760 0.309504
O39   O     O_3   0.486701 0.357391 0.739545 -0.671373
H53   H     H_    0.454672 0.388458 0.782899 0.264968
S4    S     S_3+6 0.690037 0.114626 0.404096 -0.052058
O40   O     O_2   0.538922 0.148951 0.410446 -0.292286
O41   O     O_2   0.751782 0.125205 0.335988 -0.296349
O42   O     O_3   0.642526 0.017556 0.398074 -0.506808
H54   H     H_    0.551889 0.999547 0.359639 0.387052
S5    S     S_3+6 0.198769 0.327309 0.466428 -0.100429
O43   O     O_2   0.220663 0.407795 0.512146 -0.303940
O44   O     O_2   0.355407 0.302665 0.452780 -0.252731
O45   O     O_3   0.110774 0.323720 0.388601 -0.646146
H55   H     H_    0.096822 0.377305 0.389596 0.369726
O46   O     O_3   0.229020 0.464452 0.176410 -0.650503
H56   H     H_    0.185773 0.426957 0.203983 0.391138
S6    S     S_3+6 0.336132 0.344579 0.046227 -0.004259
O47   O     O_2   0.457976 0.301709 0.010577 -0.228182
O48   O     O_2   0.353429 0.342067 0.122777 -0.270128
O49   O     O_3   0.152217 0.297128 0.009255 -0.431902
H57   H     H_    0.078071 0.333711 0.025631 0.345822
S7    S     S_3+6 0.799376 0.385980 0.265984 -0.064751
O50   O     O_2   0.826308 0.445780 0.334297 -0.333196
O51   O     O_2   0.905177 0.412940 0.214670 -0.276442
O52   O     O_3   0.608433 0.372347 0.230167 -0.561024
H58   H     H_    0.615982 0.386847 0.183803 0.388567

loop_
_geom_bond_atom_site_label_1
_geom_bond_atom_site_label_2
_ccdc_geom_bond_type
C7    O17   S    
S3    O36   S    
S7    O50   D    
C7    O39   S    
C23   H43   S    
O42   H54   S    
C2    H12   S    
O12   P1    S    
C46   H5    S    
C41   H33   S    
O49   H57   S    
C47   O32   S    
C2    O21   S    
C1    H18   S    
C7    H22   S    
C12   H34   S    
C41   C42   A    
O8    P7    S    
O9    P5    S    
Ba1   O5    S    
S2    O31   S    
C5    C6    S    
O10   P5    D    
S7    O51   D    
C31   C37   A    
C19   S4    S    
C3    O15   S    
O6    P8    S    
C48   H9    S    
C46   S2    S    
C26   C27   A    
C33   C35   A    
C35   C36   A    
Ba1   Ba2   S    
Ba1   O18   S    
C3    C4    S    
C8    H23   S    
Ba2   O8    S    
S3    O34   D    
C44   H2    S    
Ba2   O13   S    
C47   H7    S    
O11   P5    S    
C46   H6    S    
C32   C33   A    
Ba1   P1    S    
C17   C24   A    
O23   P3    S    
O52   H58   S    
O3    P3    S    
C40   P7    S    
C8    H26   S    
C4    H15   S    
S3    O35   D    
C45   C46   S    
C14   C15   D    
C29   H39   S    
C21   C22   D    
C5    O11   S    
C25   H41   S    
Ba1   O22   S    
C21   H30   S    
C23   H42   S    
C7    C8    S    
C18   P4    S    
O20   P1    S    
Ba1   O12   S    
C13   C21   S    
Ba2   O6    S    
C12   C23   S    
C19   C20   A    
S6    O48   D    
C27   O46   S    
C23   S3    S    
O2    P2    S    
Ba2   P4    S    
C9    H32   S    
S7    O52   S    
C13   C14   S    
C2    H1    S    
C44   S1    S    
O37   H51   S    
S4    O42   S    
C26   P2    S    
C16   C17   A    
S2    O30   D    
O1    P1    D    
Ba2   O12   S    
O22   P2    D    
C3    H14   S    
C34   O7    S    
C32   H35   S    
C6    O38   S    
C31   H36   S    
S1    O26   D    
C5    H19   S    
C27   C28   A    
C33   C42   S    
C3    O33   S    
S5    O43   D    
C10   P6    S    
C38   C42   A    
C16   H29   S    
Ba1   O1    S    
C11   H31   S    
O17   P8    S    
S5    O44   D    
C31   C32   A    
S5    O45   S    
C24   S5    S    
Ba1   O23   S    
C18   C19   A    
C34   C44   S    
C43   H40   S    
S4    O40   D    
Ba1   O13   S    
C45   H4    S    
O4    P4    D    
O15   P7    S    
C38   C39   A    
O16   P8    D    
Ba2   O5    S    
O5    P4    S    
S6    O47   D    
O14   P7    D    
C20   C22   S    
C40   C41   A    
C1    C2    S    
O13   P2    S    
C12   O3    S    
O36   H50   S    
C36   S6    S    
O46   H56   S    
C34   S7    S    
O21   P6    S    
C25   C30   A    
C16   C20   A    
O24   P3    D    
S4    O41   D    
C30   P3    S    
C35   H37   S    
C29   C30   A    
C45   O20   S    
C9    C15   D    
C5    O37   S    
O32   H48   S    
C40   C43   A    
O18   P6    S    
S2    O29   D    
C1    H13   S    
O45   H55   S    
O31   H47   S    
C17   P8    S    
C6    H20   S    
O7    P4    S    
C45   O28   S    
C48   H10   S    
C12   H25   S    
C39   P5    S    
C11   C13   D    
O27   H45   S    
S1    O27   S    
C4    H17   S    
O33   H49   S    
C8    H24   S    
C28   C29   A    
C38   H38   S    
C36   C37   A    
O19   P6    D    
C18   C24   A    
Ba2   O9    S    
C44   H3    S    
Ba2   O14   S    
C28   C37   S    
O28   H46   S    
C14   H28   S    
C47   O2    S    
C15   P1    S    
C1    H8    S    
C34   H44   S    
C22   H27   S    
C4    H16   S    
C10   C11   S    
Ba2   O4    S    
S6    O49   S    
C47   C48   S    
C25   C26   A    
C48   H11   S    
C39   C43   A    
O38   H52   S    
O39   H53   S    
Ba1   O8    S    
Ba1   P2    S    
S1    O25   D    
C9    C10   S    
C6    H21   S    
