data_mof_unit_49880.cif
_audit_creation_date              2012-12-10T17:14:40-0500
_audit_creation_method            fapswitch 2.2
_symmetry_space_group_name_H-M    P1
_symmetry_Int_Tables_number       1
_space_group_crystal_system       triclinic
_cell_length_a                    10.697678
_cell_length_b                    13.078912
_cell_length_c                    11.788069
_cell_angle_alpha                 97.502459
_cell_angle_beta                  92.585885
_cell_angle_gamma                 92.478549
_cell_volume                      1631.51979252

loop_
_atom_site_label
_atom_site_type_symbol
_atom_type_description
_atom_site_fract_x
_atom_site_fract_y
_atom_site_fract_z
_atom_type_partial_charge
C1    C     C_R   0.504260 0.300301 0.481698 0.816921
C2    C     C_R   0.495765 0.699701 0.518301 0.816880
C3    C     C_R   0.506766 0.135212 0.573946 0.099179
C4    C     C_R   0.493302 0.864793 0.426048 0.099152
C5    C     C_R   0.485026 0.026991 0.553733 0.031689
C6    C     C_R   0.515052 0.973013 0.446259 0.031681
C7    C     C_R   0.346856 0.440726 0.032703 0.040335
C8    C     C_R   0.653163 0.559226 0.967301 0.040447
C9    C     C_R   0.370171 0.433759 0.151428 0.312168
C10   C     C_R   0.629839 0.566218 0.848580 0.312037
C11   C     C_R   0.577572 0.494859 0.144467 0.252173
C12   C     C_R   0.422430 0.505113 0.855532 0.252106
C13   C     C_R   0.558975 0.513123 0.028220 -0.048949
C14   C     C_R   0.441030 0.486853 0.971782 -0.049028
C15   C     C_R   0.259642 0.498524 0.500512 0.808635
C16   C     C_R   0.740354 0.501450 0.499483 0.808627
C17   C     C_3   0.039769 0.433666 0.569287 0.144454
C18   C     C_3   0.960218 0.566245 0.430691 0.144107
C19   C     C_3   0.950107 0.405092 0.462776 0.155704
C20   C     C_3   0.049873 0.594824 0.537199 0.155678
C21   C     C_3   0.877322 0.501364 0.499923 -0.141796
C22   C     C_3   0.122664 0.498560 0.500056 -0.141906
C23   C     C_3   0.966304 0.530328 0.608060 -0.183461
C24   C     C_3   0.033684 0.469588 0.391925 -0.183731
C25   C     C_R   0.482622 0.811264 0.523184 -0.114587
C26   C     C_R   0.517450 0.188742 0.476814 -0.114551
C27   C     C_R   0.564260 0.029787 0.362814 0.130990
C28   C     C_R   0.435804 0.970215 0.637169 0.130976
C29   C     C_R   0.552198 0.135273 0.373845 -0.204148
C30   C     C_R   0.447880 0.864735 0.626152 -0.204049
Cu1   Cu    Cu3+1 0.509400 0.507730 0.615930 0.973745
Cu2   Cu    Cu3+1 0.490600 0.492270 0.384070 0.973695
H1    H     H_    0.939731 0.553519 0.697128 0.185527
H2    H     H_    0.060235 0.446416 0.302847 0.185689
H3    H     H_    0.419493 0.823178 0.695244 0.211200
H4    H     H_    0.580569 0.176832 0.304748 0.211200
N1    N     N_R   0.523540 0.519360 0.790140 -0.217964
N2    N     N_R   0.476460 0.480640 0.209860 -0.218018
O1    O     O_R   0.506670 0.354460 0.582000 -0.590882
O2    O     O_R   0.493330 0.645540 0.418000 -0.590878
O3    O     O_R   0.490800 0.341410 0.386200 -0.540299
O4    O     O_R   0.509200 0.658590 0.613800 -0.540295
O5    O     O_R   0.324790 0.506500 0.597880 -0.574716
O6    O     O_R   0.675210 0.493500 0.402120 -0.574737
O7    O     O_R   0.308910 0.493440 0.402080 -0.570427
O8    O     O_R   0.691090 0.506560 0.597920 -0.570393
C31   C     C_3   0.885350 0.298648 0.423233 -0.406559
C32   C     C_3   0.974368 0.221942 0.367139 -0.717083
H5    H     H_    0.002702 0.245617 0.284705 0.275347
H6    H     H_    0.058737 0.216977 0.423917 0.248069
H7    H     H_    0.925990 0.144303 0.349245 0.264238
H8    H     H_    0.843724 0.267984 0.496743 0.193961
H9    H     H_    0.806620 0.306067 0.361620 0.236413
C33   C     C_3   0.114555 0.701309 0.576649 -0.406539
C34   C     C_3   0.025498 0.777951 0.632813 -0.716914
H10   H     H_    0.941033 0.782860 0.576104 0.248020
H11   H     H_    0.997276 0.754244 0.715281 0.275317
H12   H     H_    0.073816 0.855619 0.650654 0.264219
H13   H     H_    0.193384 0.693956 0.638193 0.236330
H14   H     H_    0.155984 0.731979 0.503038 0.194285
C35   C     C_3   0.092000 0.361632 0.650023 -0.368663
C36   C     C_3   0.989171 0.312250 0.713456 -0.826175
H15   H     H_    0.917180 0.368065 0.739850 0.256356
H16   H     H_    0.945326 0.243727 0.658839 0.254807
H17   H     H_    0.029425 0.285342 0.791607 0.258640
H18   H     H_    0.145070 0.300806 0.601554 0.203319
H19   H     H_    0.158595 0.407500 0.713022 0.227308
C37   C     C_3   0.908143 0.638253 0.349847 -0.368265
C38   C     C_3   0.011134 0.687733 0.286652 -0.826336
H20   H     H_    0.053815 0.757018 0.340841 0.254872
H21   H     H_    0.084043 0.632346 0.261655 0.256296
H22   H     H_    0.971331 0.713427 0.207640 0.258526
H23   H     H_    0.841743 0.592329 0.286714 0.227207
H24   H     H_    0.854890 0.699032 0.398182 0.203254
C39   C     C_3   0.454943 0.812993 0.304670 -0.331539
C40   C     C_3   0.318114 0.772736 0.294266 -0.804303
H25   H     H_    0.293873 0.737201 0.204735 0.256192
H26   H     H_    0.299286 0.713808 0.351431 0.254262
H27   H     H_    0.256507 0.837970 0.315943 0.249926
H28   H     H_    0.458664 0.868288 0.241544 0.234999
H29   H     H_    0.518359 0.751566 0.275048 0.224431
C41   C     C_3   0.545014 0.187027 0.695332 -0.331649
C42   C     C_3   0.681820 0.227341 0.705846 -0.804485
H30   H     H_    0.700691 0.286352 0.648797 0.254445
H31   H     H_    0.705989 0.262804 0.795392 0.256217
H32   H     H_    0.743428 0.162172 0.684209 0.249965
H33   H     H_    0.481551 0.248431 0.724894 0.224442
H34   H     H_    0.541255 0.131724 0.758454 0.235013
I1    I     I_    0.687542 0.972178 0.235346 -0.444237
I2    I     I_    0.312411 0.027784 0.764545 -0.444410
I3    I     I_    0.277358 0.609152 0.838532 -0.424490
I4    I     I_    0.722509 0.390704 0.161407 -0.424559
I5    I     I_    0.732784 0.686326 0.778539 -0.389684
I6    I     I_    0.267183 0.313697 0.221526 -0.389800
C43   C     C_3   0.232707 0.383062 0.969346 -0.409300
C44   C     C_3   0.267144 0.277550 0.911331 -0.728127
H35   H     H_    0.337363 0.242381 0.964643 0.287753
H36   H     H_    0.182909 0.224185 0.897850 0.264085
H37   H     H_    0.305885 0.285654 0.827188 0.237103
H38   H     H_    0.155626 0.373862 0.027390 0.227127
H39   H     H_    0.189852 0.426323 0.905258 0.220919
C45   C     C_3   0.767393 0.616776 0.030659 -0.409455
C46   C     C_3   0.733035 0.722190 0.089027 -0.727946
H40   H     H_    0.817323 0.775507 0.102572 0.264161
H41   H     H_    0.662721 0.757519 0.035904 0.287710
H42   H     H_    0.694423 0.713885 0.173204 0.237004
H43   H     H_    0.810363 0.573330 0.094527 0.220754
H44   H     H_    0.844391 0.626143 0.972564 0.227046

loop_
_geom_bond_atom_site_label_1
_geom_bond_atom_site_label_2
_ccdc_geom_bond_type
C34   H10   S    
C16   C21   S    
Cu1   O4    S    
C27   C29   A    
C18   C21   S    
Cu2   O7    S    
C12   I3    S    
C43   C44   S    
C40   H27   S    
C4    C25   A    
C15   C22   S    
C33   H14   S    
C29   H4    S    
C17   C23   S    
Cu1   O5    S    
C30   H3    S    
C10   N1    A    
C18   C24   S    
C19   C21   S    
C40   H26   S    
C5    C6    A    
C19   C31   S    
C18   C37   S    
C37   H24   S    
C41   H33   S    
C44   H37   S    
C12   N1    A    
C38   H21   S    
C4    C39   S    
C36   H16   S    
C17   C35   S    
C35   H18   S    
C7    C14   A    
C42   H30   S    
C37   C38   S    
C23   H1    S    
Cu1   O8    S    
C44   H36   S    
Cu2   O3    S    
C45   H44   S    
Cu2   N2    S    
C2    C25   S    
C39   H28   S    
C16   O6    A    
C31   H9    S    
C32   H6    S    
C13   C14   A    
C20   C33   S    
C38   H20   S    
C11   I4    S    
C33   H13   S    
C32   H7    S    
C45   C46   S    
C31   C32   S    
C40   H25   S    
C4    C6    A    
C16   O8    A    
C43   H38   S    
C39   H29   S    
C10   I5    S    
C37   H23   S    
C24   H2    S    
Cu1   N1    S    
C11   N2    A    
C39   C40   S    
C36   H15   S    
C5    C28   A    
C35   H19   S    
C6    C27   A    
C20   C23   S    
C44   H35   S    
C3    C41   S    
Cu2   O6    S    
C45   H43   S    
C46   H41   S    
C1    O3    A    
C32   H5    S    
C42   H31   S    
C20   C22   S    
C34   H11   S    
C1    C26   S    
C22   C24   S    
C15   O7    A    
C38   H22   S    
C25   C30   A    
C7    C9    A    
C33   C34   S    
C36   H17   S    
Cu1   Cu2   S    
C12   C14   A    
C3    C5    A    
C31   H8    S    
C3    C26   A    
C7    C43   S    
C17   C22   S    
C21   C23   S    
C19   C24   S    
C15   O5    A    
C11   C13   A    
C2    O4    A    
C41   H34   S    
C28   C30   A    
C9    N2    A    
C17   C19   S    
Cu1   O1    S    
C27   I1    S    
C46   H42   S    
C18   C20   S    
Cu2   O2    S    
C35   C36   S    
C1    O1    A    
C8    C13   A    
C2    O2    A    
C42   H32   S    
C26   C29   A    
C8    C10   A    
C41   C42   S    
C34   H12   S    
C46   H40   S    
C28   I2    S    
C8    C45   S    
C9    I6    S    
C43   H39   S    
