data_mof_unit_35617.cif
_audit_creation_date              2012-10-26T20:50:48-0400
_audit_creation_method            fapswitch 2.2
_symmetry_space_group_name_H-M    P1
_symmetry_Int_Tables_number       1
_space_group_crystal_system       triclinic
_cell_length_a                    11.073054
_cell_length_b                    10.876
_cell_length_c                    9.555756
_cell_angle_alpha                 91.485401
_cell_angle_beta                  103.161844
_cell_angle_gamma                 90.184343
_cell_volume                      1120.14831696

loop_
_atom_site_label
_atom_site_type_symbol
_atom_type_description
_atom_site_fract_x
_atom_site_fract_y
_atom_site_fract_z
_atom_type_partial_charge
C1    C     C_R   0.499095 0.262711 0.498000 0.567704
C2    C     C_R   0.404509 0.449370 0.047633 0.003185
C3    C     C_R   0.404375 0.449570 0.898922 0.024352
C4    C     C_R   0.262711 0.500697 0.441254 0.553452
C5    C     C_R   0.602911 0.537749 0.954698 0.157331
C6    C     C_3   0.657562 0.664383 0.971554 -0.023491
C7    C     C_3   0.658402 0.663911 0.130087 -0.206080
C8    C     C_R   0.502423 0.737930 0.501734 0.554748
C9    C     C_R   0.737543 0.497950 0.558977 0.568388
C10   C     C_2   0.127497 0.503215 0.407892 -0.134136
C11   C     C_2   0.068670 0.503943 0.515412 -0.140720
C12   C     C_R   0.506530 0.130308 0.495284 -0.020896
C13   C     C_2   0.873603 0.491907 0.593855 0.093183
C14   C     C_2   0.933702 0.506658 0.487847 -0.098271
C15   C     C_R   0.557953 0.069249 0.620147 0.062515
C16   C     C_R   0.470498 0.060937 0.366485 -0.152305
C17   C     C_R   0.470783 0.932380 0.369692 -0.149709
C18   C     C_R   0.509549 0.871745 0.501305 -0.038313
C19   C     C_R   0.564735 0.943149 0.623300 0.002870
C20   C     C_3   0.559018 0.943857 0.778494 0.276826
C21   C     C_3   0.544517 0.082937 0.771239 0.507714
C22   C     C_R   0.601967 0.539133 0.102344 0.135919
Cu1   Cu    Cu3+1 0.499990 0.499980 0.640670 0.995305
Cu2   Cu    Cu3+1 0.500010 0.500020 0.359330 0.957911
F1    F     F_    0.640948 0.149660 0.858476 -0.542890
F2    F     F_    0.673401 0.914991 0.863976 -0.582564
H1    H     H_    0.882843 0.521425 0.378190 0.127448
H2    H     H_    0.435289 0.881021 0.270069 0.144343
H3    H     H_    0.478676 0.892441 0.800436 0.046985
H4    H     H_    0.775529 0.672381 0.835134 0.285354
H5    H     H_    0.833281 0.593613 0.985769 0.218887
H6    H     H_    0.881076 0.458327 0.806803 0.252474
H7    H     H_    0.982873 0.381426 0.735487 0.234393
H8    H     H_    0.415016 0.113927 0.889732 0.230975
H9    H     H_    0.352561 0.072426 0.717420 0.171421
H10   H     H_    0.326293 0.409941 0.081274 0.120112
H11   H     H_    0.326044 0.410092 0.821945 0.128549
H12   H     H_    0.591893 0.730012 0.910457 0.202943
H13   H     H_    0.752423 0.662246 0.202454 0.146744
H14   H     H_    0.594791 0.733000 0.160977 0.145924
H15   H     H_    0.121158 0.502626 0.626219 0.183069
H16   H     H_    0.076244 0.504425 0.296456 0.109875
H17   H     H_    0.435663 0.105287 0.265201 0.147410
N1    N     N_R   0.500780 0.500930 0.148120 -0.239141
N2    N     N_R   0.500790 0.500890 0.852210 -0.239067
N3    N     N_3   0.782764 0.671330 0.945952 -0.544547
N4    N     N_3   0.941356 0.467435 0.738163 -0.645189
N5    N     N_3   0.422205 0.126340 0.783793 -0.598254
O1    O     O_R   0.500000 0.319640 0.618810 -0.440061
O2    O     O_R   0.500010 0.319680 0.381230 -0.503320
O3    O     O_R   0.320680 0.500000 0.575130 -0.516950
O4    O     O_R   0.320690 0.500040 0.337550 -0.505812
O5    O     O_R   0.499990 0.680320 0.618770 -0.511318
O6    O     O_R   0.500000 0.680360 0.381190 -0.511289
O7    O     O_R   0.679310 0.499960 0.662450 -0.501858
O8    O     O_R   0.679320 0.500000 0.424870 -0.512126

loop_
_geom_bond_atom_site_label_1
_geom_bond_atom_site_label_2
_ccdc_geom_bond_type
C8    O5    A    
Cu2   O4    S    
C7    H14   S    
C6    H12   S    
Cu1   O7    S    
C6    C7    S    
Cu1   N2    S    
C14   H1    S    
Cu2   O8    S    
C7    C22   S    
C1    O2    A    
Cu1   O3    S    
C19   C20   S    
C12   C15   A    
Cu1   Cu2   S    
C21   N5    S    
C2    H10   S    
C2    C3    A    
C9    O8    A    
C13   C14   D    
C15   C19   A    
C16   H17   S    
C21   F1    S    
C1    C12   S    
C20   F2    S    
C4    O4    A    
C9    O7    A    
H9    N5    S    
C11   C14   S    
Cu2   N1    S    
H4    N3    S    
Cu1   O5    S    
C20   H3    S    
Cu2   O2    S    
C5    C6    S    
H7    N4    S    
H6    N4    S    
C8    C18   S    
Cu1   O1    S    
C10   H16   S    
C10   C11   D    
C4    O3    A    
Cu2   O6    S    
C15   C21   S    
H8    N5    S    
C20   C21   S    
C3    H11   S    
C17   C18   A    
C18   C19   A    
C11   H15   S    
C8    O6    A    
C13   N4    S    
C9    C13   S    
C7    H13   S    
C6    N3    S    
C17   H2    S    
C5    N2    A    
C3    N2    A    
C22   N1    A    
C5    C22   A    
C12   C16   A    
C4    C10   S    
C2    N1    A    
C16   C17   A    
H5    N3    S    
C1    O1    A    
