data_mof_unit_21076.cif
_audit_creation_date              2012-12-10T18:02:05-0500
_audit_creation_method            fapswitch 2.2
_symmetry_space_group_name_H-M    P1
_symmetry_Int_Tables_number       1
_space_group_crystal_system       triclinic
_cell_length_a                    10.833084
_cell_length_b                    9.4898
_cell_length_c                    23.51134
_cell_angle_alpha                 89.999884
_cell_angle_beta                  90.164198
_cell_angle_gamma                 90.000015
_cell_volume                      2417.04518249

loop_
_atom_site_label
_atom_site_type_symbol
_atom_type_description
_atom_site_fract_x
_atom_site_fract_y
_atom_site_fract_z
_atom_type_partial_charge
C1    C     C_R   0.261969 0.500001 0.499960 0.794052
C2    C     C_R   0.738031 0.500001 0.500040 0.794052
C3    C     C_R   0.525521 0.375432 0.238986 -0.123506
C4    C     C_R   0.474474 0.375433 0.761014 -0.123505
C5    C     C_R   0.522402 0.374775 0.298164 -0.215585
C6    C     C_R   0.477594 0.374775 0.701836 -0.215585
C7    C     C_R   0.501642 0.500257 0.328219 -0.052169
C8    C     C_R   0.498358 0.500257 0.671781 -0.052169
C9    C     C_R   0.483422 0.626401 0.298068 -0.257173
C10   C     C_R   0.516583 0.626400 0.701932 -0.257173
C11   C     C_R   0.486389 0.628229 0.238481 0.044261
C12   C     C_R   0.513615 0.628228 0.761518 0.044261
C13   C     C_R   0.507600 0.501027 0.208868 0.327843
C14   C     C_R   0.492399 0.501027 0.791132 0.327842
C15   C     C_R   0.063844 0.371934 0.499969 -0.179176
C16   C     C_R   0.936155 0.628073 0.500033 -0.180216
C17   C     C_R   0.936155 0.371934 0.500031 -0.179175
C18   C     C_R   0.063845 0.628073 0.499967 -0.180215
C19   C     C_R   0.871823 0.500003 0.500048 -0.018761
C20   C     C_R   0.128177 0.500003 0.499952 -0.018760
C21   C     C_R   0.423482 0.074518 0.464459 -0.025642
C22   C     C_R   0.576507 0.925476 0.535547 -0.024271
C23   C     C_R   0.576518 0.074517 0.535541 -0.025642
C24   C     C_R   0.423492 0.925476 0.464452 -0.024272
C25   C     C_R   0.500107 0.500023 0.390830 0.810273
C26   C     C_R   0.499893 0.500023 0.609170 0.810274
C27   C     C_R   0.605893 0.496452 0.879745 0.536592
C28   C     C_R   0.394106 0.496457 0.120255 0.536594
C29   C     C_R   0.385330 0.490738 0.881154 0.504041
C30   C     C_R   0.614669 0.490733 0.118846 0.504041
C31   C     C_R   0.385164 0.490310 0.940797 -0.011449
C32   C     C_R   0.614835 0.490305 0.059203 -0.011449
C33   C     C_R   0.498900 0.491619 0.969999 -0.019217
C34   C     C_R   0.501099 0.491619 0.030001 -0.019218
C35   C     C_R   0.610443 0.493142 0.939343 -0.016636
C36   C     C_R   0.389556 0.493147 0.060657 -0.016636
C37   C     C_R   0.274485 0.489738 0.971788 -0.172121
C38   C     C_R   0.725514 0.489727 0.028212 -0.172121
C39   C     C_R   0.276656 0.491840 0.031117 -0.170260
C40   C     C_R   0.723343 0.491830 0.968882 -0.170261
Cu1   Cu    Cu3+1 0.500000 0.640660 0.500000 0.944876
Cu2   Cu    Cu3+1 0.500000 0.359340 0.500000 0.944283
H1    H     H_    0.185881 0.488866 0.950328 0.187495
H2    H     H_    0.814118 0.488852 0.049672 0.187495
H3    H     H_    0.189665 0.492492 0.053711 0.188005
H4    H     H_    0.810334 0.492477 0.946289 0.188005
H5    H     H_    0.540898 0.277726 0.216294 0.143290
H6    H     H_    0.459094 0.277728 0.783707 0.143290
H7    H     H_    0.536714 0.276075 0.320353 0.161395
H8    H     H_    0.463278 0.276076 0.679647 0.161395
H9    H     H_    0.467335 0.723981 0.320844 0.154587
H10   H     H_    0.532673 0.723979 0.679156 0.154587
H11   H     H_    0.111893 0.271821 0.499939 0.148984
H12   H     H_    0.888106 0.728185 0.500064 0.149039
H13   H     H_    0.888106 0.271821 0.500061 0.148984
H14   H     H_    0.111895 0.728185 0.499936 0.149039
H15   H     H_    0.362264 0.130898 0.436033 0.119428
H16   H     H_    0.637701 0.869090 0.563985 0.115561
H17   H     H_    0.637735 0.130898 0.563967 0.119428
H18   H     H_    0.362299 0.869091 0.436015 0.115561
N1    N     N_R   0.494522 0.496628 0.852081 -0.467967
N2    N     N_R   0.505477 0.496628 0.147919 -0.467967
N3    N     N_R   0.500000 0.852070 0.500000 -0.155303
N4    N     N_R   0.500000 0.147930 0.500000 -0.156561
O1    O     O_R   0.319640 0.618740 0.500000 -0.587902
O2    O     O_R   0.680360 0.381260 0.500000 -0.587874
O3    O     O_R   0.680360 0.618740 0.500000 -0.587902
O4    O     O_R   0.319640 0.381260 0.500000 -0.587874
O5    O     O_R   0.499960 0.618810 0.417880 -0.582964
O6    O     O_R   0.500040 0.381190 0.582120 -0.584249
O7    O     O_R   0.500040 0.618810 0.582120 -0.582964
O8    O     O_R   0.499960 0.381190 0.417880 -0.584248
O9    O     O_2   0.711674 0.499144 0.849593 -0.541275
O10   O     O_2   0.288325 0.499155 0.150407 -0.541275
O11   O     O_2   0.277438 0.487123 0.852360 -0.545138
O12   O     O_2   0.722561 0.487114 0.147640 -0.545138
C41   C     C_R   0.466336 0.763425 0.208251 0.106972
C42   C     C_R   0.556426 0.817373 0.171266 -0.144093
C43   C     C_R   0.537620 0.946192 0.143661 -0.138348
C44   C     C_R   0.429327 0.022617 0.153032 -0.114070
C45   C     C_R   0.339735 0.970415 0.190121 -0.125233
C46   C     C_R   0.358090 0.841518 0.217745 -0.122420
H19   H     H_    0.642036 0.761244 0.164534 0.163899
H20   H     H_    0.607433 0.987263 0.115296 0.143677
H21   H     H_    0.415158 0.122606 0.131809 0.136775
H22   H     H_    0.256091 0.029940 0.197532 0.145500
H23   H     H_    0.287796 0.802271 0.246331 0.137395
C47   C     C_R   0.533672 0.763423 0.791748 0.106972
C48   C     C_R   0.443584 0.817375 0.828733 -0.144093
C49   C     C_R   0.462392 0.946194 0.856337 -0.138352
C50   C     C_R   0.570688 0.022615 0.846966 -0.114069
C51   C     C_R   0.660278 0.970409 0.809878 -0.125230
C52   C     C_R   0.641920 0.841512 0.782254 -0.122421
H24   H     H_    0.357972 0.761250 0.835465 0.163899
H25   H     H_    0.392580 0.987269 0.884701 0.143677
H26   H     H_    0.584859 0.122604 0.868188 0.136777
H27   H     H_    0.743924 0.029932 0.802467 0.145500
H28   H     H_    0.712214 0.802262 0.753669 0.137395

loop_
_geom_bond_atom_site_label_1
_geom_bond_atom_site_label_2
_ccdc_geom_bond_type
C38   C40   A    
C8    C26   S    
Cu1   Cu2   S    
C9    H9    S    
C28   O10   S    
C45   C46   A    
C49   H25   S    
Cu1   O3    S    
C41   C42   A    
C38   H2    S    
C15   H11   S    
C43   H20   S    
C46   H23   S    
Cu2   O6    S    
C1    O4    A    
C7    C9    A    
C48   H24   S    
C21   N4    A    
C11   C41   S    
C33   C35   A    
C50   H26   S    
C42   H19   S    
C13   N2    S    
C1    O1    A    
C31   C33   A    
C32   C38   A    
C27   N1    A    
C17   H13   S    
C34   C36   A    
C45   H22   S    
C3    C13   A    
C18   H14   S    
Cu1   O7    S    
C22   N3    A    
C10   H10   S    
Cu2   O4    S    
C26   O7    A    
C5    H7    S    
C51   H27   S    
C15   C20   A    
C37   C39   A    
C29   N1    A    
C12   C47   S    
C4    C6    A    
C2    O3    A    
C50   C51   A    
C5    C7    A    
C42   C43   A    
C6    C8    A    
C27   C35   A    
C14   N1    S    
C31   C37   A    
C32   C34   A    
C37   H1    S    
C23   H17   S    
C21   H15   S    
C44   H21   S    
C30   O12   S    
C24   H18   S    
C3    C5    A    
Cu2   O8    S    
C33   C34   A    
C25   O8    A    
C6    H8    S    
C9    C11   A    
C10   C12   A    
C8    C10   A    
C23   N4    A    
C12   C14   A    
C24   N3    A    
C30   N2    A    
C26   O6    A    
C25   O5    A    
Cu1   N3    S    
Cu2   N4    S    
Cu1   O5    S    
C4    H6    S    
C15   C17   A    
C47   C52   A    
C1    C20   S    
C2    C19   S    
C36   C39   A    
C44   C45   A    
C2    O2    A    
C22   H16   S    
Cu1   O1    S    
C29   O11   S    
C7    C25   S    
C39   H3    S    
C35   C40   A    
C29   C31   A    
C30   C32   A    
C11   C13   A    
C49   C50   A    
C41   C46   A    
C16   C19   A    
C40   H4    S    
C3    H5    S    
C51   C52   A    
C17   C19   A    
C18   C20   A    
C4    C14   A    
C16   H12   S    
C43   C44   A    
C47   C48   A    
C28   C36   A    
C16   C18   A    
C21   C24   A    
Cu2   O2    S    
C22   C23   A    
C48   C49   A    
C27   O9    S    
C52   H28   S    
C28   N2    A    
