data_mof_unit_8873.cif
_audit_creation_date              2013-03-05T15:53:26-0500
_audit_creation_method            fapswitch 2.2
_symmetry_space_group_name_H-M    P1
_symmetry_Int_Tables_number       1
_space_group_crystal_system       triclinic
_cell_length_a                    14.128342
_cell_length_b                    10.651005
_cell_length_c                    9.959928
_cell_angle_alpha                 87.77879
_cell_angle_beta                  89.730983
_cell_angle_gamma                 93.765096
_cell_volume                      1494.38235745

loop_
_atom_site_label
_atom_site_type_symbol
_atom_site_description
_atom_site_fract_x
_atom_site_fract_y
_atom_site_fract_z
_atom_type_partial_charge
O1    O     O_R   0.500000 0.316780 0.614690 -0.514262
O2    O     O_R   0.499990 0.316750 0.385360 -0.596360
C1    C     C_R   0.511725 0.261535 0.503706 0.929750
O3    O     O_R   0.373720 0.500010 0.614690 -0.593597
O4    O     O_R   0.373710 0.499990 0.385360 -0.620005
C2    C     C_R   0.329636 0.503818 0.499870 0.843158
Zn1   Zn    Zn3+2 0.500010 0.500020 0.653130 1.041737
Zn2   Zn    Zn3+2 0.499990 0.499980 0.346870 1.044485
O5    O     O_R   0.500010 0.683250 0.614640 -0.582144
O6    O     O_R   0.500000 0.683220 0.385310 -0.597971
O7    O     O_R   0.626290 0.500010 0.614640 -0.589082
O8    O     O_R   0.626280 0.499990 0.385310 -0.532477
C3    C     C_R   0.494810 0.740106 0.498107 0.882633
C4    C     C_R   0.670670 0.501043 0.499709 0.906197
C5    C     C_1   0.228216 0.506564 0.499513 -0.184641
C6    C     C_1   0.142913 0.506760 0.499409 0.028918
C7    C     C_1   0.042932 0.505475 0.499494 0.049145
C8    C     C_1   0.957549 0.504023 0.499518 0.047986
C9    C     C_1   0.857549 0.502481 0.499417 0.054832
C10   C     C_1   0.772200 0.501597 0.499348 -0.076980
C11   C     C_R   0.514050 0.099237 0.767159 0.484304
C12   C     C_R   0.462289 0.033301 0.873063 0.290468
C13   C     C_R   0.408652 0.922355 0.845007 -0.303432
H1    H     H_    0.365969 0.871410 0.922335 0.210164
C14   C     C_R   0.412240 0.872789 0.718257 -0.190792
H2    H     H_    0.370810 0.785652 0.701879 0.172658
C15   C     C_R   0.468521 0.934456 0.614948 0.058730
C16   C     C_R   0.505321 0.057078 0.632964 -0.131023
C17   C     C_R   0.533962 0.130198 0.515655 -0.239859
C18   C     C_R   0.564695 0.070963 0.400934 0.312053
H3    H     H_    0.568370 0.894531 0.307481 0.246207
C19   C     C_R   0.542925 0.942814 0.392506 -0.183692
C20   C     C_R   0.493890 0.875147 0.496893 -0.141889
C21   C     C_R   0.359132 0.360581 0.152340 -0.111769
H4    H     H_    0.368490 0.336999 0.255548 0.230120
C22   C     C_R   0.276045 0.312417 0.095717 0.281874
C23   C     C_R   0.269604 0.316003 0.957312 -0.415688
H5    H     H_    0.205991 0.271443 0.916642 0.203141
C24   C     C_R   0.348609 0.357097 0.874698 0.522231
C25   C     C_R   0.426653 0.431438 0.932542 0.049079
C26   C     C_R   0.428670 0.432548 0.076988 0.004954
N1    N     N_R   0.499190 0.498800 0.142780 -0.159291
C27   C     C_R   0.568946 0.564581 0.068004 0.277202
C28   C     C_R   0.568606 0.565279 0.924934 0.253552
N2    N     N_R   0.499160 0.498720 0.857170 -0.156167
N3    N     N_R   0.625986 0.136555 0.301079 0.247431
O9    O     O_R   0.647851 0.081330 0.191885 -0.313575
O10   O     O_R   0.675826 0.238629 0.330987 -0.391802
O11   O     O_3   0.360616 0.301143 0.752517 -0.587307
C29   C     C_3   0.276105 0.258251 0.686346 0.093094
H6    H     H_    0.290292 0.266196 0.576647 0.175071
H7    H     H_    0.216259 0.318857 0.703281 0.128930
C30   C     C_3   0.249811 0.118264 0.717906 -0.415871
H8    H     H_    0.297304 0.061968 0.659325 0.233153
H9    H     H_    0.259126 0.093736 0.826083 0.249432
C31   C     C_3   0.147662 0.082441 0.678523 -0.828047
H10   H     H_    0.097721 0.134336 0.738620 0.264933
H11   H     H_    0.131852 0.979846 0.698112 0.268975
H12   H     H_    0.137065 0.104778 0.569958 0.294441
N4    N     N_R   0.641461 0.637899 0.851337 0.249486
O12   O     O_R   0.628068 0.753669 0.813946 -0.367908
O13   O     O_R   0.726954 0.599554 0.849351 -0.368933
O14   O     O_3   0.577270 0.198842 0.797364 -0.587023
C32   C     C_3   0.670449 0.158571 0.794750 0.087249
H13   H     H_    0.690762 0.135083 0.690935 0.142668
H14   H     H_    0.676896 0.074627 0.863882 0.198017
C33   C     C_3   0.738698 0.265255 0.840922 -0.263195
H15   H     H_    0.731667 0.350186 0.774408 0.243902
H16   H     H_    0.720070 0.288650 0.945243 0.280162
C34   C     C_3   0.841390 0.229184 0.836685 -0.866358
H17   H     H_    0.850594 0.144970 0.903529 0.293558
H18   H     H_    0.888854 0.308466 0.871460 0.283890
H19   H     H_    0.862120 0.208840 0.732381 0.254927
N5    N     N_R   0.463281 0.077704 0.008144 0.226964
O15   O     O_R   0.508658 0.183326 0.036591 -0.337540
O16   O     O_R   0.416772 0.013704 0.104096 -0.396460
N6    N     N_R   0.643607 0.633963 0.134163 0.241796
O17   O     O_R   0.641110 0.755405 0.139553 -0.357684
O18   O     O_R   0.723872 0.583059 0.153491 -0.324893
N7    N     N_R   0.201005 0.251759 0.178606 0.238995
O19   O     O_R   0.207764 0.247887 0.308980 -0.433428
O20   O     O_R   0.124482 0.201473 0.124749 -0.361507

loop_
_geom_bond_atom_site_label_1
_geom_bond_atom_site_label_2
_geom_bond_distance
_ccdc_geom_bond_type
C26   N1    1.367350 A    
C9    C10   1.205264 T    
C30   H8    1.107462 S    
C15   C20   1.411887 A    
Zn1   O7    1.823096 S    
C17   C18   1.406894 A    
N5    O16   1.301739 A    
Zn1   N2    2.031708 S    
C16   C17   1.420925 A    
Zn2   N1    2.033328 S    
C8    C9    1.411855 S    
O4    C2    1.300171 A    
O7    C4    1.301925 A    
C5    C6    1.205323 T    
C31   H10   1.111104 S    
N4    O13   1.300516 A    
C21   H4    1.059645 S    
C1    C17   1.454271 S    
O5    C3    1.292833 A    
C2    C5    1.435143 S    
C6    C7    1.411727 S    
C29   H7    1.113033 S    
C13   H1    1.082369 S    
C34   H17   1.111097 S    
N6    O18   1.300652 A    
C11   C12   1.417216 A    
C21   C26   1.402009 A    
O3    Zn1   1.826634 S    
C29   H6    1.108901 S    
C30   H9    1.109257 S    
C25   N2    1.407542 A    
N3    O10   1.301192 A    
C29   C30   1.532881 S    
N5    O15   1.299450 A    
C33   H15   1.110414 S    
C32   C33   1.527475 S    
C4    C10   1.434054 S    
N7    O20   1.301972 A    
C22   N7    1.443411 S    
C24   C25   1.449600 A    
C14   H2    1.082535 S    
N6    O17   1.299444 A    
N4    O12   1.300255 A    
O1    C1    1.287263 A    
C32   H14   1.115951 S    
C27   C28   1.424732 A    
C3    C20   1.438814 S    
C23   H5    1.076752 S    
H3    C19   1.079826 S    
Zn2   O8    1.826633 S    
C34   H19   1.111259 S    
C7    C8    1.205409 T    
O3    C2    1.305289 A    
C25   C26   1.439575 A    
C24   O11   1.390104 S    
C11   C16   1.429704 A    
O8    C4    1.303256 A    
C14   C15   1.412006 A    
N1    C27   1.370699 A    
C12   N5    1.443116 S    
C28   N2    1.368477 A    
C30   C31   1.525404 S    
Zn1   O5    1.974245 S    
N3    O9    1.301722 A    
C22   C23   1.381142 A    
O1    Zn1   2.003388 S    
C18   N3    1.444176 S    
O2    Zn2   1.974246 S    
N7    O19   1.301727 A    
O6    C3    1.300944 A    
O4    Zn2   1.823096 S    
C27   N6    1.426500 S    
C31   H12   1.111066 S    
C33   C34   1.525876 S    
C32   H13   1.113903 S    
O2    C1    1.312871 A    
C23   C24   1.419094 A    
C19   C20   1.396389 A    
C18   C19   1.385151 A    
C28   N4    1.428102 S    
C31   H11   1.110427 S    
C21   C22   1.381581 A    
C13   C14   1.389089 A    
C11   O14   1.384425 S    
O14   C32   1.411533 S    
Zn2   O6    2.003387 S    
O11   C29   1.424005 S    
C15   C16   1.392175 A    
C12   C13   1.399540 A    
C34   H18   1.110490 S    
C33   H16   1.112227 S    
