data_mof_unit_52047.cif
_audit_creation_date              2012-12-11T17:25:00-0500
_audit_creation_method            fapswitch 2.2
_symmetry_space_group_name_H-M    P1
_symmetry_Int_Tables_number       1
_space_group_crystal_system       triclinic
_cell_length_a                    6.952532
_cell_length_b                    20.551136
_cell_length_c                    24.465776
_cell_angle_alpha                 90.16762
_cell_angle_beta                  90.243384
_cell_angle_gamma                 89.276523
_cell_volume                      3495.40490946

loop_
_atom_site_label
_atom_site_type_symbol
_atom_type_description
_atom_site_fract_x
_atom_site_fract_y
_atom_site_fract_z
_atom_type_partial_charge
O1    O     O_R   0.507280 0.423750 0.460310 -0.539928
O2    O     O_R   0.171030 0.555650 0.437630 -0.539250
O3    O     O_R   0.004080 0.576250 0.539690 -0.536268
C1    C     C_R   0.339052 0.575716 0.421840 0.729013
O4    O     O_R   0.177330 0.422980 0.453960 -0.536455
O5    O     O_R   0.010420 0.442640 0.556140 -0.533492
C2    C     C_R   0.346706 0.399122 0.443158 0.720394
O6    O     O_R   0.500930 0.557360 0.443860 -0.532268
O7    O     O_3   0.340310 0.506600 0.533500 -0.366528
V1    V     V_3+5 0.064140 0.498780 0.493780 1.471278
O8    O     O_R   0.680890 0.444350 0.562370 -0.535229
C3    C     C_R   0.850552 0.424452 0.578157 0.739508
O9    O     O_R   0.674590 0.577020 0.546040 -0.538326
C4    C     C_R   0.842033 0.601076 0.556539 0.719133
V2    V     V_3+5 0.564550 0.501220 0.506220 1.475855
O10   O     O_3   0.838250 0.493400 0.466500 -0.370734
C5    C     C_R   0.980921 0.835900 0.913744 -0.122671
C6    C     C_R   0.844020 0.660891 0.590748 -0.142923
C7    C     C_R   0.091232 0.722866 0.906504 0.396723
C8    C     C_R   0.056750 0.779471 0.938445 -0.166569
C9    C     C_R   0.923428 0.834114 0.858874 -0.177977
C10   C     C_R   0.940752 0.776688 0.826857 -0.043630
C11   C     C_R   0.046784 0.723543 0.849675 0.048156
C12   C     C_R   0.870504 0.772407 0.771422 0.036747
C13   C     C_R   0.935445 0.719801 0.737214 0.015442
C14   C     C_R   0.071323 0.675740 0.758858 -0.285383
C15   C     C_R   0.116963 0.674019 0.814593 0.417441
C16   C     C_R   0.736694 0.817849 0.748497 -0.039909
C17   C     C_R   0.705794 0.819355 0.692230 -0.215217
C18   C     C_R   0.774776 0.769627 0.658422 0.101401
C19   C     C_R   0.871703 0.715049 0.681202 0.066814
C20   C     C_R   0.733143 0.772292 0.602423 -0.177860
C21   C     C_R   0.771975 0.719334 0.568437 -0.057161
C22   C     C_R   0.890239 0.657908 0.647328 -0.100005
H1    H     H_    0.613723 0.857245 0.675058 0.136251
H2    H     H_    0.880863 0.879870 0.840764 0.131233
H3    H     H_    0.150121 0.643130 0.732359 0.140054
H4    H     H_    0.664583 0.815414 0.585279 0.132421
H5    H     H_    0.645778 0.233964 0.812277 0.166427
C23   C     C_R   0.749348 0.284807 0.741966 -0.134604
H6    H     H_    0.615861 0.311921 0.736885 0.154113
C24   C     C_R   0.902104 0.294329 0.705791 0.055918
C25   C     C_R   0.075494 0.258523 0.713293 -0.122991
C26   C     C_R   0.093474 0.213351 0.757430 0.332085
C27   C     C_R   0.937052 0.204540 0.793081 0.091652
C28   C     C_R   0.766473 0.240366 0.785023 -0.227836
C29   C     C_1   0.878793 0.340913 0.661125 0.020959
C30   C     C_1   0.950737 0.158677 0.838407 0.060506
C31   C     C_1   0.961842 0.120602 0.876282 -0.155820
C32   C     C_1   0.863416 0.379264 0.623562 -0.134906
H7    H     H_    0.678784 0.724461 0.312076 0.167072
C33   C     C_R   0.585124 0.779453 0.241992 -0.124719
H8    H     H_    0.724143 0.801790 0.236774 0.148371
C34   C     C_R   0.433307 0.794711 0.206171 0.038245
C35   C     C_R   0.254881 0.764922 0.213981 -0.126404
H9    H     H_    0.136317 0.776319 0.186581 0.151035
C36   C     C_R   0.226237 0.720353 0.256807 0.359012
C37   C     C_R   0.380882 0.705074 0.293078 0.018731
C38   C     C_R   0.559009 0.735220 0.284962 -0.136411
C39   C     C_1   0.458976 0.840843 0.161487 0.000342
C40   C     C_1   0.361711 0.659114 0.338370 -0.032089
C41   C     C_1   0.348520 0.620976 0.376212 -0.148631
C42   C     C_1   0.475060 0.879120 0.123850 -0.153631
C43   C     C_R   0.466834 0.162631 0.088103 -0.143158
C44   C     C_R   0.353686 0.337747 0.411706 -0.110866
C45   C     C_R   0.448920 0.280254 0.092006 -0.116980
C46   C     C_R   0.470557 0.223430 0.061281 0.352839
C47   C     C_R   0.446366 0.160669 0.145342 -0.236612
C48   C     C_R   0.424814 0.218595 0.177174 0.093096
C49   C     C_R   0.424080 0.278450 0.148883 0.008646
C50   C     C_R   0.401086 0.219339 0.235626 0.015830
C51   C     C_R   0.380029 0.279868 0.264573 0.037585
C52   C     C_R   0.358285 0.337927 0.233319 0.343890
C53   C     C_R   0.389639 0.336545 0.176770 -0.252025
C54   C     C_R   0.392661 0.161246 0.265749 -0.230339
C55   C     C_R   0.358992 0.160651 0.321833 -0.065601
C56   C     C_R   0.344993 0.219662 0.351811 0.037656
C57   C     C_R   0.370261 0.279691 0.323513 0.040036
C58   C     C_R   0.308566 0.220680 0.409239 0.367768
C59   C     C_R   0.308617 0.280051 0.437797 -0.242083
C60   C     C_R   0.390182 0.337264 0.355508 -0.157240
H10   H     H_    0.378538 0.381468 0.153744 0.129461
H11   H     H_    0.438577 0.382308 0.338179 0.168772
H12   H     H_    0.276620 0.281196 0.481131 0.118124
H13   H     H_    0.448659 0.326540 0.070817 0.149029
H14   H     H_    0.446373 0.112921 0.163303 0.110505
H15   H     H_    0.406761 0.114376 0.246302 0.123346
O11   O     O_R   0.323320 0.942780 0.056240 -0.530545
O12   O     O_R   0.647300 0.077050 0.046060 -0.539977
O13   O     O_R   0.813840 0.057330 0.943840 -0.537900
C61   C     C_R   0.477774 0.100938 0.056913 0.676932
O14   O     O_R   0.653250 0.944380 0.062400 -0.538968
O15   O     O_R   0.819830 0.923720 0.960300 -0.534160
C62   C     C_R   0.485162 0.924421 0.078261 0.727306
O16   O     O_R   0.317330 0.076390 0.039790 -0.535978
O17   O     O_3   0.483830 0.993470 0.966560 -0.362157
V3    V     V_3+5 0.760140 0.001210 0.006210 1.461919
O18   O     O_R   0.149290 0.922840 0.953850 -0.533197
C63   C     C_R   0.981821 0.898638 0.943628 0.735229
O19   O     O_R   0.143340 0.055500 0.937510 -0.532787
C64   C     C_R   0.973753 0.075524 0.921807 0.723843
V4    V     V_3+5 0.259690 0.998600 0.993650 1.489583
O20   O     O_3   0.986130 0.006520 0.033440 -0.371464
O21   O     O_3   0.242851 0.626902 0.834356 -0.588980
H16   H     H_    0.275366 0.595445 0.804893 0.304277
C65   C     C_1   0.232555 0.268203 0.675564 0.281389
N1    N     N_1   0.357707 0.275997 0.645326 -0.360065
O22   O     O_3   0.259283 0.177085 0.767182 -0.643103
H17   H     H_    0.359463 0.187790 0.740242 0.297949
O23   O     O_3   0.045902 0.693405 0.261194 -0.649721
H18   H     H_    0.042618 0.663493 0.292753 0.293975
C66   C     C_1   0.919927 0.593743 0.670684 0.274251
N2    N     N_1   0.942772 0.542353 0.689044 -0.354478
C67   C     C_1   0.347753 0.097108 0.346932 0.423896
N3    N     N_1   0.339021 0.046128 0.366698 -0.307922
O24   O     O_3   0.491730 0.230118 0.005409 -0.637761
H19   H     H_    0.510730 0.187028 0.988049 0.281320
O25   O     O_3   0.287844 0.394404 0.257150 -0.656635
H20   H     H_    0.279161 0.429657 0.229617 0.295101
O26   O     O_3   0.268579 0.163873 0.436868 -0.635651
H21   H     H_    0.247256 0.173489 0.476145 0.301813
C68   C     C_1   0.723236 0.724443 0.511073 0.300052
N4    N     N_1   0.684183 0.728443 0.465161 -0.352476
O27   O     O_3   0.168393 0.666453 0.929109 -0.592193
H22   H     H_    0.184038 0.670685 0.969104 0.307025
C69   C     C_1   0.106762 0.781226 0.996062 0.288187
N5    N     N_1   0.146529 0.782734 0.042033 -0.354093
C70   C     C_1   0.608704 0.858169 0.780949 0.303999
N6    N     N_1   0.505119 0.890271 0.806706 -0.346021

loop_
_geom_bond_atom_site_label_1
_geom_bond_atom_site_label_2
_ccdc_geom_bond_type
C13   C19   A    
C50   C54   A    
C35   H9    S    
C54   C55   A    
C69   N5    T    
O17   V4    S    
C47   H14   S    
C52   C53   A    
C4    C6    S    
O2    C1    A    
C7    C8    A    
C1    O6    A    
C70   N6    T    
C45   H13   S    
C67   N3    T    
C9    H2    S    
C34   C39   S    
C56   C57   A    
O26   H21   S    
C23   C28   A    
C42   C62   S    
C14   C15   A    
C39   C42   T    
C43   C47   A    
C16   C17   A    
C48   C49   A    
O5    C3    A    
C18   C19   A    
C65   N1    T    
V2    O10   S    
C1    C41   S    
C15   O21   S    
C5    C8    A    
C22   C66   S    
O24   H19   S    
C48   C50   A    
O25   H20   S    
O21   H16   S    
C51   C57   A    
O23   H18   S    
O8    V2    S    
C47   C48   A    
C49   C53   A    
C55   C67   S    
O1    V2    S    
C11   C15   A    
O12   C61   A    
O7    V1    S    
O15   C63   A    
C26   O22   S    
O16   V4    S    
C59   H12   S    
C37   C40   S    
C23   C24   A    
C45   C46   A    
C44   C59   A    
O9    C4    A    
O17   V3    S    
V4    O20   S    
C53   H10   S    
O14   C62   A    
C66   N2    T    
C60   H11   S    
C33   C34   A    
O14   V3    S    
C29   C32   T    
C56   C58   A    
O11   C62   A    
C7    O27   S    
C43   C46   A    
C12   C13   A    
O4    C2    A    
C13   C14   A    
C27   C28   A    
C5    C9    A    
O12   V3    S    
C25   C65   S    
C7    C11   A    
C46   O24   S    
O13   C64   A    
C8    C69   S    
C17   C18   A    
C33   C38   A    
C2    C44   S    
C6    C22   A    
C44   C60   A    
C36   O23   S    
C58   O26   S    
O19   V4    S    
C19   C22   A    
C55   C56   A    
C5    C63   S    
V3    O20   S    
O3    C4    A    
H5    C28   S    
C54   H15   S    
C23   H6    S    
O6    V2    S    
C20   H4    S    
C35   C36   A    
C25   C26   A    
C21   C68   S    
C10   C12   A    
H7    C38   S    
C24   C25   A    
O2    V1    S    
O15   V3    S    
C33   H8    S    
C27   C30   S    
C34   C35   A    
C30   C31   T    
C52   O25   S    
O13   V3    S    
O1    C2    A    
C26   C27   A    
C12   C16   A    
C51   C52   A    
O5    V1    S    
O11   V4    S    
O8    C3    A    
C14   H3    S    
C17   H1    S    
C20   C21   A    
O9    V2    S    
C37   C38   A    
O4    V1    S    
O3    V1    S    
O18   V4    S    
C18   C20   A    
C57   C60   A    
C36   C37   A    
C45   C49   A    
O19   C64   A    
C24   C29   S    
O7    V2    S    
C40   C41   T    
C6    C21   A    
C61   O16   A    
C58   C59   A    
C50   C51   A    
O18   C63   A    
C10   C11   A    
V1    O10   S    
C43   C61   S    
C68   N4    T    
C9    C10   A    
O22   H17   S    
C3    C32   S    
C16   C70   S    
C31   C64   S    
O27   H22   S    
