data_mof_unit_15642.cif
_audit_creation_date              2012-12-10T18:11:37-0500
_audit_creation_method            fapswitch 2.2
_symmetry_space_group_name_H-M    P1
_symmetry_Int_Tables_number       1
_space_group_crystal_system       triclinic
_cell_length_a                    10.500897
_cell_length_b                    12.762264
_cell_length_c                    13.218344
_cell_angle_alpha                 81.941504
_cell_angle_beta                  95.111646
_cell_angle_gamma                 102.160873
_cell_volume                      1711.35794058

loop_
_atom_site_label
_atom_site_type_symbol
_atom_type_description
_atom_site_fract_x
_atom_site_fract_y
_atom_site_fract_z
_atom_type_partial_charge
C1    C     C_R   0.485608 0.440522 0.691353 0.921635
C2    C     C_3   0.066556 0.575538 0.553081 0.635281
C3    C     C_3   0.961703 0.479415 0.593779 -0.299298
C4    C     C_3   0.877396 0.503570 0.496117 -0.197896
C5    C     C_R   0.704789 0.692142 0.084787 0.772265
C6    C     C_R   0.552368 0.591244 0.206363 -0.279766
C7    C     C_R   0.427738 0.298005 0.837062 -0.336863
C8    C     C_R   0.423035 0.262125 0.941658 0.289849
C9    C     C_R   0.467231 0.335366 0.012726 0.680998
C10   C     C_R   0.513920 0.445872 0.979014 -0.078289
C11   C     C_R   0.523412 0.481387 0.873713 -0.147400
C12   C     C_R   0.741881 0.501849 0.498002 0.918111
C13   C     C_R   0.557051 0.524431 0.046521 -0.124177
C14   C     C_R   0.653147 0.617138 0.015859 -0.245304
C15   C     C_R   0.678624 0.637163 0.912459 0.395321
C16   C     C_R   0.577835 0.592349 0.845575 0.380359
C17   C     C_R   0.498381 0.519233 0.136937 0.740433
C18   C     C_R   0.656953 0.676540 0.181591 -0.303286
C19   C     C_R   0.477920 0.406689 0.801950 -0.122941
C20   C     C_R   0.256542 0.079782 0.402789 0.265957
C21   C     C_R   0.693482 0.810400 0.586154 0.853507
C22   C     C_R   0.757302 0.914988 0.555141 -0.232010
C23   C     C_R   0.518024 0.559585 0.310408 0.988938
C24   C     C_R   0.686065 0.986672 0.500577 -0.125035
C25   C     C_R   0.549197 0.961365 0.497261 0.079725
C26   C     C_R   0.493528 0.850612 0.505898 0.026408
C27   C     C_R   0.467385 0.039420 0.474595 -0.123536
C28   C     C_R   0.333612 0.003144 0.444429 -0.171016
C29   C     C_R   0.284769 0.891026 0.448875 -0.017089
C30   C     C_R   0.371999 0.822338 0.450453 0.404902
C31   C     C_R   0.508366 0.149624 0.490867 0.390170
C32   C     C_R   0.314360 0.189673 0.397108 0.663949
C33   C     C_R   0.258048 0.499135 0.499705 0.962568
C34   C     C_3   0.932337 0.427089 0.439578 -0.091846
C35   C     C_3   0.018985 0.402781 0.537541 -0.119489
C36   C     C_3   0.122593 0.499505 0.497837 -0.225837
C37   C     C_3   0.038557 0.524006 0.399930 -0.293250
C38   C     C_3   0.981084 0.599113 0.456582 0.604679
H1    H     H_    0.038534 0.322279 0.570205 0.212144
H2    H     H_    0.393951 0.240465 0.782806 0.235021
H3    H     H_    0.186539 0.860849 0.420164 0.260305
H4    H     H_    0.874282 0.367745 0.390880 0.231731
H5    H     H_    0.737753 0.061415 0.462894 0.240714
H6    H     H_    0.861503 0.939019 0.569961 0.239804
H7    H     H_    0.072681 0.541746 0.321102 0.245216
H8    H     H_    0.927162 0.461958 0.672486 0.208038
H9    H     H_    0.701265 0.730702 0.236849 0.246151
N1    N     N_R   0.432930 0.222190 0.444670 -0.237957
N2    N     N_R   0.566370 0.776980 0.554790 -0.174895
O1    O     O_R   0.467970 0.366730 0.627150 -0.577209
O2    O     O_R   0.510820 0.544830 0.662520 -0.575603
O3    O     O_R   0.664630 0.410960 0.482340 -0.568092
O4    O     O_R   0.707470 0.589060 0.517710 -0.555509
O5    O     O_R   0.489180 0.455170 0.337480 -0.547483
O6    O     O_R   0.532030 0.633270 0.372850 -0.573885
O7    O     O_R   0.292530 0.410940 0.482290 -0.576644
O8    O     O_R   0.335370 0.589040 0.517660 -0.576194
Zn1   Zn    Zn3+2 0.471390 0.381080 0.476380 1.110217
Zn2   Zn    Zn3+2 0.528610 0.618920 0.523620 1.117707
F1    F     F_    0.383793 0.448589 0.155700 -0.551868
F2    F     F_    0.475883 0.296618 0.113724 -0.574382
S1    S     S_3+6 0.366124 0.124074 0.984020 0.148556
O9    O     O_2   0.480099 0.075187 0.028851 -0.166295
O10   O     O_2   0.271358 0.112736 0.065562 -0.168503
O11   O     O_3   0.292809 0.057459 0.886558 -0.491957
H10   H     H_    0.211126 0.084775 0.868180 0.367908
S2    S     S_3+6 0.459910 0.675954 0.817069 0.094270
O12   O     O_2   0.522424 0.784168 0.764320 -0.265460
O13   O     O_2   0.345835 0.625038 0.751371 -0.224797
O14   O     O_3   0.404004 0.694736 0.927194 -0.524701
H11   H     H_    0.344216 0.745609 0.906715 0.424482
F3    F     F_    0.248620 0.265887 0.351055 -0.540424
S3    S     S_3+6 0.093236 0.042369 0.350640 0.121246
O15   O     O_2   0.025679 0.136729 0.334473 -0.203774
O16   O     O_2   0.096538 0.002447 0.249438 -0.153479
O17   O     O_3   0.006609 0.943682 0.429501 -0.563721
H12   H     H_    0.927590 0.914511 0.387464 0.407991
S4    S     S_3+6 0.644780 0.184595 0.584241 0.060830
O18   O     O_2   0.654865 0.086351 0.659575 -0.246728
O19   O     O_2   0.768146 0.219739 0.528791 -0.355786
O20   O     O_3   0.645698 0.279982 0.658367 -0.510340
H13   H     H_    0.730968 0.287833 0.698185 0.375914
F4    F     F_    0.764119 0.738159 0.631469 -0.592981
S5    S     S_3+6 0.372911 0.796526 0.321637 0.059532
O21   O     O_2   0.510576 0.820692 0.288911 -0.288334
O22   O     O_2   0.307382 0.681904 0.310591 -0.318788
O23   O     O_3   0.290166 0.877092 0.241731 -0.464008
H14   H     H_    0.300429 0.860545 0.172248 0.429930
F5    F     F_    0.957521 0.699591 0.416058 -0.623029
F6    F     F_    0.137487 0.653512 0.610035 -0.596891
S6    S     S_3+6 0.836462 0.690915 0.870009 0.143360
O24   O     O_2   0.844097 0.806431 0.823930 -0.171397
O25   O     O_2   0.937423 0.685622 0.957673 -0.209863
O26   O     O_3   0.866206 0.617659 0.781762 -0.536090
H15   H     H_    0.955926 0.650973 0.761914 0.426711
F7    F     F_    0.793124 0.783612 0.057203 -0.541437

loop_
_geom_bond_atom_site_label_1
_geom_bond_atom_site_label_2
_ccdc_geom_bond_type
O23   H14   S    
O6    Zn2   S    
C34   C37   S    
C32   N1    A    
S3    O15   D    
C35   C36   S    
C34   H4    S    
S5    O23   S    
C18   H9    S    
C21   N2    A    
O20   H13   S    
O4    Zn2   S    
C7    C8    A    
C32   F3    S    
C38   F5    S    
C11   C19   A    
C29   C30   A    
C23   O5    A    
C9    F2    S    
C36   C37   S    
C37   C38   S    
S5    O22   D    
C20   C32   A    
S4    O19   D    
O8    Zn2   S    
C15   C16   A    
C33   C36   S    
C34   C35   S    
C2    F6    S    
S1    O10   D    
C22   H6    S    
C21   F4    S    
C8    C9    A    
C7    H2    S    
C24   C25   A    
O14   H11   S    
C4    C12   S    
C1    O1    A    
C12   O4    A    
C33   O7    A    
C21   C22   A    
S3    O16   D    
C12   O3    A    
C6    C18   A    
C4    C34   S    
C1    C19   S    
C27   C31   A    
S2    O12   D    
O1    Zn1   S    
S5    O21   D    
C26   N2    A    
S6    O24   D    
S4    O18   D    
C5    C18   A    
C20   C28   A    
C25   C26   A    
S2    O13   D    
C35   H1    S    
S1    O9    D    
S6    O25   D    
C11   C16   A    
C2    C38   S    
C3    C35   S    
O5    Zn1   S    
C16   S2    S    
O17   H12   S    
N1    Zn1   S    
C1    O2    A    
C5    C14   A    
O3    Zn1   S    
C4    C38   S    
C26   C30   A    
C7    C19   A    
C31   N1    A    
S3    O17   S    
C22   C24   A    
O2    Zn2   S    
C37   H7    S    
C3    C4    S    
C5    F7    S    
C31   S4    S    
C9    C10   A    
C2    C36   S    
C6    C17   A    
C28   C29   A    
C33   O8    A    
S1    O11   S    
C29   H3    S    
C10   C13   A    
C23   O6    A    
C25   C27   A    
C3    H8    S    
N2    Zn2   S    
C13   C17   A    
S2    O14   S    
C2    C3    S    
S6    O26   S    
S4    O20   S    
C6    C23   S    
O7    Zn1   S    
C20   S3    S    
C30   S5    S    
O26   H15   S    
C10   C11   A    
C17   F1    S    
C15   S6    S    
O11   H10   S    
C27   C28   A    
C24   H5    S    
C14   C15   A    
C13   C14   A    
C8    S1    S    
