data_mof_unit_6651.cif
_audit_creation_date              2012-12-11T14:13:25-0500
_audit_creation_method            fapswitch 2.2
_symmetry_space_group_name_H-M    P1
_symmetry_Int_Tables_number       1
_space_group_crystal_system       triclinic
_cell_length_a                    17.319852
_cell_length_b                    17.495614
_cell_length_c                    17.437529
_cell_angle_alpha                 90.596085
_cell_angle_beta                  89.661963
_cell_angle_gamma                 90.213898
_cell_volume                      5283.53170331

loop_
_atom_site_label
_atom_site_type_symbol
_atom_type_description
_atom_site_fract_x
_atom_site_fract_y
_atom_site_fract_z
_atom_type_partial_charge
C1    C     C_R   0.593211 0.317240 0.128672 -0.062794
C2    C     C_R   0.166148 0.076563 0.644271 -0.025658
C3    C     C_R   0.897383 0.192480 0.612349 -0.095830
C4    C     C_R   0.825735 0.916805 0.639582 -0.048062
C5    C     C_R   0.105816 0.195087 0.397490 -0.123760
C6    C     C_R   0.190573 0.901448 0.381724 -0.105034
C7    C     C_R   0.914185 0.821806 0.364159 -0.033697
C8    C     C_R   0.823590 0.084583 0.363787 -0.095507
C9    C     C_R   0.607860 0.696488 0.099241 -0.021913
C10   C     C_R   0.326625 0.583315 0.140716 -0.031408
C11   C     C_R   0.400383 0.310135 0.116601 -0.028879
C12   C     C_R   0.696636 0.605978 0.099624 -0.143399
C13   C     C_R   0.683979 0.408170 0.128204 0.003844
C14   C     C_R   0.582989 0.326909 0.859058 -0.020097
C15   C     C_R   0.304795 0.395937 0.893635 -0.027356
C16   C     C_R   0.421168 0.670308 0.858912 -0.005563
C17   C     C_R   0.697081 0.607254 0.899719 -0.016648
C18   C     C_R   0.083974 0.174452 0.639630 -0.016172
C19   C     C_R   0.805840 0.103634 0.609860 -0.021190
C20   C     C_R   0.912310 0.822838 0.635920 -0.021863
C21   C     C_R   0.194373 0.894288 0.605681 -0.027078
C22   C     C_R   0.103391 0.807919 0.387184 -0.052036
C23   C     C_R   0.424059 0.666328 0.144865 -0.018899
C24   C     C_R   0.818004 0.905921 0.368952 -0.027982
C25   C     C_R   0.911061 0.178699 0.366093 -0.015894
C26   C     C_R   0.197530 0.107182 0.403381 -0.113962
C27   C     C_R   0.661506 0.340790 0.161676 -0.015461
C28   C     C_R   0.685439 0.682278 0.113058 0.015705
C29   C     C_R   0.363368 0.637012 0.186933 -0.020848
C30   C     C_R   0.331202 0.331257 0.149228 0.021513
C31   C     C_R   0.683289 0.684104 0.886259 0.009222
C32   C     C_R   0.636921 0.364555 0.812739 -0.024212
C33   C     C_R   0.320881 0.322339 0.869869 0.000952
C34   C     C_R   0.310588 0.400725 0.119884 -0.107119
C35   C     C_R   0.364724 0.636278 0.814669 -0.038561
C36   C     C_R   0.176023 0.820790 0.626167 0.007952
C37   C     C_R   0.137491 0.137255 0.685932 -0.023279
C38   C     C_R   0.823043 0.176678 0.634708 -0.001635
C39   C     C_R   0.852813 0.854573 0.678659 -0.018471
C40   C     C_R   0.182500 0.182125 0.384247 0.093273
C41   C     C_R   0.174897 0.827797 0.358113 0.035756
C42   C     C_R   0.849033 0.845605 0.327431 -0.020986
C43   C     C_R   0.850411 0.146386 0.324404 0.000552
C44   C     C_2   0.810768 0.744449 0.859633 -0.113787
C45   C     C_R   0.606846 0.695839 0.901106 -0.143685
C46   C     C_2   0.285941 0.740539 0.785044 -0.068510
C47   C     C_2   0.196559 0.255354 0.856302 -0.113880
C48   C     C_2   0.645870 0.289793 0.692309 -0.129238
C49   C     C_2   0.780981 0.271547 0.169237 -0.074198
C50   C     C_2   0.338526 0.265988 0.268306 -0.160942
C51   C     C_2   0.358430 0.733894 0.288428 -0.084873
C52   C     C_2   0.745418 0.808091 0.141119 -0.120071
C53   C     C_2   0.304137 0.219842 0.327421 -0.056968
C54   C     C_2   0.835410 0.225894 0.211994 -0.145157
C55   C     C_2   0.790213 0.846167 0.201677 -0.124530
C56   C     C_R   0.666012 0.424318 0.855177 -0.047058
C57   C     C_2   0.305345 0.780611 0.334304 -0.105642
C58   C     C_2   0.250398 0.792938 0.733524 -0.144250
C59   C     C_2   0.850878 0.792377 0.803111 -0.125941
C60   C     C_2   0.699990 0.245459 0.644593 -0.102835
C61   C     C_2   0.143777 0.212190 0.806288 -0.128943
C62   C     C_2   0.734077 0.748093 0.867001 -0.172258
C63   C     C_2   0.321606 0.677626 0.759624 -0.216303
C64   C     C_2   0.269767 0.267730 0.833393 -0.189675
C65   C     C_2   0.673602 0.342311 0.740723 -0.171409
C66   C     C_2   0.712760 0.290825 0.201151 -0.215576
C67   C     C_R   0.395834 0.306948 0.889877 -0.106277
C68   C     C_2   0.294185 0.294048 0.212724 -0.213506
C69   C     C_2   0.335622 0.665818 0.260824 -0.185722
C70   C     C_2   0.750364 0.732543 0.131508 -0.168588
C71   C     C_2   0.236773 0.240159 0.358822 -0.123216
C72   C     C_2   0.807292 0.175589 0.261156 -0.180236
C73   C     C_2   0.815136 0.806883 0.262459 -0.199402
C74   C     C_2   0.229094 0.775808 0.322001 -0.197498
C75   C     C_2   0.222300 0.768675 0.667057 -0.206927
C76   C     C_2   0.812866 0.820435 0.742739 -0.186122
C77   C     C_2   0.771691 0.231770 0.670257 -0.195343
C78   C     C_R   0.332965 0.577196 0.855951 -0.033650
C79   C     C_2   0.172501 0.159615 0.758321 -0.171419
C80   C     C_2   0.570709 0.771803 0.093049 0.438152
C81   C     C_2   0.243865 0.564884 0.147024 0.497158
C82   C     C_2   0.424466 0.230316 0.103877 0.443534
C83   C     C_2   0.761038 0.442501 0.135802 0.458897
C84   C     C_2   0.564507 0.244705 0.854999 0.488761
C85   C     C_2   0.227196 0.429110 0.903156 0.443814
C86   C     C_2   0.449112 0.749166 0.848995 0.472594
C87   C     C_2   0.773233 0.570514 0.902886 0.442894
C88   C     C_2   0.067686 0.257096 0.641147 0.477236
C89   C     C_R   0.102337 0.805872 0.605992 -0.104565
C90   C     C_2   0.727313 0.071718 0.604481 0.447585
C91   C     C_2   0.933884 0.741719 0.638675 0.495438
C92   C     C_2   0.274362 0.921765 0.595667 0.423135
C93   C     C_2   0.078405 0.728479 0.400328 0.454678
C94   C     C_2   0.734461 0.921857 0.370728 0.477960
C95   C     C_2   0.932040 0.260357 0.368308 0.465767
C96   C     C_2   0.271514 0.083212 0.436650 0.584931
H1    H     H_    0.566504 0.262250 0.136186 0.144095
H2    H     H_    0.209097 0.037419 0.664130 0.129493
H3    H     H_    0.922167 0.248872 0.611283 0.171297
H4    H     H_    0.776945 0.950323 0.656975 0.124018
H5    H     H_    0.080102 0.250865 0.400778 0.167993
H6    H     H_    0.244630 0.930566 0.374823 0.089631
H7    H     H_    0.948391 0.772986 0.348352 0.129149
H8    H     H_    0.771320 0.054488 0.351239 0.126631
H9    H     H_    0.844412 0.701851 0.888508 0.124167
H10   H     H_    0.287477 0.756980 0.845386 0.157969
H11   H     H_    0.173146 0.283692 0.906882 0.129333
H12   H     H_    0.752735 0.580978 0.091738 0.177822
H13   H     H_    0.585557 0.273192 0.693216 0.122538
H14   H     H_    0.798951 0.293661 0.113959 0.166044
H15   H     H_    0.401165 0.267917 0.264510 0.129511
H16   H     H_    0.410199 0.762063 0.267697 0.122297
H17   H     H_    0.703036 0.841744 0.111750 0.123296
H18   H     H_    0.327929 0.163094 0.332269 0.120416
H19   H     H_    0.896765 0.237617 0.207154 0.123144
H20   H     H_    0.794690 0.908143 0.201155 0.127163
H21   H     H_    0.329351 0.824845 0.371307 0.131427
H22   H     H_    0.241943 0.851528 0.753341 0.131909
H23   H     H_    0.463996 0.709012 0.164374 0.095484
H24   H     H_    0.913422 0.796470 0.805652 0.125724
H25   H     H_    0.678338 0.217175 0.593354 0.135119
H26   H     H_    0.083925 0.229736 0.803393 0.117907
H27   H     H_    0.704297 0.799351 0.849063 0.143967
H28   H     H_    0.324778 0.660189 0.699840 0.146546
H29   H     H_    0.293780 0.240413 0.782546 0.153117
H30   H     H_    0.730783 0.366219 0.730671 0.148508
H31   H     H_    0.694104 0.271152 0.257119 0.149974
H32   H     H_    0.231511 0.291873 0.215194 0.147989
H33   H     H_    0.286677 0.636793 0.286708 0.124198
H34   H     H_    0.254516 0.425904 0.125700 0.149017
H35   H     H_    0.802095 0.703317 0.150183 0.144881
H36   H     H_    0.215012 0.297834 0.351306 0.131013
H37   H     H_    0.747471 0.156785 0.256998 0.146698
H38   H     H_    0.810230 0.745276 0.266506 0.151337
H39   H     H_    0.204684 0.733677 0.282902 0.131038
H40   H     H_    0.220433 0.708721 0.650497 0.154454
H41   H     H_    0.750756 0.816104 0.736915 0.149302
H42   H     H_    0.793943 0.258718 0.721915 0.148739
H43   H     H_    0.228695 0.134816 0.769729 0.148998
H44   H     H_    0.584557 0.817588 0.132819 0.007132
H45   H     H_    0.582713 0.751676 0.910555 0.186784
H46   H     H_    0.215665 0.563038 0.202632 -0.025356
H47   H     H_    0.402902 0.185462 0.140838 0.026058
H48   H     H_    0.783498 0.455658 0.192376 0.009624
H49   H     H_    0.562211 0.214131 0.800947 -0.003344
H50   H     H_    0.179790 0.409789 0.867528 0.020783
H51   H     H_    0.464279 0.769368 0.792234 0.008247
H52   H     H_    0.818151 0.585160 0.862208 0.011909
H53   H     H_    0.071198 0.290383 0.693554 0.005933
H54   H     H_    0.682408 0.090758 0.643733 0.020299
H55   H     H_    0.937253 0.712591 0.693091 -0.001019
H56   H     H_    0.709616 0.463090 0.835327 0.109240
H57   H     H_    0.322044 0.888562 0.617540 0.050887
H58   H     H_    0.104667 0.681837 0.368235 0.011638
H59   H     H_    0.698388 0.905007 0.322777 0.008183
H60   H     H_    0.929438 0.295148 0.317517 0.010629
H61   H     H_    0.294019 0.026824 0.426893 0.023263
H62   H     H_    0.420337 0.250579 0.890907 0.172823
H63   H     H_    0.283870 0.543778 0.838583 0.123049
H64   H     H_    0.076377 0.750046 0.603591 0.168124
N1    N     N_R   0.574080 0.369570 0.076720 -0.049237
N2    N     N_R   0.130430 0.074080 0.576720 -0.045200
N3    N     N_R   0.925920 0.130430 0.576720 -0.059375
N4    N     N_R   0.869570 0.925920 0.576720 -0.043941
N5    N     N_R   0.074080 0.130430 0.423280 -0.051406
N6    N     N_R   0.130430 0.925920 0.423280 -0.063808
N7    N     N_R   0.925920 0.869570 0.423280 -0.046355
N8    N     N_R   0.869570 0.074080 0.423280 -0.045242
N9    N     N_R   0.574050 0.630410 0.076720 -0.062490
N10   N     N_R   0.369590 0.574050 0.076720 -0.044099
N11   N     N_R   0.425950 0.369590 0.076720 -0.055647
N12   N     N_R   0.630430 0.574080 0.076720 -0.059711
N13   N     N_R   0.630410 0.425950 0.076720 -0.057531
N14   N     N_R   0.574050 0.369590 0.923280 -0.044595
N15   N     N_R   0.369590 0.425950 0.923280 -0.061641
N16   N     N_R   0.425950 0.630410 0.923280 -0.045773
N17   N     N_R   0.630410 0.574050 0.923280 -0.062437
N18   N     N_R   0.074050 0.130410 0.576720 -0.045950
N19   N     N_R   0.869590 0.074050 0.576720 -0.060221
N20   N     N_R   0.925950 0.869590 0.576720 -0.049024
N21   N     N_R   0.130410 0.925950 0.576720 -0.063667
N22   N     N_R   0.074050 0.869590 0.423280 -0.050787
N23   N     N_R   0.425920 0.630430 0.076720 -0.041651
N24   N     N_R   0.869590 0.925950 0.423280 -0.049239
N25   N     N_R   0.925950 0.130410 0.423280 -0.049097
N26   N     N_R   0.130410 0.074050 0.423280 -0.076159
N27   N     N_R   0.369570 0.425920 0.076720 -0.055442
N28   N     N_R   0.574080 0.630430 0.923280 -0.059246
N29   N     N_R   0.630430 0.425920 0.923280 -0.037931
N30   N     N_R   0.425920 0.369570 0.923280 -0.058846
N31   N     N_R   0.369570 0.574080 0.923280 -0.041522
N32   N     N_R   0.074080 0.869570 0.576720 -0.058462
Ni1   Ni    Ni4+2 0.500000 0.370760 0.000000 0.296656
Ni2   Ni    Ni4+2 0.629240 0.500000 0.000000 0.287614
Ni3   Ni    Ni4+2 0.500000 0.629240 0.000000 0.294111
Ni4   Ni    Ni4+2 0.370760 0.500000 0.000000 0.303092
Ni5   Ni    Ni4+2 1.000000 0.870760 0.500000 0.295340
Ni6   Ni    Ni4+2 0.129240 1.000000 0.500000 0.249134
Ni7   Ni    Ni4+2 1.000000 0.129240 0.500000 0.293730
Ni8   Ni    Ni4+2 0.870760 1.000000 0.500000 0.308926
O1    O     O_2   0.520180 0.782134 0.045977 -0.531898
O2    O     O_2   0.711605 0.023940 0.555883 -0.514308
O3    O     O_2   0.943579 0.705231 0.579499 -0.516983
O4    O     O_2   0.288371 0.980754 0.562033 -0.592191
O5    O     O_2   0.029649 0.713992 0.448718 -0.530486
O6    O     O_2   0.704324 0.951432 0.426696 -0.511028
O7    O     O_2   0.948882 0.290969 0.429200 -0.544832
O8    O     O_2   0.308714 0.127547 0.476600 -0.541826
O9    O     O_2   0.205363 0.554566 0.089505 -0.513153
O10   O     O_2   0.465787 0.213240 0.049556 -0.533183
O11   O     O_2   0.802620 0.449999 0.079815 -0.523062
O12   O     O_2   0.554838 0.208787 0.913880 -0.520873
O13   O     O_2   0.215455 0.479004 0.951046 -0.522715
O14   O     O_2   0.449766 0.793751 0.903226 -0.526516
O15   O     O_2   0.785374 0.519929 0.948552 -0.525965
O16   O     O_2   0.053751 0.290197 0.581538 -0.543938

loop_
_geom_bond_atom_site_label_1
_geom_bond_atom_site_label_2
_ccdc_geom_bond_type
C36   C89   A    
C79   H43   S    
N18   Ni7   S    
C6    N6    A    
C11   N11   A    
C59   H24   S    
C40   C71   S    
N10   N23   A    
C24   N24   A    
C10   C81   S    
C24   C42   A    
C88   H53   S    
C81   O9    D    
N6    N22   A    
C8    C43   A    
C14   C84   S    
N11   Ni1   S    
C93   O5    D    
C86   H51   S    
C25   C43   A    
N15   N30   A    
C86   O14   D    
C63   H28   S    
C67   N30   A    
C20   N20   A    
C21   C36   A    
C76   H41   S    
C2    H2    S    
C21   N21   A    
C37   C79   S    
C26   C96   S    
C33   C67   A    
C13   C83   S    
C43   C72   S    
N17   N28   A    
C12   C28   A    
C23   C29   A    
C93   H58   S    
C19   C38   A    
C18   C37   A    
C85   O13   D    
N5    Ni7   S    
C16   C35   A    
C23   H23   S    
C83   H48   S    
N27   Ni4   S    
N21   N32   A    
C96   O8    D    
C22   C41   A    
C55   H20   S    
C44   C59   S    
C49   C54   S    
C58   H22   S    
C66   H31   S    
N32   Ni5   S    
C95   H60   S    
C7    C42   A    
N31   Ni4   S    
C50   H15   S    
N20   Ni5   S    
C8    N8    A    
N30   Ni1   S    
C41   C74   S    
N12   Ni2   S    
N29   Ni2   S    
C89   N32   A    
C84   H49   S    
N7    N24   A    
N28   Ni3   S    
C94   H59   S    
N24   Ni8   S    
C6    C41   A    
C94   O6    D    
N23   Ni3   S    
C4    N4    A    
C92   H57   S    
C51   C57   S    
C5    N5    A    
C48   C65   D    
C56   H56   S    
N8    Ni8   S    
C68   H32   S    
N4    N20   A    
C52   C55   S    
C3    N3    A    
C15   C85   S    
C16   N16   A    
C96   H61   S    
C71   H36   S    
C69   H33   S    
N3    Ni7   S    
C7    H7    S    
C46   C58   S    
C16   C86   S    
C31   C62   S    
C2    N2    A    
C34   N27   A    
N22   Ni5   S    
N21   Ni6   S    
C26   N26   A    
C62   H27   S    
C58   C75   D    
C48   C60   S    
C29   C69   S    
C11   C82   S    
C95   O7    D    
C20   C91   S    
C5    H5    S    
C60   C77   D    
C50   C53   S    
C87   H52   S    
C30   C34   A    
C85   H50   S    
C3    C38   A    
N9    Ni3   S    
C49   C66   D    
C1    H1    S    
C47   C64   D    
C12   H12   S    
C20   C39   A    
C75   H40   S    
N16   N31   A    
C44   C62   D    
C44   H9    S    
C54   H19   S    
C18   C88   S    
C61   H26   S    
C9    C80   S    
C57   C74   D    
C13   N13   A    
N6    Ni6   S    
C23   N23   A    
C36   C75   S    
C24   C94   S    
N1    N13   A    
C8    H8    S    
C80   O1    D    
C4    C39   A    
C19   C90   S    
C74   H39   S    
N7    Ni5   S    
N1    Ni1   S    
C39   C76   S    
C77   H42   S    
N25   Ni7   S    
C18   N18   A    
C25   N25   A    
C45   H45   S    
C10   C29   A    
C81   H46   S    
C25   C95   S    
C47   H11   S    
C4    H4    S    
N3    N19   A    
C17   C31   A    
N9    N12   A    
C31   C45   A    
C53   C71   D    
C19   N19   A    
N15   Ni4   S    
C53   H18   S    
C12   N12   A    
C89   H64   S    
C57   H21   S    
C17   N17   A    
C7    N7    A    
C56   N29   A    
C42   C73   S    
N8    N25   A    
C88   O16   D    
C17   C87   S    
C28   C70   S    
C78   N31   A    
C14   C32   A    
C82   H47   S    
C92   O4    D    
C47   C61   S    
C90   H54   S    
C84   O12   D    
C45   N28   A    
C30   C68   S    
C38   C77   S    
N11   N27   A    
C10   N10   A    
N2    Ni6   S    
C35   C78   A    
N5    N26   A    
C15   N15   A    
C46   C63   D    
C65   H30   S    
C32   C65   S    
C14   N14   A    
C27   C66   S    
C80   H44   S    
C11   C30   A    
C91   H55   S    
N26   Ni6   S    
N10   Ni4   S    
C2    C37   A    
C26   C40   A    
C72   H37   S    
C61   C79   D    
C33   C64   S    
C52   H17   S    
C46   H10   S    
C70   H35   S    
C22   C93   S    
C9    N9    A    
C15   C33   A    
C48   H13   S    
C67   H62   S    
C6    H6    S    
N16   Ni3   S    
C60   H25   S    
C91   O3    D    
N17   Ni2   S    
N2    N18   A    
C52   C70   D    
C51   H16   S    
N14   N29   A    
C1    N1    A    
C55   C73   D    
C3    H3    S    
C78   H63   S    
C54   C72   D    
C73   H38   S    
C34   H34   S    
N14   Ni1   S    
C22   N22   A    
C64   H29   S    
N19   Ni8   S    
C5    C40   A    
N13   Ni2   S    
C1    C27   A    
C87   O15   D    
C13   C27   A    
C35   C63   S    
C51   C69   D    
C82   O10   D    
C50   C68   D    
C59   C76   D    
C32   C56   A    
C83   O11   D    
N4    Ni8   S    
C9    C28   A    
C49   H14   S    
C90   O2    D    
C21   C92   S    
