data_mof_unit_24581.cif
_audit_creation_date              2012-12-10T17:15:55-0500
_audit_creation_method            fapswitch 2.2
_symmetry_space_group_name_H-M    P1
_symmetry_Int_Tables_number       1
_space_group_crystal_system       triclinic
_cell_length_a                    10.01781
_cell_length_b                    10.523853
_cell_length_c                    10.797494
_cell_angle_alpha                 91.394286
_cell_angle_beta                  97.364388
_cell_angle_gamma                 84.207017
_cell_volume                      1123.10571922

loop_
_atom_site_label
_atom_site_type_symbol
_atom_type_description
_atom_site_fract_x
_atom_site_fract_y
_atom_site_fract_z
_atom_type_partial_charge
C1    C     C_R   0.441570 0.510589 0.267512 0.966147
C2    C     C_2   0.492547 0.467096 0.937684 -0.168758
C3    C     C_2   0.084951 0.464681 0.494572 -0.195605
C4    C     C_R   0.493577 0.259728 0.489447 0.879547
C5    C     C_2   0.952155 0.424824 0.526815 -0.061106
C6    C     C_R   0.557921 0.488169 0.733472 0.890607
C7    C     C_R   0.509900 0.738479 0.519027 0.947954
C8    C     C_R   0.652430 0.081006 0.330353 -0.117232
C9    C     C_R   0.780785 0.017435 0.314402 0.319351
C10   C     C_R   0.839159 0.920153 0.397782 -0.154392
C11   C     C_R   0.760776 0.874956 0.483695 0.323415
C12   C     C_R   0.584893 0.044431 0.429794 -0.063344
C13   C     C_R   0.625880 0.927490 0.485799 0.004263
C14   C     C_2   0.962171 0.310412 0.606131 1.023235
C15   C     C_2   0.127533 0.608821 0.666626 1.184459
C16   C     C_2   0.578780 0.169849 0.234336 0.976151
C17   C     C_2   0.979976 0.863667 0.392988 1.030069
C18   C     C_2   0.369980 0.903474 0.708141 1.076443
C19   C     C_2   0.389481 0.377782 0.889827 0.855967
C20   C     C_R   0.485588 0.124248 0.484453 -0.041322
C21   C     C_R   0.409487 0.076204 0.569499 -0.146830
C22   C     C_R   0.431981 0.948886 0.602137 -0.099194
C23   C     C_R   0.530705 0.871408 0.546931 -0.101298
C24   C     C_2   0.401969 0.497847 0.136034 -0.364603
C25   C     C_2   0.481674 0.536024 0.057449 0.425630
C26   C     C_2   0.592485 0.485207 0.868637 0.254404
Cl1   Cl    Cl    0.871581 0.062047 0.194649 -0.391920
Cl2   Cl    Cl    0.837570 0.772365 0.604843 -0.507465
Cl3   Cl    Cl    0.563796 0.676455 0.097112 -0.475567
Cl4   Cl    Cl    0.753490 0.527663 0.932863 -0.421530
H1    H     H_    0.340529 0.139689 0.617693 0.222103
H2    H     H_    0.192912 0.346156 0.855025 0.386022
H3    H     H_    0.328607 0.430277 0.110216 0.158691
H4    H     H_    0.126201 0.410802 0.418895 0.204037
H5    H     H_    0.854729 0.507749 0.377265 0.231978
H6    H     H_    0.876230 0.401501 0.745582 0.382266
H7    H     H_    0.024410 0.613550 0.815766 0.406514
H8    H     H_    0.402284 0.218783 0.126411 0.347566
H9    H     H_    0.115214 0.770128 0.291434 0.355758
H10   H     H_    0.389900 0.784541 0.854843 0.388210
N1    N     N_2   0.157290 0.551390 0.551110 -0.188470
N2    N     N_2   0.842740 0.448550 0.448960 -0.201753
O1    O     O_R   0.568950 0.489660 0.307530 -0.553906
O2    O     O_R   0.908657 0.312561 0.719164 -0.695843
O3    O     O_2   0.190081 0.696803 0.708869 -0.555557
O4    O     O_R   0.032424 0.564527 0.734595 -0.803955
O5    O     O_2   0.638162 0.245177 0.182763 -0.544526
O6    O     O_R   0.439994 0.164076 0.200972 -0.786444
O7    O     O_2   0.064046 0.868194 0.485231 -0.546038
O8    O     O_R   0.016569 0.805615 0.282826 -0.717762
O9    O     O_2   0.264146 0.957954 0.736343 -0.499924
O10   O     O_R   0.437261 0.802357 0.780503 -0.762404
O11   O     O_2   0.426334 0.273686 0.846132 -0.596793
O12   O     O_R   0.348880 0.522640 0.340350 -0.623715
O13   O     O_R   0.251634 0.414469 0.891167 -0.775592
O14   O     O_R   0.610060 0.300270 0.483590 -0.612875
O15   O     O_R   0.389990 0.333260 0.516410 -0.624422
O16   O     O_R   0.651120 0.477360 0.659650 -0.581119
O17   O     O_R   0.431050 0.510340 0.692470 -0.623673
O18   O     O_R   0.610010 0.666740 0.483590 -0.579983
O19   O     O_R   0.389940 0.699730 0.516410 -0.593754
O20   O     O_2   0.019897 0.210629 0.571533 -0.545159
Zn1   Zn    Zn3+2 0.646940 0.477980 0.478090 1.065848
Zn2   Zn    Zn3+2 0.353060 0.522020 0.521910 1.017199

loop_
_geom_bond_atom_site_label_1
_geom_bond_atom_site_label_2
_ccdc_geom_bond_type
C4    O15   A    
C17   O8    S    
O19   Zn2   S    
C5    N2    D    
C24   C25   D    
C19   O13   S    
C11   C13   A    
C9    C10   A    
C6    O16   A    
H2    O13   S    
H8    O6    S    
C24   H3    S    
C3    H4    S    
C8    C12   A    
C1    O12   A    
C12   C20   A    
C2    C26   D    
C5    C14   S    
O14   Zn1   S    
C18   O10   S    
C8    C16   S    
H10   O10   S    
C21   C22   A    
C4    O14   A    
C25   Cl3   S    
C12   C13   A    
C21   H1    S    
C19   O11   D    
O17   Zn2   S    
C6    C26   S    
N1    Zn2   S    
O12   Zn2   S    
C11   Cl2   S    
C1    C24   S    
O18   Zn1   S    
C7    C23   S    
N2    Zn1   S    
C16   O5    D    
C13   C23   A    
C18   O9    D    
C26   Cl4   S    
C2    C25   S    
C16   O6    S    
H6    O2    S    
C10   C11   A    
C15   O3    D    
C15   N1    S    
O1    Zn1   S    
C14   O20   D    
C7    O18   A    
H9    O8    S    
C20   C21   A    
C9    Cl1   S    
O15   Zn2   S    
C14   O2    S    
C17   O7    D    
O16   Zn1   S    
H5    N2    S    
C22   C23   A    
C7    O19   A    
C10   C17   S    
C15   O4    S    
H7    O4    S    
C18   C22   S    
C6    O17   A    
C1    O1    A    
C3    N1    D    
C2    C19   S    
C8    C9    A    
C3    C5    S    
C4    C20   S    
