data_mof_unit_23005.cif
_audit_creation_date              2012-12-10T17:17:24-0500
_audit_creation_method            fapswitch 2.2
_symmetry_space_group_name_H-M    P1
_symmetry_Int_Tables_number       1
_space_group_crystal_system       triclinic
_cell_length_a                    10.26025
_cell_length_b                    10.830215
_cell_length_c                    12.420453
_cell_angle_alpha                 91.011184
_cell_angle_beta                  108.999785
_cell_angle_gamma                 94.064348
_cell_volume                      1300.48182154

loop_
_atom_site_label
_atom_site_type_symbol
_atom_type_description
_atom_site_fract_x
_atom_site_fract_y
_atom_site_fract_z
_atom_type_partial_charge
C1    C     C_R   0.050778 0.731878 0.494544 0.876637
C2    C     C_R   0.208777 0.524367 0.837792 -0.113382
C3    C     C_2   0.078729 0.863715 0.495628 -0.205818
C4    C     C_R   0.133312 0.508487 0.714356 0.951373
C5    C     C_2   0.045255 0.937091 0.570584 -0.114993
C6    C     C_2   0.942813 0.136233 0.535818 -0.224333
C7    C     C_2   0.056952 0.070259 0.563269 -0.083003
C8    C     C_2   0.432533 0.509318 0.506479 0.633349
C9    C     C_2   0.571592 0.486396 0.491594 0.026605
C10   C     C_R   0.954145 0.267671 0.513066 0.898125
C11   C     C_R   0.867036 0.492798 0.285958 0.938655
C12   C     C_R   0.442660 0.550739 0.972752 -0.070851
C13   C     C_R   0.764637 0.412227 0.971772 0.621819
C14   C     C_R   0.795606 0.492013 0.162495 -0.347265
C15   C     C_R   0.163998 0.605466 0.906660 -0.194690
C16   C     C_R   0.263264 0.674288 0.996751 -0.181505
C17   C     C_R   0.402851 0.654003 0.022832 0.727914
C18   C     C_1   0.996759 0.424018 0.109845 0.359826
C19   C     C_1   0.004492 0.890166 0.664562 0.294374
C20   C     C_1   0.806820 0.078533 0.524575 0.248540
C21   C     C_1   0.127334 0.912137 0.406075 0.212588
C22   C     C_1   0.580533 0.388631 0.414402 0.171187
C23   C     C_R   0.344244 0.485794 0.879047 -0.105979
C24   C     C_1   0.302010 0.341199 0.385751 0.214338
C25   C     C_1   0.559356 0.270110 0.783619 0.391600
C26   C     C_1   0.018691 0.622487 0.883159 0.317008
C27   C     C_1   0.224664 0.772014 0.058347 0.303840
C28   C     C_1   0.196130 0.121167 0.575762 0.394296
C29   C     C_R   0.578070 0.511258 0.011331 -0.096947
C30   C     C_R   0.623118 0.432535 0.940353 -0.167797
C31   C     C_R   0.523227 0.367012 0.847799 -0.107830
C32   C     C_R   0.383910 0.385053 0.826561 0.608768
C33   C     C_R   0.661601 0.531812 0.124767 0.669383
C34   C     C_R   0.852218 0.445204 0.081920 -0.234197
F1    F     F_    0.430556 0.604739 0.578274 -0.568786
F2    F     F_    0.681693 0.645986 0.616167 -0.490764
F3    F     F_    0.817545 0.357201 0.897589 -0.659568
F4    F     F_    0.604429 0.573003 0.201895 -0.612685
F5    F     F_    0.498781 0.739913 0.090970 -0.605711
F6    F     F_    0.286024 0.301284 0.758643 -0.692930
N1    N     N_2   0.313640 0.446500 0.454900 -0.212934
N2    N     N_1   0.902701 0.635965 0.865013 -0.087104
N3    N     N_1   0.193617 0.850350 0.107368 -0.138981
N4    N     N_1   0.306900 0.159164 0.582939 -0.164235
N5    N     N_2   0.686360 0.553430 0.545150 0.178350
N6    N     N_1   0.112458 0.407568 0.130941 -0.174200
N7    N     N_1   0.971515 0.854396 0.739724 -0.140449
N8    N     N_1   0.698238 0.032607 0.515577 -0.102333
N9    N     N_1   0.166096 0.950917 0.334732 -0.132000
N10   N     N_1   0.587700 0.310331 0.352313 -0.143469
N11   N     N_1   0.290155 0.253020 0.328194 -0.154543
N12   N     N_1   0.590186 0.192862 0.733215 -0.134505
O1    O     O_R   0.936910 0.692950 0.509080 -0.582305
O2    O     O_R   0.138320 0.658600 0.480130 -0.568478
O3    O     O_R   0.002900 0.525670 0.675280 -0.606723
O4    O     O_R   0.204310 0.491320 0.646330 -0.547355
O5    O     O_R   0.861680 0.341400 0.519870 -0.625519
O6    O     O_R   0.063090 0.307050 0.490920 -0.612907
O7    O     O_R   0.795690 0.508680 0.353670 -0.550234
O8    O     O_R   0.997100 0.474330 0.324720 -0.636866
Zn1   Zn    Zn3+2 0.865520 0.522940 0.519330 1.110715
Zn2   Zn    Zn3+2 0.134480 0.477060 0.480670 1.044882

loop_
_geom_bond_atom_site_label_1
_geom_bond_atom_site_label_2
_ccdc_geom_bond_type
C12   C17   A    
C6    C10   S    
C2    C4    S    
C1    O2    A    
C14   C34   A    
C6    C7    D    
C24   N1    S    
C29   C33   A    
C12   C29   A    
C29   C30   A    
C6    C20   S    
C13   F3    S    
C31   C32   A    
C22   N10   T    
C23   C32   A    
C24   N11   T    
C21   N9    T    
C25   N12   T    
C13   C34   A    
C11   O8    A    
C4    O4    A    
O5    Zn1   S    
C2    C15   A    
C18   C34   S    
C12   C23   A    
C20   N8    T    
O6    Zn2   S    
C14   C33   A    
C11   O7    A    
C9    N5    D    
N1    Zn2   S    
C16   C27   S    
C10   O6    A    
C5    C19   S    
O4    Zn2   S    
C32   F6    S    
C4    O3    A    
C30   C31   A    
C11   C14   S    
C19   N7    T    
C9    C22   S    
O7    Zn1   S    
C3    C21   S    
O3    Zn1   S    
C15   C16   A    
C18   N6    T    
C27   N3    T    
C13   C30   A    
F2    N5    S    
C10   O5    A    
C8    N1    D    
C26   N2    T    
O8    Zn2   S    
C17   F5    S    
N5    Zn1   S    
C2    C23   A    
C5    C7    S    
C1    O1    A    
C8    C9    S    
C15   C26   S    
O2    Zn2   S    
C3    C5    D    
O1    Zn1   S    
C25   C31   S    
C28   N4    T    
C7    C28   S    
C33   F4    S    
C16   C17   A    
C1    C3    S    
C8    F1    S    
