data_mof_unit_59696.cif
_audit_creation_date              2012-12-10T19:47:18-0500
_audit_creation_method            fapswitch 2.2
_symmetry_space_group_name_H-M    P1
_symmetry_Int_Tables_number       1
_space_group_crystal_system       triclinic
_cell_length_a                    14.979291
_cell_length_b                    14.155974
_cell_length_c                    10.659019
_cell_angle_alpha                 89.914899
_cell_angle_beta                  89.892966
_cell_angle_gamma                 90.086822
_cell_volume                      2260.19813996

loop_
_atom_site_label
_atom_site_type_symbol
_atom_type_description
_atom_site_fract_x
_atom_site_fract_y
_atom_site_fract_z
_atom_type_partial_charge
C1    C     C_R   0.327726 0.499947 0.501171 0.828479
C2    C     C_R   0.672357 0.500049 0.501883 0.869060
C3    C     C_R   0.232077 0.499782 0.509695 -0.014635
C4    C     C_R   0.768153 0.500279 0.511604 -0.030590
C5    C     C_R   0.184076 0.422037 0.465286 -0.195225
C6    C     C_R   0.812201 0.419061 0.553583 -0.197607
C7    C     C_R   0.092150 0.421638 0.474528 -0.177339
C8    C     C_R   0.904049 0.419500 0.564000 -0.187682
C9    C     C_R   0.048369 0.498449 0.529667 0.118366
C10   C     C_R   0.951964 0.500675 0.530810 0.115301
C11   C     C_R   0.427449 0.104784 0.451755 -0.255625
C12   C     C_R   0.572519 0.104950 0.548572 -0.255379
C13   C     C_R   0.428952 0.204208 0.452011 0.011798
C14   C     C_R   0.571016 0.204370 0.548165 0.009579
C15   C     C_R   0.499990 0.053479 0.500183 0.178954
C16   C     C_R   0.569190 0.895380 0.440639 0.097107
C17   C     C_R   0.430849 0.894978 0.559643 0.095609
C18   C     C_R   0.567632 0.795606 0.442944 -0.073902
C19   C     C_R   0.432404 0.795221 0.557201 -0.068875
C20   C     C_R   0.500012 0.946883 0.500162 0.045395
C21   C     C_R   0.499796 0.500101 0.260478 0.937356
C22   C     C_R   0.500390 0.499994 0.739514 0.903006
C23   C     C_R   0.340086 0.550877 0.130358 -0.149933
C24   C     C_R   0.340039 0.549127 0.869259 -0.148180
C25   C     C_R   0.262693 0.574250 0.064899 -0.137097
C26   C     C_R   0.262666 0.573368 0.934444 -0.145128
C27   C     C_R   0.419426 0.525692 0.934327 0.062527
C28   C     C_R   0.419460 0.526587 0.065466 0.041421
C29   C     C_R   0.498455 0.500787 0.128224 -0.196129
C30   C     C_R   0.498720 0.500253 0.871741 -0.189338
C31   C     C_R   0.576936 0.474773 0.065213 0.171059
C32   C     C_R   0.577579 0.476243 0.935303 0.121638
C33   C     C_R   0.096653 0.575333 0.576456 -0.188931
C34   C     C_R   0.907802 0.582315 0.490625 -0.177455
C35   C     C_R   0.188522 0.576324 0.565636 -0.211064
C36   C     C_R   0.815891 0.582325 0.481797 -0.212072
H1    H     H_    0.620258 0.756220 0.397160 0.131558
H2    H     H_    0.379821 0.755540 0.603045 0.133207
H3    H     H_    0.336801 0.551426 0.231691 0.132319
H4    H     H_    0.336822 0.548501 0.767997 0.129021
H5    H     H_    0.202496 0.592611 0.115595 0.136457
H6    H     H_    0.202479 0.591098 0.883545 0.135963
H7    H     H_    0.063241 0.634528 0.620417 0.127871
H8    H     H_    0.944478 0.644961 0.462749 0.129579
H9    H     H_    0.225463 0.636106 0.602163 0.140244
H10   H     H_    0.782450 0.645522 0.449075 0.147900
H11   H     H_    0.217442 0.362694 0.421561 0.143250
H12   H     H_    0.775765 0.355727 0.579211 0.146313
H13   H     H_    0.055182 0.362627 0.435986 0.131119
H14   H     H_    0.937782 0.356459 0.596633 0.132019
H15   H     H_    0.370413 0.068161 0.412727 0.145516
H16   H     H_    0.629547 0.068458 0.587683 0.144351
H17   H     H_    0.373061 0.242768 0.413500 0.123465
H18   H     H_    0.626855 0.243050 0.586762 0.116771
N1    N     N_R   0.500000 0.252470 0.500000 -0.089850
N2    N     N_R   0.500000 0.747550 0.500000 -0.105810
O1    O     O_R   0.369060 0.579480 0.500010 -0.634256
O2    O     O_R   0.630940 0.579480 0.499990 -0.637354
O3    O     O_R   0.369050 0.420520 0.500010 -0.628118
O4    O     O_R   0.630950 0.420520 0.499990 -0.622943
O5    O     O_R   0.500000 0.579490 0.316770 -0.623570
O6    O     O_R   0.500000 0.579490 0.683230 -0.616307
O7    O     O_R   0.499990 0.420540 0.316770 -0.602344
O8    O     O_R   0.500010 0.420540 0.683230 -0.625020
Zn1   Zn    Zn3+2 0.500000 0.606140 0.500000 0.933122
Zn2   Zn    Zn3+2 0.500000 0.393860 0.500000 0.948656
N3    N     N_2   0.652911 0.441589 0.133090 -0.289562
H19   H     H_    0.687657 0.388036 0.089384 0.244951
C37   C     C_3   0.711254 0.514051 0.182427 -0.770905
H20   H     H_    0.760948 0.480916 0.245630 0.238751
H21   H     H_    0.673080 0.567492 0.236319 0.239990
H22   H     H_    0.748174 0.549565 0.105666 0.237349
N4    N     N_2   0.658310 0.455286 0.869783 -0.317825
H23   H     H_    0.651583 0.405726 0.799655 0.228004
C38   C     C_3   0.708833 0.537351 0.830032 -0.775712
H24   H     H_    0.776502 0.515105 0.799659 0.245830
H25   H     H_    0.715814 0.588984 0.907445 0.243506
H26   H     H_    0.675193 0.573096 0.750614 0.245935
N5    N     N_2   0.639965 0.942949 0.377428 -0.309653
H27   H     H_    0.699510 0.906413 0.378550 0.215446
C39   C     C_3   0.617487 0.975574 0.252759 -0.774171
H28   H     H_    0.674784 0.015362 0.212682 0.235673
H29   H     H_    0.558891 0.023466 0.255556 0.254005
H30   H     H_    0.602509 0.914466 0.190843 0.232736
N6    N     N_2   0.360124 0.942124 0.623027 -0.309649
H31   H     H_    0.300551 0.905451 0.621789 0.216355
C40   C     C_3   0.382655 0.974222 0.747820 -0.772437
H32   H     H_    0.325410 0.013721 0.788072 0.236757
H33   H     H_    0.441312 0.022235 0.745187 0.252947
H34   H     H_    0.397564 0.912859 0.809487 0.234086

loop_
_geom_bond_atom_site_label_1
_geom_bond_atom_site_label_2
_ccdc_geom_bond_type
C19   N2    A    
C40   H32   S    
C4    C36   A    
N4    H23   S    
C24   C27   A    
N1    Zn2   S    
C39   H28   S    
N6    H31   S    
C31   N3    S    
C5    H11   S    
C6    H12   S    
C17   N6    S    
C28   C29   A    
C18   H1    S    
C24   C26   A    
C1    O3    A    
O3    Zn2   S    
C2    O4    A    
N2    Zn1   S    
C17   C20   A    
C37   H21   S    
C24   H4    S    
C11   C15   A    
C36   H10   S    
C9    C10   S    
C21   O5    A    
C18   N2    A    
C14   N1    A    
O7    Zn2   S    
O4    Zn2   S    
C27   C30   A    
C9    C33   A    
N4    C38   S    
C39   H29   S    
C13   H17   S    
N6    C40   S    
C15   C20   S    
N3    H19   S    
C33   H7    S    
C34   H8    S    
C7    H13   S    
C4    C6    A    
C25   H5    S    
C32   N4    S    
N5    C39   S    
C17   C19   A    
C6    C8    A    
C25   C26   A    
C21   C29   S    
C1    C3    S    
O8    Zn2   S    
C37   H22   S    
C2    C4    S    
C38   H24   S    
C19   H2    S    
C1    O1    A    
C22   O6    A    
O2    Zn1   S    
C31   C32   A    
C12   C15   A    
C3    C35   A    
C16   C20   A    
C10   C34   A    
C23   C28   A    
C38   H25   S    
C16   C18   A    
C14   H18   S    
C12   C14   A    
C40   H33   S    
C35   H9    S    
C8    H14   S    
C39   H30   S    
C26   H6    S    
C5    C7    A    
C7    C9    A    
C22   C30   S    
O6    Zn1   S    
O1    Zn1   S    
C3    C5    A    
C2    O2    A    
C12   H16   S    
C16   N5    S    
C29   C31   A    
C30   C32   A    
C11   C13   A    
C23   H3    S    
C33   C35   A    
C34   C36   A    
C23   C25   A    
C37   H20   S    
C38   H26   S    
C21   O7    A    
C11   H15   S    
C22   O8    A    
N5    H27   S    
O5    Zn1   S    
C8    C10   A    
C40   H34   S    
C27   C28   A    
N3    C37   S    
C13   N1    A    
