data_mof_unit_18054.cif
_audit_creation_date              2012-12-10T17:01:37-0500
_audit_creation_method            fapswitch 2.2
_symmetry_space_group_name_H-M    P1
_symmetry_Int_Tables_number       1
_space_group_crystal_system       triclinic
_cell_length_a                    9.804333
_cell_length_b                    11.041322
_cell_length_c                    13.076574
_cell_angle_alpha                 89.682217
_cell_angle_beta                  76.928793
_cell_angle_gamma                 111.027389
_cell_volume                      1281.21120381

loop_
_atom_site_label
_atom_site_type_symbol
_atom_type_description
_atom_site_fract_x
_atom_site_fract_y
_atom_site_fract_z
_atom_type_partial_charge
C1    C     C_R   0.439655 0.253964 0.507773 0.914483
C2    C     C_R   0.560341 0.746046 0.492370 0.853387
C3    C     C_2   0.083317 0.513263 0.492841 0.022156
C4    C     C_2   0.918082 0.481807 0.500584 0.045423
C5    C     C_R   0.473584 0.489387 0.702492 0.876697
C6    C     C_R   0.522012 0.494763 0.298456 0.857714
C7    C     C_R   0.528077 0.479866 0.186338 -0.168289
C8    C     C_R   0.458311 0.476574 0.816537 -0.167829
C9    C     C_R   0.306146 0.471337 0.991432 -0.093082
C10   C     C_R   0.683549 0.494023 0.010832 -0.092683
C11   C     C_R   0.328724 0.485314 0.883108 -0.251737
C12   C     C_R   0.669826 0.505194 0.117566 -0.246428
C13   C     C_R   0.568513 0.456551 0.860897 0.400799
C14   C     C_R   0.397951 0.443619 0.145402 0.390029
C15   C     C_R   0.558242 0.470050 0.968686 -0.006919
C16   C     C_R   0.419262 0.460942 0.035731 -0.009265
C17   C     C_2   0.405659 0.114647 0.512159 -0.295323
C18   C     C_2   0.594363 0.885407 0.488539 -0.322884
C19   C     C_2   0.516892 0.069619 0.499084 -0.135663
C20   C     C_2   0.483060 0.930450 0.502835 -0.141839
Cu1   Cu    Cu3+1 0.647370 0.522180 0.481340 1.016934
Cu2   Cu    Cu3+1 0.352630 0.477820 0.518660 1.010567
H1    H     H_    0.771033 0.531303 0.146290 0.198329
H2    H     H_    0.242174 0.500222 0.851654 0.201393
H3    H     H_    0.203496 0.476614 0.039825 0.206933
H4    H     H_    0.794646 0.512599 0.960900 0.205450
H5    H     H_    0.366002 0.864462 0.517250 0.182492
H6    H     H_    0.633881 0.135606 0.485299 0.179463
H7    H     H_    0.711241 0.951689 0.474021 0.157061
H8    H     H_    0.288862 0.048390 0.526021 0.152169
H9    H     H_    0.837364 0.394767 0.548504 0.187385
H10   H     H_    0.165416 0.595204 0.438948 0.164007
H11   H     H_    0.948646 0.639014 0.409689 0.200061
H12   H     H_    0.050746 0.365450 0.595458 0.212910
N1    N     N_2   0.131210 0.444490 0.546730 -0.281878
N2    N     N_2   0.868790 0.555510 0.453270 -0.284410
O1    O     O_R   0.578710 0.332530 0.490040 -0.575635
O2    O     O_R   0.421290 0.667470 0.509960 -0.591720
O3    O     O_R   0.329810 0.295070 0.521560 -0.570388
O4    O     O_R   0.670190 0.704930 0.478440 -0.579997
O5    O     O_R   0.604230 0.515670 0.637800 -0.512180
O6    O     O_R   0.395770 0.484330 0.362200 -0.517840
O7    O     O_R   0.355330 0.478200 0.669330 -0.587157
O8    O     O_R   0.644670 0.521800 0.330670 -0.588729
S1    S     S_3+6 0.211810 0.355761 0.224297 -0.001399
O9    O     O_2   0.142282 0.451619 0.267568 -0.341585
O10   O     O_2   0.115979 0.269016 0.158784 -0.273325
O11   O     O_3   0.215204 0.260191 0.323634 -0.515878
H13   H     H_    0.112951 0.231992 0.371276 0.364685
S2    S     S_3+6 0.697249 0.388056 0.790864 -0.024404
O12   O     O_2   0.838682 0.496295 0.732552 -0.323353
O13   O     O_2   0.736214 0.309426 0.866005 -0.296371
O14   O     O_3   0.618213 0.288150 0.706173 -0.558686
H14   H     H_    0.671988 0.226844 0.693636 0.356353

loop_
_geom_bond_atom_site_label_1
_geom_bond_atom_site_label_2
_ccdc_geom_bond_type
C5    C8    S    
S2    O13   D    
C4    N2    D    
C8    C13   A    
C19   H6    S    
C20   H5    S    
C1    O1    A    
C2    C18   S    
Cu1   O8    S    
C2    O2    A    
C1    C17   S    
Cu2   O7    S    
C3    N1    D    
C10   H4    S    
C19   C20   S    
Cu2   N1    S    
S2    O12   D    
C5    O7    A    
C9    H3    S    
C18   H7    S    
C6    O8    A    
O14   H14   S    
C17   H8    S    
C9    C11   A    
C12   H1    S    
Cu2   O6    S    
Cu1   O4    S    
C10   C12   A    
C8    C11   A    
Cu1   O5    S    
Cu2   O3    S    
Cu1   Cu2   S    
O11   H13   S    
C17   C19   D    
C9    C16   A    
C6    C7    S    
C18   C20   D    
C10   C15   A    
C13   C15   A    
C3    H10   S    
C14   C16   A    
C7    C12   A    
S1    O11   S    
S2    O14   S    
C1    O3    A    
C15   C16   A    
C4    H9    S    
C2    O4    A    
C11   H2    S    
H11   N2    S    
Cu1   O1    S    
H12   N1    S    
C6    O6    A    
S1    O10   D    
Cu1   N2    S    
C5    O5    A    
C14   S1    S    
S1    O9    D    
C7    C14   A    
C3    C4    S    
C13   S2    S    
Cu2   O2    S    
