data_mof_unit_65475.cif
_audit_creation_date              2013-03-05T15:43:14-0500
_audit_creation_method            fapswitch 2.2
_symmetry_space_group_name_H-M    P1
_symmetry_Int_Tables_number       1
_space_group_crystal_system       triclinic
_cell_length_a                    18.523153
_cell_length_b                    18.52347
_cell_length_c                    59.870339
_cell_angle_alpha                 89.998431
_cell_angle_beta                  90.017299
_cell_angle_gamma                 90.000047
_cell_volume                      20542.2948064

loop_
_atom_site_label
_atom_site_type_symbol
_atom_site_description
_atom_site_fract_x
_atom_site_fract_y
_atom_site_fract_z
_atom_type_partial_charge
Zn1   Zn    Zn3+2 0.585740 1.000000 0.981400 1.049673
Zn2   Zn    Zn3+2 0.000000 0.585740 0.981400 1.049518
Zn3   Zn    Zn3+2 0.414260 1.000000 0.981400 1.048912
Zn4   Zn    Zn3+2 0.000000 0.414260 0.981400 1.049535
Zn5   Zn    Zn3+2 0.085740 0.500000 0.481400 1.049354
Zn6   Zn    Zn3+2 0.500000 0.085740 0.481400 1.049577
Zn7   Zn    Zn3+2 0.914260 0.500000 0.481400 1.050127
Zn8   Zn    Zn3+2 0.500000 0.914260 0.481400 1.049271
Zn9   Zn    Zn3+2 0.500000 0.914160 0.018820 0.985572
Zn10  Zn    Zn3+2 0.085840 0.500000 0.018820 0.985313
Zn11  Zn    Zn3+2 0.500000 0.085840 0.018820 0.985514
Zn12  Zn    Zn3+2 0.914160 0.500000 0.018820 0.985898
Zn13  Zn    Zn3+2 0.000000 0.414160 0.518820 0.987419
Zn14  Zn    Zn3+2 0.585840 1.000000 0.518820 0.985639
Zn15  Zn    Zn3+2 0.000000 0.585840 0.518820 0.985723
Zn16  Zn    Zn3+2 0.414160 1.000000 0.518820 0.985987
O1    O     O_3   0.500000 1.000000 0.000110 -0.512845
O2    O     O_3   1.000000 0.500000 0.000110 -0.512579
O3    O     O_3   0.000000 0.500000 0.500110 -0.512575
O4    O     O_3   0.500000 1.000000 0.500110 -0.512763
O5    O     O_R   0.500000 0.060060 0.050050 -0.645749
O6    O     O_R   0.939940 0.500000 0.050050 -0.646779
O7    O     O_R   0.500000 0.939940 0.050050 -0.645804
O8    O     O_R   0.060060 0.500000 0.050050 -0.646016
O9    O     O_R   0.000000 0.560060 0.550050 -0.645895
O10   O     O_R   0.439940 1.000000 0.550050 -0.646300
O11   O     O_R   0.000000 0.439940 0.550050 -0.646155
O12   O     O_R   0.560060 1.000000 0.550050 -0.645778
O13   O     O_R   0.559990 1.000000 0.950170 -0.602938
O14   O     O_R   0.000000 0.559990 0.950170 -0.603627
O15   O     O_R   0.440010 1.000000 0.950170 -0.603651
O16   O     O_R   0.000000 0.440010 0.950170 -0.603788
O17   O     O_R   0.059990 0.500000 0.450170 -0.603885
O18   O     O_R   0.500000 0.059990 0.450170 -0.603479
O19   O     O_R   0.940010 0.500000 0.450170 -0.605752
O20   O     O_R   0.500000 0.940010 0.450170 -0.603865
O21   O     O_R   0.584430 0.855390 0.013200 -0.641625
O22   O     O_R   0.144610 0.584430 0.013200 -0.641426
O23   O     O_R   0.415570 0.144610 0.013200 -0.641487
O24   O     O_R   0.855390 0.415570 0.013200 -0.640498
O25   O     O_R   0.415570 0.855390 0.013200 -0.642602
O26   O     O_R   0.855390 0.584430 0.013200 -0.642933
O27   O     O_R   0.584430 0.144610 0.013200 -0.642851
O28   O     O_R   0.144610 0.415570 0.013200 -0.643930
O29   O     O_R   0.084430 0.355390 0.513200 -0.641247
O30   O     O_R   0.644610 0.084430 0.513200 -0.641738
O31   O     O_R   0.915570 0.644610 0.513200 -0.641348
O32   O     O_R   0.355390 0.915570 0.513200 -0.640930
O33   O     O_R   0.915570 0.355390 0.513200 -0.642378
O34   O     O_R   0.355390 0.084430 0.513200 -0.642283
O35   O     O_R   0.084430 0.644610 0.513200 -0.642504
O36   O     O_R   0.644610 0.915570 0.513200 -0.643228
O37   O     O_R   0.355260 0.084530 0.987020 -0.637852
O38   O     O_R   0.915470 0.355260 0.987020 -0.638323
O39   O     O_R   0.644740 0.915470 0.987020 -0.637155
O40   O     O_R   0.084530 0.644740 0.987020 -0.637142
O41   O     O_R   0.644740 0.084530 0.987020 -0.621636
O42   O     O_R   0.084530 0.355260 0.987020 -0.621480
O43   O     O_R   0.355260 0.915470 0.987020 -0.622433
O44   O     O_R   0.915470 0.644740 0.987020 -0.622834
O45   O     O_R   0.855260 0.584530 0.487020 -0.638496
O46   O     O_R   0.415470 0.855260 0.487020 -0.638373
O47   O     O_R   0.144740 0.415470 0.487020 -0.637467
O48   O     O_R   0.584530 0.144740 0.487020 -0.637047
O49   O     O_R   0.144740 0.584530 0.487020 -0.624133
O50   O     O_R   0.584530 0.855260 0.487020 -0.621663
O51   O     O_R   0.855260 0.415470 0.487020 -0.622568
O52   O     O_R   0.415470 0.144740 0.487020 -0.623039
C1    C     C_R   0.500007 0.999999 0.060752 0.796808
C2    C     C_R   0.000001 0.500026 0.060780 0.797411
C3    C     C_R   0.999998 0.499999 0.560752 0.796357
C4    C     C_R   0.500010 0.999999 0.560753 0.796946
C5    C     C_R   0.499990 0.000000 0.939469 0.966449
C6    C     C_R   0.000000 0.500001 0.939475 0.968871
C7    C     C_R   0.999934 0.499674 0.439480 0.976537
C8    C     C_R   0.500008 0.000002 0.439475 0.968919
C9    C     C_R   0.638354 0.861235 0.000067 0.861012
C10   C     C_R   0.138769 0.638355 0.000066 0.861669
C11   C     C_R   0.361346 0.138467 0.000194 0.864018
C12   C     C_R   0.861535 0.361350 0.000194 0.864631
C13   C     C_R   0.361357 0.861524 0.000189 0.877260
C14   C     C_R   0.861527 0.638639 0.000189 0.877422
C15   C     C_R   0.638341 0.138770 0.000062 0.873379
C16   C     C_R   0.138774 0.361657 0.000062 0.873710
C17   C     C_R   0.138352 0.361234 0.500066 0.862802
C18   C     C_R   0.638771 0.138354 0.500065 0.861466
C19   C     C_R   0.861346 0.638467 0.500194 0.864480
C20   C     C_R   0.361537 0.861348 0.500195 0.864146
C21   C     C_R   0.861361 0.361520 0.500187 0.880537
C22   C     C_R   0.361526 0.138639 0.500188 0.877480
C23   C     C_R   0.138345 0.638768 0.500063 0.872779
C24   C     C_R   0.638774 0.861657 0.500062 0.873834
C25   C     C_2   0.806718 0.249421 0.986933 -0.129499
C26   C     C_2   0.751746 0.807896 0.987440 -0.134701
C27   C     C_2   0.192099 0.751751 0.987436 -0.134601
C28   C     C_2   0.249412 0.193279 0.986929 -0.129058
C29   C     C_2   0.192099 0.248274 0.987431 -0.116623
C30   C     C_2   0.249475 0.806677 0.986904 -0.112224
C31   C     C_2   0.806676 0.750522 0.986910 -0.112338
C32   C     C_2   0.751722 0.192107 0.987433 -0.116873
C33   C     C_2   0.306753 0.749387 0.486948 -0.129397
C34   C     C_2   0.251742 0.307892 0.487439 -0.134776
C35   C     C_2   0.692133 0.251719 0.487421 -0.134294
C36   C     C_2   0.749411 0.693279 0.486929 -0.129057
C37   C     C_2   0.692098 0.748274 0.487431 -0.116830
C38   C     C_2   0.749514 0.306639 0.486888 -0.110897
C39   C     C_2   0.306671 0.250518 0.486908 -0.112371
C40   C     C_2   0.251763 0.692069 0.487453 -0.119063
C41   C     C_2   0.806581 0.305654 0.001047 -0.289882
C42   C     C_2   0.691643 0.803875 0.999869 -0.283482
C43   C     C_2   0.196133 0.691639 0.999866 -0.283281
C44   C     C_2   0.305648 0.193416 0.001048 -0.290586
C45   C     C_2   0.196111 0.308355 0.999873 -0.282457
C46   C     C_2   0.305635 0.806605 0.001051 -0.291262
C47   C     C_2   0.806603 0.694358 0.001050 -0.291301
C48   C     C_2   0.691647 0.196105 0.999874 -0.281836
C49   C     C_2   0.306592 0.805644 0.501052 -0.289703
C50   C     C_2   0.191640 0.303872 0.499867 -0.282683
C51   C     C_2   0.696141 0.191631 0.499863 -0.283014
C52   C     C_2   0.805648 0.693416 0.501048 -0.289988
C53   C     C_2   0.696111 0.808356 0.499873 -0.281798
C54   C     C_2   0.805645 0.306596 0.501046 -0.290784
C55   C     C_2   0.306601 0.194357 0.501049 -0.290807
C56   C     C_2   0.191652 0.696102 0.499875 -0.281244
H1    H     H_    0.849275 0.244164 0.974557 0.195014
H2    H     H_    0.761272 0.854722 0.976920 0.192312
H3    H     H_    0.145261 0.761285 0.976916 0.192349
H4    H     H_    0.244152 0.150726 0.974548 0.195196
H5    H     H_    0.145310 0.238802 0.976884 0.196887
H6    H     H_    0.244315 0.849135 0.974486 0.202031
H7    H     H_    0.849138 0.755688 0.974498 0.201700
H8    H     H_    0.761191 0.145330 0.976888 0.196948
H9    H     H_    0.349324 0.744114 0.474577 0.194601
H10   H     H_    0.261268 0.354718 0.476919 0.191670
H11   H     H_    0.645312 0.261237 0.476892 0.192211
H12   H     H_    0.744150 0.650724 0.474549 0.194692
H13   H     H_    0.645309 0.738800 0.476885 0.196708
H14   H     H_    0.744379 0.349073 0.474461 0.201581
H15   H     H_    0.349132 0.255682 0.474496 0.201548
H16   H     H_    0.261264 0.645260 0.476923 0.195459
H17   H     H_    0.766368 0.312018 0.013975 0.153933
H18   H     H_    0.679077 0.757438 0.010085 0.156260
H19   H     H_    0.242584 0.679062 0.010080 0.156268
H20   H     H_    0.312012 0.233625 0.013981 0.153439
H21   H     H_    0.242494 0.320872 0.010122 0.154107
H22   H     H_    0.311879 0.766499 0.014021 0.152477
H23   H     H_    0.766489 0.688105 0.014013 0.152165
H24   H     H_    0.679136 0.242477 0.010122 0.154559
H25   H     H_    0.266370 0.812016 0.513977 0.153698
H26   H     H_    0.179074 0.257435 0.510084 0.156307
H27   H     H_    0.742579 0.179066 0.510084 0.156363
H28   H     H_    0.812013 0.733626 0.513980 0.153531
H29   H     H_    0.742496 0.820874 0.510122 0.154381
H30   H     H_    0.811866 0.266511 0.514024 0.152065
H31   H     H_    0.266490 0.188107 0.514013 0.152384
H32   H     H_    0.179113 0.742503 0.510108 0.154637
C57   C     C_R   0.476016 0.059756 0.832491 0.665793
C58   C     C_R   0.940953 0.474366 0.832513 0.665911
C59   C     C_R   0.523851 0.940243 0.832497 0.665811
C60   C     C_R   0.059019 0.525666 0.832523 0.665926
C61   C     C_R   0.957105 0.544969 0.332731 0.666160
C62   C     C_R   0.441203 0.974449 0.332508 0.665930
C63   C     C_R   0.020615 0.433066 0.332506 0.666347
C64   C     C_R   0.559293 0.025693 0.332526 0.666436
O53   O     O_2   0.452059 0.117568 0.844035 -0.486823
O54   O     O_2   0.883845 0.448789 0.844057 -0.486856
O55   O     O_2   0.547794 0.882427 0.844047 -0.486754
O56   O     O_2   0.116128 0.551243 0.844077 -0.486804
O57   O     O_2   0.927898 0.600093 0.344374 -0.487377
O58   O     O_2   0.384075 0.948897 0.344049 -0.487360
O59   O     O_2   0.054129 0.379872 0.343901 -0.485890
O60   O     O_2   0.616406 0.051245 0.344083 -0.485896
N1    N     N_R   0.499930 0.999999 0.843701 -0.315331
N2    N     N_R   0.999987 0.500015 0.843724 -0.315365
N3    N     N_R   0.992215 0.490682 0.343783 -0.315449
N4    N     N_R   0.500240 0.000072 0.343724 -0.315577
C65   C     C_R   0.448177 0.959022 0.879412 0.237669
C66   C     C_R   0.042063 0.449121 0.879439 0.237771
C67   C     C_R   0.551711 0.040988 0.879415 0.237672
C68   C     C_R   0.957920 0.550898 0.879433 0.237767
C69   C     C_R   0.948913 0.447587 0.380282 0.234685
C70   C     C_R   0.542234 0.949162 0.379446 0.236944
C71   C     C_R   0.044439 0.538625 0.378689 0.240235
C72   C     C_R   0.458123 0.050965 0.379425 0.237984
C73   C     C_R   0.448509 0.958459 0.902928 0.168591
C74   C     C_R   0.042544 0.449383 0.902956 0.167698
C75   C     C_R   0.551407 0.041553 0.902930 0.168066
C76   C     C_R   0.957444 0.550628 0.902950 0.168288
C77   C     C_R   0.950943 0.449580 0.403771 0.169639
C78   C     C_R   0.542640 0.949398 0.402963 0.167809
C79   C     C_R   0.046393 0.540973 0.402232 0.164873
C80   C     C_R   0.457569 0.050668 0.402942 0.168386
C81   C     C_R   0.499938 0.000003 0.867732 -0.010772
C82   C     C_R   0.999991 0.500012 0.867754 -0.010660
C83   C     C_R   0.995514 0.492140 0.367801 -0.009873
C84   C     C_R   0.500212 0.000077 0.367754 -0.010713
C85   C     C_R   0.499956 0.000007 0.797175 -0.040848
C86   C     C_R   0.999985 0.500014 0.797197 -0.040807
C87   C     C_R   0.980968 0.485288 0.297368 -0.041458
C88   C     C_R   0.500271 0.000063 0.297196 -0.040184
C89   C     C_R   0.476186 0.061110 0.809034 -0.091848
C90   C     C_R   0.939625 0.474423 0.809055 -0.091849
C91   C     C_R   0.523708 0.938897 0.809040 -0.091865
C92   C     C_R   0.060346 0.525607 0.809065 -0.091867
C93   C     C_R   0.950449 0.543010 0.309352 -0.091293
C94   C     C_R   0.439889 0.974507 0.309051 -0.091351
C95   C     C_R   0.014635 0.428872 0.309140 -0.091799
C96   C     C_R   0.560636 0.025631 0.309067 -0.091409
C97   C     C_R   0.455692 0.123126 0.797361 -0.132442
C98   C     C_R   0.878289 0.451988 0.797377 -0.132611
C99   C     C_R   0.544219 0.876887 0.797372 -0.132427
C100  C     C_R   0.121680 0.548039 0.797398 -0.132607
C101  C     C_R   0.909345 0.594441 0.298009 -0.132691
C102  C     C_R   0.378545 0.952113 0.297371 -0.132606
C103  C     C_R   0.036698 0.367222 0.297609 -0.133248
C104  C     C_R   0.621985 0.048039 0.297403 -0.130820
C105  C     C_R   0.499967 0.000005 0.914770 -0.334120
C106  C     C_R   0.999996 0.500004 0.914786 -0.333733
C107  C     C_R   0.999323 0.496698 0.414814 -0.332276
C108  C     C_R   0.500064 0.000014 0.414786 -0.333639
H33   H     H_    0.442274 0.171965 0.806414 0.237502
H34   H     H_    0.829884 0.437077 0.806425 0.237446
H35   H     H_    0.557623 0.828043 0.806428 0.237506
H36   H     H_    0.170087 0.562951 0.806454 0.237449
H37   H     H_    0.879428 0.634639 0.307341 0.237273
H38   H     H_    0.330123 0.937239 0.306417 0.236967
H39   H     H_    0.055547 0.320491 0.306801 0.237659
H40   H     H_    0.670391 0.062939 0.306461 0.237325
C109  C     C_R   0.999884 0.499924 0.085442 -0.014863
C110  C     C_R   0.500066 0.999997 0.085363 -0.012808
C111  C     C_R   0.500029 1.000000 0.585365 -0.013067
C112  C     C_R   0.999993 0.499998 0.585363 -0.012629
C113  C     C_R   0.950135 0.545477 0.238472 0.060374
C114  C     C_R   0.446020 0.962032 0.238271 0.063150
C115  C     C_R   0.014605 0.428895 0.238241 0.061181
C116  C     C_R   0.554586 0.038010 0.238277 0.061134
C117  C     C_R   0.463714 0.055459 0.738252 0.061280
C118  C     C_R   0.945720 0.461992 0.738270 0.061261
C119  C     C_R   0.536304 0.944589 0.738262 0.061275
C120  C     C_R   0.054247 0.538025 0.738279 0.061259
C121  C     C_R   0.984382 0.488555 0.226643 0.085256
C122  C     C_R   0.500306 0.000009 0.226537 0.088979
C123  C     C_R   0.500019 0.000027 0.726521 0.088332
C124  C     C_R   0.999983 0.500008 0.726538 0.088291
C125  C     C_R   0.931183 0.608326 0.226396 -0.117308
C126  C     C_R   0.401282 0.914423 0.226130 -0.114436
C127  C     C_R   0.057267 0.379668 0.225908 -0.121961
C128  C     C_R   0.599331 0.085592 0.226135 -0.115115
C129  C     C_R   0.417535 0.101660 0.726104 -0.116282
C130  C     C_R   0.901003 0.414373 0.726125 -0.116243
C131  C     C_R   0.582504 0.898395 0.726130 -0.116263
C132  C     C_R   0.098965 0.585642 0.726141 -0.116240
C133  C     C_R   0.935205 0.610784 0.203233 -0.113351
C134  C     C_R   0.403312 0.912220 0.202892 -0.110467
C135  C     C_R   0.060717 0.382363 0.202736 -0.113594
C136  C     C_R   0.597293 0.087764 0.202895 -0.107833
C137  C     C_R   0.415293 0.099690 0.702866 -0.109296
C138  C     C_R   0.903038 0.412185 0.702886 -0.109352
C139  C     C_R   0.584783 0.900375 0.702892 -0.109286
C140  C     C_R   0.096930 0.587825 0.702901 -0.109334
C141  C     C_R   0.963481 0.552601 0.191276 -0.032438
C142  C     C_R   0.451192 0.956422 0.191045 -0.027437
C143  C     C_R   0.026457 0.437797 0.191026 -0.030374
C144  C     C_R   0.549400 0.043558 0.191046 -0.029468
C145  C     C_R   0.458000 0.050455 0.691025 -0.028910
C146  C     C_R   0.950901 0.456412 0.691042 -0.028842
C147  C     C_R   0.542092 0.949612 0.691038 -0.028916
C148  C     C_R   0.049067 0.543596 0.691050 -0.028862
C149  C     C_R   0.990937 0.492709 0.202981 -0.055791
C150  C     C_R   0.500302 0.999994 0.202866 -0.056019
C151  C     C_R   0.500038 0.000032 0.702851 -0.056468
C152  C     C_R   0.999984 0.500005 0.702867 -0.056448
C153  C     C_R   0.028990 0.441005 0.167587 0.523393
C154  C     C_R   0.548648 0.042566 0.167597 0.523911
C155  C     C_R   0.967590 0.554097 0.167844 0.522339
C156  C     C_R   0.451905 0.957411 0.167597 0.523434
C157  C     C_R   0.541152 0.950393 0.667591 0.523323
C158  C     C_R   0.048336 0.542601 0.667601 0.523317
C159  C     C_R   0.458964 0.049674 0.667579 0.523308
C160  C     C_R   0.951633 0.457400 0.667594 0.523293
N5    N     N_R   0.998740 0.498073 0.156456 -0.355973
N6    N     N_R   0.500265 0.999990 0.156342 -0.355478
N7    N     N_R   0.500061 0.000031 0.656335 -0.355590
N8    N     N_R   0.999985 0.500000 0.656343 -0.355459
C161  C     C_R   0.064783 0.502843 0.120747 -0.095099
C162  C     C_R   0.514506 0.936180 0.120523 -0.093342
C163  C     C_R   0.934190 0.495947 0.120559 -0.097192
C164  C     C_R   0.485869 0.063819 0.120528 -0.094571
C165  C     C_R   0.435909 0.987185 0.620526 -0.094326
C166  C     C_R   0.014318 0.436182 0.620528 -0.094072
C167  C     C_R   0.564186 0.012835 0.620531 -0.094317
C168  C     C_R   0.985655 0.563814 0.620524 -0.094083
C169  C     C_R   0.065126 0.503159 0.097421 -0.205332
C170  C     C_R   0.514050 0.936040 0.097223 -0.206353
C171  C     C_R   0.934390 0.496450 0.097255 -0.204492
C172  C     C_R   0.486166 0.063956 0.097227 -0.206020
C173  C     C_R   0.435772 0.987517 0.597227 -0.206134
C174  C     C_R   0.013944 0.436042 0.597227 -0.206200
C175  C     C_R   0.564299 0.012487 0.597231 -0.205965
C176  C     C_R   0.986037 0.563953 0.597223 -0.206179
C177  C     C_R   0.999322 0.499090 0.132434 0.298432
C178  C     C_R   0.500225 0.999999 0.132315 0.294787
C179  C     C_R   0.500053 0.000016 0.632313 0.295745
C180  C     C_R   0.999985 0.499998 0.632315 0.295140
O61   O     O_2   0.941010 0.611252 0.156535 -0.542443
O62   O     O_2   0.404042 0.916826 0.156140 -0.546017
O63   O     O_2   0.060626 0.387083 0.156015 -0.544089
O64   O     O_2   0.596489 0.083151 0.156140 -0.544123
O65   O     O_2   0.419833 0.098707 0.656111 -0.544927
O66   O     O_2   0.903800 0.416793 0.656133 -0.545148
O67   O     O_2   0.580295 0.901360 0.656135 -0.544917
O68   O     O_2   0.096170 0.583206 0.656148 -0.545088
C181  C     C_R   0.473078 0.061124 0.761751 -0.051402
C182  C     C_R   0.939755 0.471199 0.761769 -0.051432
C183  C     C_R   0.526897 0.938910 0.761758 -0.051400
C184  C     C_R   0.060213 0.528823 0.761779 -0.051429
C185  C     C_R   0.942241 0.540859 0.262102 -0.043295
C186  C     C_R   0.440047 0.971266 0.261767 -0.051148
C187  C     C_R   0.007206 0.424071 0.261892 -0.043901
C188  C     C_R   0.560535 0.028828 0.261779 -0.049894
C189  C     C_R   0.499977 0.000014 0.773517 0.034683
C190  C     C_R   0.999984 0.500012 0.773536 0.034606
C191  C     C_R   0.977252 0.483654 0.273691 0.035063
C192  C     C_R   0.500286 0.000053 0.273536 0.035320
C193  C     C_R   0.456888 0.125112 0.774027 0.261602
C194  C     C_R   0.876302 0.453033 0.774041 0.261739
C195  C     C_R   0.543063 0.874915 0.774037 0.261606
C196  C     C_R   0.123666 0.546989 0.774062 0.261733
C197  C     C_R   0.900434 0.590906 0.274851 0.264011
C198  C     C_R   0.376572 0.953157 0.274035 0.264881
C199  C     C_R   0.028166 0.361929 0.274468 0.258644
C200  C     C_R   0.623985 0.046985 0.274067 0.263476
H41   H     H_    0.116408 0.506025 0.088787 0.172731
H42   H     H_    0.525254 0.886055 0.088506 0.172024
H43   H     H_    0.883278 0.493818 0.088508 0.173508
H44   H     H_    0.474908 0.113942 0.088515 0.171770
H45   H     H_    0.385522 0.977450 0.588516 0.172144
H46   H     H_    0.025185 0.386059 0.588514 0.171876
H47   H     H_    0.614539 0.022549 0.588523 0.172215
H48   H     H_    0.974798 0.613937 0.588507 0.171823
H49   H     H_    0.115400 0.505609 0.129759 0.154971
H50   H     H_    0.526123 0.886664 0.129441 0.158432
H51   H     H_    0.883345 0.492746 0.129425 0.156106
H52   H     H_    0.474303 0.113334 0.129450 0.157549
H53   H     H_    0.386137 0.976783 0.629448 0.157210
H54   H     H_    0.025918 0.386668 0.629449 0.157571
H55   H     H_    0.613967 0.023244 0.629456 0.157233
H56   H     H_    0.974052 0.613328 0.629442 0.157555
H57   H     H_    0.917751 0.659460 0.194776 0.205043
H58   H     H_    0.366998 0.875844 0.194260 0.200246
H59   H     H_    0.092231 0.341819 0.194077 0.202996
H60   H     H_    0.633603 0.124130 0.194264 0.202608
H61   H     H_    0.380067 0.137115 0.694228 0.201745
H62   H     H_    0.866744 0.375794 0.694252 0.201706
H63   H     H_    0.620021 0.862952 0.694266 0.201749
H64   H     H_    0.133224 0.624214 0.694273 0.201712
H65   H     H_    0.915421 0.657726 0.234549 0.192845
H66   H     H_    0.365531 0.876963 0.234414 0.184894
H67   H     H_    0.090911 0.339755 0.233844 0.189607
H68   H     H_    0.635079 0.123069 0.234418 0.187233
H69   H     H_    0.381192 0.138562 0.734382 0.185993
H70   H     H_    0.865273 0.376886 0.734406 0.186020
H71   H     H_    0.618833 0.861489 0.734419 0.186001
H72   H     H_    0.134695 0.623130 0.734427 0.186019
N9    N     N_R   0.451551 0.194592 0.763466 0.201410
O69   O     O_R   0.406673 0.242705 0.771091 -0.315737
O70   O     O_R   0.499418 0.213944 0.748722 -0.320898
N10   N     N_R   0.807044 0.445436 0.763470 0.201313
O71   O     O_R   0.760423 0.399003 0.771089 -0.315911
O72   O     O_R   0.786160 0.492639 0.748715 -0.321194
N11   N     N_R   0.548420 0.805441 0.763475 0.201410
O73   O     O_R   0.593282 0.757322 0.771115 -0.315714
O74   O     O_R   0.500580 0.786099 0.748713 -0.320933
N12   N     N_R   0.192924 0.554580 0.763504 0.201316
O75   O     O_R   0.239551 0.601009 0.771130 -0.315902
O76   O     O_R   0.213805 0.507375 0.748753 -0.321171
N13   N     N_R   0.841184 0.630482 0.265328 0.198094
O77   O     O_R   0.796672 0.598363 0.251748 -0.333317
O78   O     O_R   0.825106 0.694548 0.272741 -0.321319
N14   N     N_R   0.307314 0.945624 0.263460 0.199950
O79   O     O_R   0.260635 0.899252 0.271081 -0.327248
O80   O     O_R   0.286493 0.992832 0.248698 -0.327407
N15   N     N_R   0.030154 0.290882 0.264830 0.200811
O81   O     O_R   0.076373 0.243297 0.272005 -0.318038
O82   O     O_R   0.978821 0.270231 0.251422 -0.313934
N16   N     N_R   0.693251 0.054567 0.263512 0.200992
O83   O     O_R   0.739869 0.101009 0.271137 -0.313752
O84   O     O_R   0.714145 0.007345 0.248770 -0.321273
N17   N     N_R   0.603302 0.084782 0.914718 0.259624
O85   O     O_R   0.672008 0.076184 0.911066 -0.288525
O86   O     O_R   0.581888 0.134794 0.928468 -0.354033
N18   N     N_R   0.913299 0.601714 0.914747 0.258927
O87   O     O_R   0.864134 0.579401 0.928649 -0.356292
O88   O     O_R   0.920285 0.670542 0.910983 -0.289092
N19   N     N_R   0.396625 0.915236 0.914714 0.259317
O89   O     O_R   0.327915 0.923842 0.911057 -0.289608
O90   O     O_R   0.418052 0.865221 0.928465 -0.354965
N20   N     N_R   0.086682 0.398287 0.914760 0.259210
O91   O     O_R   0.079663 0.329460 0.911000 -0.288373
O92   O     O_R   0.135863 0.420587 0.928667 -0.355223
N21   N     N_R   0.096021 0.588672 0.413290 0.257974
O93   O     O_R   0.164588 0.586086 0.408644 -0.285420
O94   O     O_R   0.072541 0.636392 0.427488 -0.356166
N22   N     N_R   0.413409 0.101760 0.414730 0.258954
O95   O     O_R   0.420448 0.170590 0.410979 -0.288984
O96   O     O_R   0.364193 0.079455 0.428616 -0.355961
N23   N     N_R   0.903768 0.403394 0.416371 0.257473
O97   O     O_R   0.834459 0.404706 0.412850 -0.289887
O98   O     O_R   0.930183 0.358361 0.430919 -0.362256
N24   N     N_R   0.586738 0.898285 0.414774 0.259168
O99   O     O_R   0.579732 0.829463 0.411003 -0.288321
O100  O     O_R   0.635885 0.920565 0.428696 -0.354584
N25   N     N_R   0.603554 0.083492 0.867311 0.257186
O101  O     O_R   0.613349 0.151159 0.872300 -0.248009
O102  O     O_R   0.639718 0.055360 0.850842 -0.332559
N26   N     N_R   0.914208 0.601732 0.867324 0.257208
O103  O     O_R   0.846357 0.609999 0.872332 -0.248256
O104  O     O_R   0.941436 0.638466 0.850829 -0.332492
N27   N     N_R   0.396320 0.916517 0.867305 0.257232
O105  O     O_R   0.386520 0.848854 0.872298 -0.247929
O106  O     O_R   0.360149 0.944643 0.850829 -0.332572
N28   N     N_R   0.085766 0.398284 0.867337 0.257165
O107  O     O_R   0.153612 0.389990 0.872360 -0.248279
O108  O     O_R   0.058531 0.361566 0.850834 -0.332551
N29   N     N_R   0.090527 0.585085 0.365774 0.257820
O109  O     O_R   0.095171 0.653483 0.370514 -0.249330
O110  O     O_R   0.126118 0.559835 0.348747 -0.331115
N30   N     N_R   0.414468 0.101830 0.367308 0.257085
O111  O     O_R   0.346609 0.110132 0.372300 -0.248283
O112  O     O_R   0.441759 0.138558 0.350821 -0.332086
N31   N     N_R   0.900545 0.398991 0.369023 0.256037
O113  O     O_R   0.898410 0.331112 0.374578 -0.248787
O114  O     O_R   0.859418 0.421998 0.352904 -0.330030
N32   N     N_R   0.585960 0.898326 0.367351 0.257445
O115  O     O_R   0.653794 0.890025 0.372389 -0.246641
O116  O     O_R   0.558760 0.861614 0.350842 -0.328998

loop_
_geom_bond_atom_site_label_1
_geom_bond_atom_site_label_2
_geom_bond_distance
_ccdc_geom_bond_type
C66   N28   1.437857 S    
C4    C111  1.473541 S    
C77   N23   1.436995 S    
N29   O109  1.301222 A    
C154  N6    1.370732 A    
C117  C129  1.411574 A    
C153  O63   1.349546 S    
C161  C169  1.396600 A    
C154  O64   1.349557 S    
C100  C196  1.397742 A    
C65   C81   1.408878 A    
C57   O53   1.349684 S    
C30   C46   1.341251 D    
C120  C124  1.414205 A    
C97   H33   1.083537 S    
C115  C127  1.414765 A    
C109  C171  1.405928 A    
C156  O62   1.349561 S    
O34   C22   1.275966 A    
Zn14  O36   1.935051 S    
C78   N24   1.436406 S    
N30   O112  1.301146 A    
C32   C48   1.341273 D    
O52   C22   1.277977 A    
C172  H44   1.082956 S    
C18   C51   1.450300 S    
C159  N7    1.370618 A    
C162  H50   1.082855 S    
C74   N20   1.436402 S    
Zn4   O2    1.943518 S    
C168  H56   1.082854 S    
C184  C190  1.423175 A    
N25   O102  1.301156 A    
O47   C17   1.278033 A    
C61   C93   1.405571 A    
C60   N2    1.368069 A    
C40   C56   1.341273 D    
N3    C83   1.439511 S    
N10   O71   1.301476 A    
C144  C154  1.404091 A    
C187  C191  1.423120 A    
C132  H72   1.079880 S    
C113  C185  1.424903 A    
C137  C145  1.400148 A    
N18   O88   1.301145 A    
C111  C173  1.405334 A    
O22   C10   1.275821 A    
C185  C197  1.429011 A    
O46   C20   1.278041 A    
C80   N22   1.436413 S    
Zn12  O24   1.934935 S    
N16   O84   1.301636 A    
C60   C92   1.404637 A    
C7    C107  1.477808 S    
Zn16  O4    1.945269 S    
C99   H35   1.083539 S    
C92   C100  1.397070 A    
C32   H8    1.086412 S    
C188  C200  1.426569 A    
C195  N11   1.437323 S    
Zn3   O15   1.929774 S    
C25   C32   1.471648 S    
C46   H22   1.080850 S    
Zn4   O16   1.929624 S    
C130  H70   1.079880 S    
C135  C143  1.395822 A    
N2    C82   1.438672 S    
Zn7   O3    1.943194 S    
C136  C144  1.400138 A    
C86   C92   1.406857 A    
N17   O85   1.301147 A    
C65   N27   1.437899 S    
C137  H61   1.083284 S    
N15   O81   1.301583 A    
O11   C3    1.283840 A    
C132  C140  1.392448 A    
C67   C81   1.408872 A    
C133  C141  1.395911 A    
O49   C23   1.278000 A    
C124  C152  1.417197 A    
C116  C188  1.421559 A    
C176  H48   1.082959 S    
C88   C192  1.416544 A    
O50   C24   1.277816 A    
C134  H58   1.083211 S    
C33   H9    1.086389 S    
Zn9   O25   1.934897 S    
C101  C197  1.397767 A    
Zn10  O22   1.935033 S    
C165  C173  1.394952 A    
N26   O103  1.301213 A    
C153  N5    1.369395 A    
N9    O69   1.301521 A    
Zn13  O29   1.935061 S    
C113  C125  1.414597 A    
C156  N6    1.370712 A    
Zn10  O2    1.944715 S    
C59   O55   1.349681 S    
Zn3   O1    1.943194 S    
C164  C172  1.395054 A    
N6    C178  1.438523 S    
C66   C74   1.408035 A    
C186  C198  1.426515 A    
C73   N19   1.436288 S    
Zn10  O8    1.929906 S    
O5    C1    1.283835 A    
C119  C123  1.414261 A    
C70   C78   1.408037 A    
C181  C193  1.426586 A    
C77   C107  1.414789 A    
Zn8   O46   1.938949 S    
N14   O79   1.301474 A    
C98   H34   1.083495 S    
C148  C158  1.404064 A    
O27   C15   1.275981 A    
C22   C55   1.450158 S    
C116  C128  1.411564 A    
C36   C37   1.471629 S    
N27   O105  1.301221 A    
C174  H46   1.082959 S    
C87   C93   1.406360 A    
C86   C190  1.416550 A    
C63   N3    1.368167 A    
C34   H10   1.086378 S    
N21   O93   1.301151 A    
O8    C2    1.284794 A    
N31   O114  1.301088 A    
C72   N30   1.437859 S    
C57   N1    1.368121 A    
C74   C106  1.415061 A    
C28   H4    1.086387 S    
C104  H40   1.083500 S    
C187  C199  1.429114 A    
C126  H66   1.079889 S    
C14   C47   1.450155 S    
C165  H53   1.082903 S    
O16   C6    1.282514 A    
O14   C6    1.282508 A    
Zn15  O9    1.929756 S    
C21   C54   1.450125 S    
Zn6   O48   1.938793 S    
Zn12  O6    1.929627 S    
O40   C10   1.277865 A    
C162  C170  1.395034 A    
C125  H65   1.077471 S    
N12   O75   1.301478 A    
C115  C121  1.420080 A    
O45   C19   1.277874 A    
C193  N9    1.437322 S    
O17   C7    1.283243 A    
C148  C152  1.406920 A    
C163  C171  1.395237 A    
Zn5   O17   1.929495 S    
C13   C46   1.450133 S    
C86   C90   1.406856 A    
Zn12  O26   1.934920 S    
C10   C43   1.450292 S    
O9    C3    1.283836 A    
C140  C148  1.400126 A    
C141  C149  1.407195 A    
C103  C199  1.397849 A    
C43   H19   1.080862 S    
O35   C23   1.275981 A    
C60   O56   1.349670 S    
C118  C130  1.411550 A    
C91   C99   1.397113 A    
C69   C77   1.407265 A    
C89   C97   1.397111 A    
C58   N2    1.368066 A    
C123  C151  1.417095 A    
C163  H51   1.082884 S    
Zn10  O28   1.935051 S    
C37   C53   1.341268 D    
N22   O95   1.301150 A    
C64   C96   1.404679 A    
C115  C187  1.425446 A    
C157  O67   1.349588 S    
Zn9   O7    1.929781 S    
C158  O68   1.349557 S    
C170  H42   1.082956 S    
C117  C181  1.421410 A    
Zn11  O5    1.929756 S    
C161  C177  1.401862 A    
O31   C19   1.275797 A    
Zn11  O23   1.934888 S    
C166  H54   1.082853 S    
Zn1   O41   1.938832 S    
C87   C191  1.419517 A    
N31   O113  1.301206 A    
C6    C106  1.478097 S    
O41   C15   1.277991 A    
C34   C39   1.471637 S    
C104  C200  1.397779 A    
N24   O99   1.301148 A    
C114  C122  1.414185 A    
C197  N13   1.437544 S    
N28   O107  1.301214 A    
N20   O92   1.301303 A    
C64   O60   1.349661 S    
C57   C89   1.404570 A    
C114  C186  1.421432 A    
Zn4   O42   1.938785 S    
C138  C146  1.400128 A    
N30   O111  1.301216 A    
C112  C174  1.405219 A    
C100  H36   1.083498 S    
Zn9   O1    1.944990 S    
C72   C80   1.408028 A    
C144  C150  1.406914 A    
C36   H12   1.086388 S    
C78   C108  1.415075 A    
C49   H25   1.080819 S    
C76   C106  1.415070 A    
Zn1   O1    1.943745 S    
C186  C192  1.423157 A    
Zn2   O14   1.929649 S    
Zn1   O39   1.938820 S    
C2    C109  1.476544 S    
Zn2   O40   1.938793 S    
Zn3   O37   1.938948 S    
C94   C102  1.397054 A    
C97   C193  1.397716 A    
C121  C149  1.423953 A    
C103  H39   1.083480 S    
N23   O98   1.301353 A    
C39   H15   1.086435 S    
C155  N5    1.369303 A    
N13   O78   1.301577 A    
C101  H37   1.083458 S    
Zn7   O51   1.938933 S    
C143  C149  1.407147 A    
C138  H62   1.083208 S    
C88   C96   1.406850 A    
C196  N12   1.437230 S    
C41   H17   1.080810 S    
O6    C2    1.284495 A    
O18   C8    1.282497 A    
C167  H55   1.082905 S    
N25   O101  1.301221 A    
O10   C4    1.283846 A    
C166  C174  1.395050 A    
C39   C55   1.341251 D    
C167  C179  1.402030 A    
N10   O72   1.301640 A    
N32   O115  1.301215 A    
C85   C91   1.406874 A    
Zn14  O30   1.935033 S    
C55   H31   1.080847 S    
Zn15  O3    1.945038 S    
C66   C82   1.408900 A    
C53   H29   1.080814 S    
C11   C44   1.450196 S    
C131  H71   1.079944 S    
C188  C192  1.423197 A    
N27   O106  1.301158 A    
Zn16  O34   1.934920 S    
C31   C47   1.341253 D    
Zn2   O44   1.938961 S    
C67   C75   1.407927 A    
C184  C196  1.426543 A    
C160  O66   1.349559 S    
N11   O73   1.301522 A    
C164  H52   1.082855 S    
C47   H23   1.080848 S    
C65   C73   1.407943 A    
Zn5   O47   1.938820 S    
Zn8   O20   1.929624 S    
C45   H21   1.080811 S    
C50   H26   1.080856 S    
C76   N18   1.436413 S    
Zn7   O45   1.938948 S    
C68   C76   1.408034 A    
C131  C139  1.392414 A    
C147  C151  1.406991 A    
C67   N25   1.437896 S    
C143  C153  1.405378 A    
C12   C41   1.450223 S    
C71   C83   1.409736 A    
O32   C20   1.275966 A    
C63   O59   1.349587 S    
C161  H49   1.082821 S    
C112  C176  1.405222 A    
C33   C40   1.471636 S    
C93   C101  1.395749 A    
C62   C94   1.404606 A    
N29   O110  1.301136 A    
O12   C4    1.283868 A    
Zn7   O19   1.929774 S    
O48   C18   1.277869 A    
C159  O65   1.349590 S    
O38   C12   1.278033 A    
Zn16  O10   1.929627 S    
C117  C123  1.414263 A    
Zn14  O4    1.944715 S    
C87   C95   1.406214 A    
C181  C189  1.423219 A    
C48   H24   1.080808 S    
Zn13  O3    1.944990 S    
C182  C194  1.426544 A    
C126  C134  1.392416 A    
C72   C84   1.408904 A    
O21   C9    1.275989 A    
C26   C42   1.341328 D    
Zn6   O18   1.929649 S    
O23   C11   1.275799 A    
C38   C54   1.341254 D    
C142  C150  1.406932 A    
C155  O61   1.349622 S    
Zn15  O35   1.935049 S    
C62   O58   1.349675 S    
O25   C13   1.275802 A    
C30   H6    1.086431 S    
C95   C103  1.395675 A    
C194  N10   1.437229 S    
C120  C132  1.411550 A    
C129  H69   1.079946 S    
N1    C81   1.438708 S    
C165  C179  1.402021 A    
C168  C176  1.395043 A    
C166  C180  1.402156 A    
C58   O54   1.349669 S    
N14   O80   1.301644 A    
Zn11  O1    1.945038 S    
C164  C178  1.402153 A    
C162  C178  1.402153 A    
Zn12  O2    1.945269 S    
O43   C13   1.277806 A    
C129  C137  1.392407 A    
N18   O87   1.301317 A    
O28   C16   1.275817 A    
C68   N26   1.437849 S    
N19   O89   1.301148 A    
Zn5   O3    1.943745 S    
C133  H57   1.083385 S    
Zn6   O4    1.943466 S    
C102  C198  1.397710 A    
C127  H67   1.077280 S    
C33   C49   1.341296 D    
N16   O83   1.301485 A    
C145  C151  1.406986 A    
C146  C152  1.406923 A    
C114  C126  1.411537 A    
C125  C133  1.389567 A    
C8    C108  1.478116 S    
C61   N3    1.368095 A    
C63   C95   1.405426 A    
C64   N4    1.368080 A    
C17   C50   1.450317 S    
C69   C83   1.408883 A    
C25   H1    1.086392 S    
C139  C147  1.400147 A    
C29   H5    1.086411 S    
C27   H3    1.086385 S    
O13   C5    1.282674 A    
N17   O86   1.301320 A    
C24   C53   1.450148 S    
N26   O104  1.301141 A    
C36   C52   1.341296 D    
C127  C135  1.389677 A    
C198  N14   1.437234 S    
Zn8   O50   1.938785 S    
C16   C45   1.450147 S    
Zn2   O2    1.943466 S    
C175  H47   1.082988 S    
O7    C1    1.283841 A    
C135  H59   1.083406 S    
O26   C14   1.275964 A    
Zn15  O31   1.934888 S    
Zn16  O32   1.934935 S    
C85   C189  1.416437 A    
C27   C30   1.471621 S    
C28   C44   1.341296 D    
O19   C7    1.281470 A    
Zn8   O4    1.943518 S    
C73   C105  1.415297 A    
C122  C150  1.417191 A    
O37   C11   1.277870 A    
N22   O96   1.301309 A    
N9    O70   1.301649 A    
O39   C9    1.278033 A    
C38   H14   1.086431 S    
C62   N4    1.368057 A    
C99   C195  1.397716 A    
C118  C124  1.414205 A    
O51   C21   1.277799 A    
C116  C122  1.414230 A    
C42   H18   1.080852 S    
C35   H11   1.086383 S    
C110  C172  1.405224 A    
C182  C190  1.423177 A    
O20   C8    1.282532 A    
C200  N16   1.437227 S    
N11   O74   1.301647 A    
N23   O97   1.301178 A    
O24   C12   1.275976 A    
Zn11  O27   1.935049 S    
C167  C175  1.394972 A    
N24   O100  1.301308 A    
C34   C50   1.341326 D    
Zn6   O52   1.938961 S    
C157  N7    1.370616 A    
C96   C104  1.397083 A    
C158  N8    1.370723 A    
N28   O108  1.301145 A    
C54   H30   1.080848 S    
C136  H60   1.083208 S    
O44   C14   1.277978 A    
C90   C98   1.397070 A    
Zn1   O13   1.929495 S    
N21   O94   1.301305 A    
C183  C195  1.426584 A    
C75   N17   1.436288 S    
C26   H2    1.086379 S    
C51   H27   1.080865 S    
C52   H28   1.080812 S    
C119  C131  1.411573 A    
C70   N32   1.437856 S    
C69   N31   1.437740 S    
Zn5   O49   1.938832 S    
C79   C107  1.414414 A    
C40   H16   1.086406 S    
C145  C159  1.403956 A    
C146  C160  1.404064 A    
C169  H41   1.082863 S    
C147  C157  1.403963 A    
C171  H43   1.082884 S    
O29   C17   1.275989 A    
N15   O82   1.301714 A    
O42   C16   1.277818 A    
C85   C89   1.406873 A    
C185  C191  1.422831 A    
C59   C91   1.404572 A    
C3    C112  1.473445 S    
C173  H45   1.082987 S    
C28   C29   1.471630 S    
C128  H68   1.079877 S    
Zn9   O21   1.935061 S    
C5    C105  1.478690 S    
C79   N21   1.436545 S    
N4    C84   1.438679 S    
C109  C169  1.406363 A    
C134  C142  1.400115 A    
N13   O77   1.301720 A    
Zn13  O33   1.934897 S    
C113  C121  1.419863 A    
O15   C5    1.282680 A    
C98   C194  1.397747 A    
C23   C56   1.450186 S    
C56   H32   1.080816 S    
C59   N1    1.368119 A    
C58   C90   1.404641 A    
C70   C84   1.408896 A    
C80   C108  1.415068 A    
C29   C45   1.341271 D    
N5    C177  1.438354 S    
C68   C82   1.408892 A    
C75   C105  1.415290 A    
N7    C179  1.438193 S    
N8    C180  1.438535 S    
C88   C94   1.406865 A    
Zn4   O38   1.938949 S    
C119  C183  1.421411 A    
C15   C48   1.450173 S    
C71   N29   1.437941 S    
C35   C51   1.341319 D    
C160  N8    1.370724 A    
O33   C21   1.275803 A    
C71   C79   1.410646 A    
C120  C184  1.421494 A    
N32   O116  1.301146 A    
C128  C136  1.392479 A    
C141  C155  1.405276 A    
C142  C156  1.404037 A    
C31   H7    1.086431 S    
C44   H20   1.080812 S    
C37   H13   1.086413 S    
C140  H64   1.083209 S    
C61   O57   1.349627 S    
C19   C52   1.450196 S    
C110  C170  1.405220 A    
C27   C43   1.341317 D    
C1    C110  1.473445 S    
C183  C189  1.423221 A    
C111  C175  1.405337 A    
N19   O90   1.301318 A    
C26   C31   1.471639 S    
N12   O76   1.301641 A    
C168  C180  1.402155 A    
C35   C38   1.471625 S    
C199  N15   1.437462 S    
C9    C42   1.450319 S    
C102  H38   1.083500 S    
O36   C24   1.275817 A    
C139  H63   1.083284 S    
C163  C177  1.401403 A    
C25   C41   1.341308 D    
N20   O91   1.301151 A    
Zn13  O11   1.929781 S    
Zn14  O12   1.929906 S    
C20   C49   1.450222 S    
C130  C138  1.392446 A    
Zn3   O43   1.938933 S    
O30   C18   1.275820 A    
C118  C182  1.421500 A    
