data_mof_unit_46804.cif
_audit_creation_date              2013-03-05T16:09:42-0500
_audit_creation_method            fapswitch 2.2
_symmetry_space_group_name_H-M    P1
_symmetry_Int_Tables_number       1
_space_group_crystal_system       triclinic
_cell_length_a                    25.672906
_cell_length_b                    36.183873
_cell_length_c                    22.131112
_cell_angle_alpha                 90.085691
_cell_angle_beta                  125.248948
_cell_angle_gamma                 89.835508
_cell_volume                      16789.1469231

loop_
_atom_site_label
_atom_site_type_symbol
_atom_site_description
_atom_site_fract_x
_atom_site_fract_y
_atom_site_fract_z
_atom_type_partial_charge
Zn1   Zn    Zn3+2 0.824580 0.280660 0.061400 1.041432
Zn2   Zn    Zn3+2 0.824580 0.719340 0.061400 1.044878
Zn3   Zn    Zn3+2 0.324580 0.780660 0.061400 1.034599
Zn4   Zn    Zn3+2 0.324580 0.219340 0.061400 1.032415
Zn5   Zn    Zn3+2 0.736740 0.219240 0.061440 1.054666
Zn6   Zn    Zn3+2 0.736740 0.780760 0.061440 1.060325
Zn7   Zn    Zn3+2 0.236740 0.719240 0.061440 1.017281
Zn8   Zn    Zn3+2 0.236740 0.280760 0.061440 1.085519
Zn9   Zn    Zn3+2 0.763170 0.219250 0.938580 1.045435
Zn10  Zn    Zn3+2 0.763170 0.780750 0.938580 1.029812
Zn11  Zn    Zn3+2 0.263170 0.719250 0.938580 1.055240
Zn12  Zn    Zn3+2 0.263170 0.280750 0.938580 1.024201
Zn13  Zn    Zn3+2 0.675310 0.280670 0.938580 1.049716
Zn14  Zn    Zn3+2 0.675310 0.719330 0.938580 1.037950
Zn15  Zn    Zn3+2 0.175310 0.780670 0.938580 1.049741
Zn16  Zn    Zn3+2 0.175310 0.219330 0.938580 1.028473
O1    O     O_3   0.749950 0.249950 0.000000 -0.531435
O2    O     O_3   0.749950 0.750050 0.000000 -0.528298
O3    O     O_3   0.249950 0.749950 0.000000 -0.525725
O4    O     O_3   0.249950 0.250050 0.000000 -0.527762
O5    O     O_R   0.611190 0.271450 0.957030 -0.626376
O6    O     O_R   0.611190 0.728550 0.957030 -0.618158
O7    O     O_R   0.111190 0.771450 0.957030 -0.615696
O8    O     O_R   0.111190 0.228550 0.957030 -0.617616
O9    O     O_R   0.888700 0.271440 0.042960 -0.601339
O10   O     O_R   0.888700 0.728560 0.042960 -0.606365
O11   O     O_R   0.388700 0.771440 0.042960 -0.604925
O12   O     O_R   0.388700 0.228560 0.042960 -0.633729
O13   O     O_R   0.801200 0.228440 0.163980 -0.635744
O14   O     O_R   0.801200 0.771560 0.163980 -0.614753
O15   O     O_R   0.301200 0.728440 0.163980 -0.644814
O16   O     O_R   0.301200 0.271560 0.163980 -0.609858
O17   O     O_R   0.698710 0.228470 0.836030 -0.606865
O18   O     O_R   0.698710 0.771530 0.836030 -0.652327
O19   O     O_R   0.198710 0.728470 0.836030 -0.605676
O20   O     O_R   0.198710 0.271530 0.836030 -0.651340
O21   O     O_R   0.740720 0.167960 0.043020 -0.608541
O22   O     O_R   0.740720 0.832040 0.043020 -0.601588
O23   O     O_R   0.240720 0.667960 0.043020 -0.641128
O24   O     O_R   0.240720 0.332040 0.043020 -0.593247
O25   O     O_R   0.697700 0.331940 0.957000 -0.599548
O26   O     O_R   0.697700 0.668060 0.957000 -0.640020
O27   O     O_R   0.197700 0.831940 0.957000 -0.609212
O28   O     O_R   0.197700 0.168060 0.957000 -0.641986
O29   O     O_R   0.759220 0.167970 0.957030 -0.632047
O30   O     O_R   0.759220 0.832030 0.957030 -0.631156
O31   O     O_R   0.259220 0.667970 0.957030 -0.612051
O32   O     O_R   0.259220 0.332030 0.957030 -0.633262
O33   O     O_R   0.802170 0.331930 0.042960 -0.630261
O34   O     O_R   0.802170 0.668070 0.042960 -0.625178
O35   O     O_R   0.302170 0.831930 0.042960 -0.630902
O36   O     O_R   0.302170 0.168070 0.042960 -0.629530
O37   O     O_R   0.862680 0.271430 0.163960 -0.616751
O38   O     O_R   0.862680 0.728570 0.163960 -0.609911
O39   O     O_R   0.362680 0.771430 0.163960 -0.616952
O40   O     O_R   0.362680 0.228570 0.163960 -0.599665
O41   O     O_R   0.637220 0.271460 0.836030 -0.641755
O42   O     O_R   0.637220 0.728540 0.836030 -0.597774
O43   O     O_R   0.137220 0.771460 0.836030 -0.638771
O44   O     O_R   0.137220 0.228540 0.836030 -0.603204
O45   O     O_R   0.654190 0.228460 0.043020 -0.580278
O46   O     O_R   0.654190 0.771540 0.043020 -0.606804
O47   O     O_R   0.154190 0.728460 0.043020 -0.601043
O48   O     O_R   0.154190 0.271540 0.043020 -0.598948
O49   O     O_R   0.845720 0.228460 0.956990 -0.623962
O50   O     O_R   0.845720 0.771540 0.956990 -0.617141
O51   O     O_R   0.345720 0.728460 0.956990 -0.622024
O52   O     O_R   0.345720 0.271540 0.956990 -0.620625
C1    C     C_R   0.608313 0.249981 0.999969 0.969348
C2    C     C_R   0.608266 0.750520 0.999876 0.948791
C3    C     C_R   0.108306 0.749611 0.999971 0.963330
C4    C     C_R   0.108644 0.250122 0.000650 0.954982
C5    C     C_R   0.891226 0.250029 0.999406 0.946289
C6    C     C_R   0.891365 0.750056 0.999690 0.959072
C7    C     C_R   0.391310 0.749944 0.999591 0.945816
C8    C     C_R   0.391608 0.249969 0.000087 0.924176
C9    C     C_R   0.849454 0.249851 0.198928 0.833207
C10   C     C_R   0.849388 0.750074 0.198933 0.808341
C11   C     C_R   0.349412 0.749865 0.198907 0.819234
C12   C     C_R   0.349367 0.250076 0.198949 0.810414
C13   C     C_R   0.650472 0.249895 0.801056 0.841772
C14   C     C_R   0.650473 0.750108 0.801057 0.843565
C15   C     C_R   0.150458 0.749906 0.801040 0.861830
C16   C     C_R   0.150569 0.250056 0.801073 0.842333
C17   C     C_R   0.749871 0.150489 0.999873 0.827183
C18   C     C_R   0.749838 0.849513 0.999992 0.828130
C19   C     C_R   0.249861 0.650483 0.999888 0.822114
C20   C     C_R   0.249887 0.349516 0.000018 0.836783
C21   C     C_R   0.749944 0.349420 0.999662 0.840318
C22   C     C_R   0.750038 0.650598 0.000229 0.837024
C23   C     C_R   0.249901 0.849412 0.999926 0.841640
C24   C     C_R   0.250051 0.150594 0.000068 0.810577
C25   C     C_3   0.682785 0.478495 0.929224 -0.192456
C26   C     C_3   0.679842 0.522873 0.939436 -0.258912
C27   C     C_3   0.179227 0.978307 0.942584 -0.180713
C28   C     C_3   0.179066 0.022679 0.955076 -0.250040
C29   C     C_3   0.806964 0.478577 0.988910 0.699809
C30   C     C_3   0.798278 0.523131 0.977699 0.750009
C31   C     C_3   0.294268 0.978410 0.969090 0.697676
C32   C     C_3   0.282313 0.022743 0.955958 0.753659
C33   C     C_1   0.750620 0.611159 0.000808 -0.113288
C34   C     C_1   0.750339 0.388872 0.997814 -0.088583
C35   C     C_1   0.250716 0.111148 0.999758 -0.110393
C36   C     C_1   0.250238 0.888855 0.998518 -0.091382
C37   C     C_3   0.752040 0.463230 0.997522 -0.085244
C38   C     C_3   0.752034 0.536867 0.001097 -0.060101
C39   C     C_3   0.252106 0.963200 0.997401 -0.083653
C40   C     C_3   0.252318 0.036862 0.999541 -0.069443
C41   C     C_3   0.776211 0.521232 0.082779 -0.181941
C42   C     C_3   0.769374 0.476168 0.077213 -0.260869
C43   C     C_3   0.293445 0.021558 0.084906 -0.179495
C44   C     C_3   0.285771 0.976554 0.081924 -0.265216
C45   C     C_1   0.751801 0.577908 0.001463 0.096806
C46   C     C_1   0.751213 0.422142 0.996566 0.083454
C47   C     C_1   0.251951 0.077895 0.999717 0.093580
C48   C     C_1   0.251067 0.922119 0.997138 0.086787
C49   C     C_3   0.975953 0.285233 0.988098 -0.144231
C50   C     C_3   0.970933 0.715756 0.978089 -0.150618
C51   C     C_3   0.470671 0.784499 0.978422 -0.148609
C52   C     C_3   0.507140 0.224033 0.048298 -0.172206
C53   C     C_3   0.483002 0.759822 0.930835 -0.177169
C54   C     C_3   0.507316 0.216122 0.979778 -0.191676
C55   C     C_3   0.985203 0.263755 0.934462 -0.181288
C56   C     C_3   0.983071 0.740666 0.930685 -0.159177
C57   C     C_3   0.551285 0.751995 0.999758 -0.158123
C58   C     C_3   0.551375 0.249953 0.999985 -0.159918
C59   C     C_3   0.051938 0.251265 0.001121 -0.154505
C60   C     C_3   0.051331 0.748270 0.999869 -0.159549
C61   C     C_3   0.539216 0.777383 0.047427 -0.142378
C62   C     C_3   0.551659 0.257567 0.069092 -0.121940
C63   C     C_3   0.042914 0.273358 0.054851 -0.155389
C64   C     C_3   0.039387 0.722715 0.047275 -0.133284
C65   C     C_3   0.014123 0.238387 0.064395 0.296210
C66   C     C_3   0.015593 0.756806 0.066853 0.304735
C67   C     C_3   0.515624 0.743184 0.066716 0.296207
C68   C     C_3   0.493214 0.283081 0.021435 0.312677
C69   C     C_3   0.526956 0.717961 0.019167 0.286616
C70   C     C_3   0.492287 0.275539 0.952421 0.324478
C71   C     C_3   0.022450 0.216379 0.010900 0.295605
C72   C     C_3   0.026793 0.782177 0.019657 0.288350
C73   C     C_3   0.956420 0.228879 0.944280 0.337711
C74   C     C_3   0.959257 0.774541 0.950539 0.336209
C75   C     C_3   0.459425 0.725815 0.950236 0.345779
C76   C     C_3   0.449068 0.241695 0.932433 0.309456
C77   C     C_3   0.947371 0.250380 0.998025 -0.141406
C78   C     C_3   0.947387 0.749644 0.998099 -0.150095
C79   C     C_3   0.447284 0.750477 0.997937 -0.146675
C80   C     C_3   0.448830 0.249615 0.000728 -0.163508
C81   C     C_3   0.464605 0.258799 0.543531 0.278812
C82   C     C_3   0.494330 0.713384 0.545444 0.384665
C83   C     C_3   0.971961 0.771839 0.543301 0.275032
C84   C     C_3   0.983923 0.218878 0.545543 0.387754
C85   C     C_3   0.539627 0.208526 0.543791 -0.150278
C86   C     C_3   0.492938 0.786479 0.543235 -0.243250
C87   C     C_3   0.018941 0.706622 0.544000 -0.156563
C88   C     C_3   0.007079 0.289894 0.543400 -0.241317
C89   C     C_3   0.484889 0.207488 0.454948 0.292319
C90   C     C_3   0.455335 0.788552 0.453925 0.406575
C91   C     C_3   0.964615 0.707955 0.455071 0.296770
C92   C     C_3   0.970017 0.290788 0.454108 0.410080
C93   C     C_1   0.388885 0.250173 0.277815 -0.031661
C94   C     C_1   0.389212 0.749478 0.277813 -0.112813
C95   C     C_1   0.888860 0.750005 0.277769 -0.037466
C96   C     C_1   0.889523 0.249320 0.277866 -0.104946
C97   C     C_3   0.537703 0.249113 0.573586 -0.076470
C98   C     C_3   0.538483 0.749941 0.573208 -0.178779
C99   C     C_3   0.037150 0.748843 0.573492 -0.073838
C100  C     C_3   0.039466 0.249252 0.573317 -0.179896
C101  C     C_3   0.424037 0.266347 0.455333 0.409051
C102  C     C_3   0.442870 0.716146 0.456520 0.282157
C103  C     C_3   0.934513 0.777811 0.454969 0.410011
C104  C     C_3   0.933483 0.222879 0.456671 0.281030
C105  C     C_3   0.464642 0.249902 0.426204 -0.045575
C106  C     C_3   0.465011 0.749251 0.426401 -0.138697
C107  C     C_3   0.964490 0.749282 0.426116 -0.046766
C108  C     C_3   0.965692 0.248703 0.426503 -0.142660
C109  C     C_3   0.527053 0.274981 0.455641 -0.377118
C110  C     C_3   0.538772 0.743130 0.454949 -0.221529
C111  C     C_3   0.035938 0.761682 0.455434 -0.358813
C112  C     C_3   0.035717 0.232653 0.455026 -0.224000
C113  C     C_3   0.565078 0.279740 0.544662 -0.224954
C114  C     C_3   0.583981 0.750165 0.544203 -0.191461
C115  C     C_3   0.076637 0.767615 0.544471 -0.221003
C116  C     C_3   0.083364 0.239367 0.544308 -0.181261
C117  C     C_1   0.422655 0.250039 0.344290 0.156853
C118  C     C_1   0.422913 0.749190 0.344311 -0.010189
C119  C     C_1   0.922594 0.749630 0.344224 0.161810
C120  C     C_1   0.923439 0.248893 0.344380 -0.011020
C121  C     C_1   0.577935 0.249272 0.655665 0.084982
C122  C     C_1   0.578582 0.750086 0.655543 0.048652
C123  C     C_1   0.077512 0.749234 0.655608 0.084508
C124  C     C_1   0.079491 0.249560 0.655621 0.049739
C125  C     C_1   0.611003 0.249629 0.722199 -0.026405
C126  C     C_1   0.611278 0.750110 0.722074 -0.055408
C127  C     C_1   0.110813 0.749619 0.722156 -0.024658
C128  C     C_1   0.111835 0.249792 0.722126 -0.057520
C129  C     C_3   0.736830 0.022992 0.057885 0.321597
C130  C     C_3   0.725109 0.978719 0.048183 0.238358
C131  C     C_3   0.230801 0.522631 0.054121 0.300130
C132  C     C_3   0.220097 0.478092 0.043586 0.303208
C133  C     C_3   0.819420 0.022083 0.021715 -0.294850
C134  C     C_3   0.822675 0.977624 0.035638 -0.167427
C135  C     C_3   0.318442 0.522190 0.023383 -0.265152
C136  C     C_3   0.321111 0.477950 0.037605 -0.197414
C137  C     C_1   0.749723 0.888903 0.000155 -0.036162
C138  C     C_1   0.749741 0.111103 0.999497 -0.009759
C139  C     C_1   0.249228 0.388913 0.999628 0.030535
C140  C     C_1   0.249258 0.611089 0.999326 -0.096444
C141  C     C_3   0.750609 0.036861 0.998869 -0.049807
C142  C     C_3   0.750429 0.963119 0.000208 -0.031350
C143  C     C_3   0.248865 0.536954 0.998392 -0.047086
C144  C     C_3   0.248284 0.463214 0.998426 -0.028020
C145  C     C_3   0.702965 0.977348 0.915376 -0.211226
C146  C     C_3   0.694129 0.021907 0.916677 -0.135363
C147  C     C_3   0.202961 0.477507 0.913436 -0.214434
C148  C     C_3   0.194676 0.522164 0.914668 -0.133102
C149  C     C_1   0.749865 0.922129 0.000495 0.076618
C150  C     C_1   0.749879 0.077899 0.998990 0.139883
C151  C     C_1   0.248660 0.422141 0.999171 0.200067
C152  C     C_1   0.248710 0.577870 0.998944 0.024175
C153  C     C_2   0.648533 0.543381 0.865350 0.366215
H1    H     H_    0.670362 0.567526 0.859770 0.137610
O53   O     O_2   0.595643 0.534459 0.811821 -0.550629
C154  C     C_2   0.674838 0.468712 0.856514 0.481993
H2    H     H_    0.681054 0.488906 0.825341 0.144088
O54   O     O_2   0.663371 0.437053 0.832711 -0.553321
C155  C     C_2   0.134325 0.043134 0.881432 0.380565
H3    H     H_    0.150050 0.067105 0.866716 0.132132
O55   O     O_2   0.078297 0.034210 0.839404 -0.552097
C156  C     C_2   0.154875 0.968337 0.862598 0.470178
H4    H     H_    0.147495 0.988768 0.822888 0.144882
O56   O     O_2   0.143640 0.936258 0.841242 -0.560983
O57   O     O_3   0.023426 0.225137 0.130010 -0.624264
C157  C     C_3   0.088722 0.217958 0.184124 0.084163
H5    H     H_    0.114487 0.244188 0.210096 0.165355
H6    H     H_    0.111804 0.203280 0.161070 0.171376
C158  C     C_3   0.095312 0.193765 0.244346 -0.767947
H7    H     H_    0.069378 0.167358 0.220197 0.251718
H8    H     H_    0.146414 0.187526 0.286951 0.218666
H9    H     H_    0.075342 0.208263 0.271043 0.272622
O58   O     O_3   0.026964 0.765674 0.135735 -0.610217
C159  C     C_3   0.093157 0.767801 0.191248 0.082570
H10   H     H_    0.118990 0.783354 0.172743 0.165897
H11   H     H_    0.113808 0.739632 0.208777 0.166259
C160  C     C_3   0.104032 0.787462 0.258455 -0.731071
H12   H     H_    0.080193 0.772139 0.279581 0.300026
H13   H     H_    0.155908 0.788980 0.302915 0.206265
H14   H     H_    0.084400 0.815963 0.243367 0.250935
O59   O     O_3   0.526843 0.734213 0.135455 -0.621419
C161  C     C_3   0.592991 0.732860 0.191510 0.082574
H15   H     H_    0.612704 0.761224 0.207827 0.161492
H16   H     H_    0.619580 0.717086 0.174098 0.163546
C162  C     C_3   0.603973 0.714129 0.259496 -0.768703
H17   H     H_    0.585862 0.685329 0.246022 0.245763
H18   H     H_    0.655738 0.713538 0.304613 0.218191
H19   H     H_    0.578807 0.729574 0.278979 0.273867
O60   O     O_3   0.480244 0.317052 0.041851 -0.611582
C163  C     C_3   0.529922 0.342423 0.064122 0.080446
H20   H     H_    0.546029 0.342137 0.026936 0.182371
H21   H     H_    0.571167 0.336261 0.121543 0.161744
C164  C     C_3   0.506500 0.381235 0.063227 -0.690977
H22   H     H_    0.491298 0.382798 0.101070 0.273384
H23   H     H_    0.545459 0.401436 0.081679 0.225763
H24   H     H_    0.465468 0.388601 0.006382 0.262595
O61   O     O_3   0.559515 0.683775 0.038804 -0.624885
C165  C     C_3   0.530333 0.658278 0.058693 0.069129
H25   H     H_    0.477580 0.657589 0.017931 0.168962
H26   H     H_    0.541707 0.665113 0.113971 0.183452
C166  C     C_3   0.556201 0.619802 0.062741 -0.739823
H27   H     H_    0.608693 0.619224 0.104654 0.272054
H28   H     H_    0.533819 0.599439 0.078636 0.227485
H29   H     H_    0.545320 0.611921 0.008045 0.258839
O62   O     O_3   0.488831 0.301724 0.902963 -0.604796
C167  C     C_3   0.431091 0.321701 0.868095 0.097821
H30   H     H_    0.431097 0.340164 0.908169 0.191217
H31   H     H_    0.388996 0.303166 0.842394 0.185632
C168  C     C_3   0.424026 0.345513 0.807227 -0.733224
H32   H     H_    0.422899 0.327732 0.765521 0.260154
H33   H     H_    0.378937 0.361610 0.779552 0.223160
H34   H     H_    0.464730 0.364995 0.831075 0.278403
O63   O     O_3   0.051145 0.181306 0.022700 -0.625768
C169  C     C_3   0.015307 0.154216 0.029306 0.074225
H35   H     H_    0.965744 0.152756 0.978604 0.187713
H36   H     H_    0.013856 0.159761 0.077685 0.180824
C170  C     C_3   0.046441 0.116671 0.040409 -0.738876
H37   H     H_    0.095905 0.116890 0.091504 0.260510
H38   H     H_    0.018716 0.095024 0.045698 0.233109
H39   H     H_    0.047792 0.109985 0.992318 0.265315
O64   O     O_3   0.059613 0.816204 0.040220 -0.625508
C171  C     C_3   0.028561 0.842243 0.056824 0.079310
H40   H     H_    0.036255 0.835438 0.110309 0.182489
H41   H     H_    0.976439 0.843694 0.012999 0.193277
C172  C     C_3   0.056370 0.880312 0.063505 -0.699492
H42   H     H_    0.048587 0.888099 0.010315 0.275864
H43   H     H_    0.032709 0.901085 0.077144 0.217291
H44   H     H_    0.108359 0.880248 0.107977 0.272466
O65   O     O_3   0.907821 0.206095 0.888049 -0.595055
C173  C     C_3   0.925927 0.192196 0.843034 0.095782
H45   H     H_    0.976473 0.182659 0.875812 0.185518
H46   H     H_    0.918767 0.213669 0.803099 0.156639
C174  C     C_3   0.883784 0.159441 0.798991 -0.733819
H47   H     H_    0.832916 0.168093 0.764346 0.273779
H48   H     H_    0.896847 0.148639 0.762385 0.216906
H49   H     H_    0.890239 0.137108 0.837155 0.257217
O66   O     O_3   0.914139 0.801203 0.901571 -0.596532
C175  C     C_3   0.934610 0.818429 0.861489 0.094078
H50   H     H_    0.922076 0.800909 0.813627 0.152874
H51   H     H_    0.986863 0.823927 0.895852 0.190028
C176  C     C_3   0.900327 0.855284 0.831960 -0.720283
H52   H     H_    0.912436 0.873637 0.878656 0.260886
H53   H     H_    0.915197 0.868880 0.799244 0.221094
H54   H     H_    0.847917 0.850914 0.795848 0.268357
O67   O     O_3   0.414056 0.700145 0.898503 -0.594607
C177  C     C_3   0.439243 0.679434 0.866593 0.127342
H55   H     H_    0.457524 0.652618 0.895994 0.174427
H56   H     H_    0.478806 0.693402 0.868463 0.165780
C178  C     C_3   0.386294 0.671737 0.785907 -0.752615
H57   H     H_    0.367564 0.698181 0.755022 0.255015
H58   H     H_    0.405116 0.654780 0.760594 0.213391
H59   H     H_    0.346855 0.656498 0.781769 0.280379
O68   O     O_3   0.391545 0.233732 0.863395 -0.624522
C179  C     C_3   0.403446 0.226330 0.809747 0.073100
H60   H     H_    0.419747 0.197302 0.815055 0.160026
H61   H     H_    0.439704 0.245152 0.814078 0.179386
C180  C     C_3   0.341688 0.231292 0.733161 -0.759753
H62   H     H_    0.323946 0.260078 0.726371 0.254700
H63   H     H_    0.350062 0.225696 0.690098 0.214490
H64   H     H_    0.304865 0.211899 0.725537 0.267940
O69   O     O_3   0.363956 0.246924 0.417173 -0.525124
C181  C     C_3   0.318468 0.260823 0.429136 0.289231
H65   H     H_    0.307075 0.290430 0.414310 0.184894
H66   H     H_    0.334433 0.256989 0.486964 0.196353
C182  C     C_3   0.255970 0.239979 0.380815 -0.859353
H67   H     H_    0.261795 0.211187 0.401024 0.256060
H68   H     H_    0.218500 0.253520 0.383570 0.251704
H69   H     H_    0.240272 0.239944 0.322369 0.254534
O70   O     O_3   0.382816 0.726529 0.443399 -0.571612
C183  C     C_3   0.326594 0.711074 0.380096 0.208084
H70   H     H_    0.322309 0.681537 0.390169 0.165651
H71   H     H_    0.325806 0.713460 0.329608 0.147149
C184  C     C_3   0.268031 0.730751 0.365522 -0.815666
H72   H     H_    0.263362 0.758154 0.340853 0.262677
H73   H     H_    0.224591 0.714554 0.325538 0.214923
H74   H     H_    0.271558 0.733970 0.417684 0.257549
O71   O     O_3   0.867766 0.768891 0.417101 -0.521193
C185  C     C_3   0.831231 0.794199 0.428159 0.270242
H75   H     H_    0.830646 0.822410 0.408263 0.184273
H76   H     H_    0.848336 0.795724 0.486703 0.194700
C186  C     C_3   0.762181 0.781563 0.384767 -0.833686
H77   H     H_    0.758717 0.755407 0.408347 0.262913
H78   H     H_    0.732854 0.802781 0.388594 0.241078
H79   H     H_    0.742964 0.777609 0.325575 0.254499
O72   O     O_3   0.878575 0.242069 0.443841 -0.574610
C187  C     C_3   0.817720 0.231381 0.380614 0.185832
H80   H     H_    0.804145 0.203956 0.389898 0.166648
H81   H     H_    0.816572 0.230395 0.329767 0.156937
C188  C     C_3   0.767148 0.258626 0.367810 -0.743812
H82   H     H_    0.771113 0.284552 0.344437 0.271549
H83   H     H_    0.718956 0.246945 0.327425 0.226580
H84   H     H_    0.772657 0.264472 0.420499 0.245593
O73   O     O_3   0.436619 0.226557 0.552161 -0.541254
C189  C     C_3   0.439552 0.223624 0.618119 0.115287
H85   H     H_    0.409839 0.245149 0.620449 0.165336
H86   H     H_    0.489098 0.225468 0.668214 0.152821
C190  C     C_3   0.412003 0.186525 0.618621 -0.743590
H87   H     H_    0.438364 0.163491 0.614482 0.277812
H88   H     H_    0.415672 0.183360 0.670847 0.201379
H89   H     H_    0.361020 0.184917 0.571087 0.252458
O74   O     O_3   0.462658 0.713624 0.581893 -0.564036
C191  C     C_3   0.428599 0.681234 0.575041 0.223642
H90   H     H_    0.461656 0.659342 0.613170 0.193152
H91   H     H_    0.399457 0.670256 0.518209 0.185497
C192  C     C_3   0.383649 0.690535 0.596754 -0.806554
H92   H     H_    0.349186 0.712162 0.559298 0.260154
H93   H     H_    0.356869 0.665470 0.592541 0.216926
H94   H     H_    0.411236 0.700866 0.654613 0.274333
O75   O     O_3   0.930752 0.749313 0.552480 -0.546856
C193  C     C_3   0.933476 0.754430 0.617958 0.118762
H95   H     H_    0.915477 0.782174 0.619100 0.169044
H96   H     H_    0.982410 0.750563 0.668443 0.169623
C194  C     C_3   0.889742 0.726521 0.618961 -0.691102
H97   H     H_    0.905272 0.697899 0.618925 0.271136
H98   H     H_    0.890799 0.730551 0.669417 0.213248
H99   H     H_    0.840041 0.730385 0.569422 0.254346
O76   O     O_3   0.953805 0.227394 0.582143 -0.562902
C195  C     C_3   0.909853 0.201022 0.575270 0.216312
H100  H     H_    0.935162 0.176988 0.612140 0.189474
H101  H     H_    0.876210 0.191153 0.518084 0.187337
C196  C     C_3   0.870807 0.218980 0.599143 -0.797428
H102  H     H_    0.844116 0.243076 0.563098 0.260934
H103  H     H_    0.836298 0.198747 0.594696 0.218236
H104  H     H_    0.902747 0.228473 0.657448 0.271620
C197  C     C_2   0.609149 0.199562 0.572334 0.290379
H105  H     H_    0.646041 0.202975 0.630949 0.187728
O77   O     O_2   0.625640 0.186079 0.535343 -0.600495
C198  C     C_2   0.530664 0.821979 0.582967 0.352821
H106  H     H_    0.577282 0.820566 0.635072 0.108822
O78   O     O_2   0.506887 0.852657 0.561912 -0.576134
C199  C     C_2   0.081139 0.684945 0.573190 0.299519
H107  H     H_    0.118240 0.685567 0.632218 0.190311
O79   O     O_2   0.090579 0.665003 0.535992 -0.596048
C200  C     C_2   0.056268 0.321292 0.583231 0.349828
H108  H     H_    0.101767 0.316402 0.635402 0.110073
O80   O     O_2   0.043290 0.353317 0.562177 -0.582955
C201  C     C_2   0.527739 0.176652 0.580393 0.533991
H109  H     H_    0.498470 0.153248 0.547932 0.099362
O81   O     O_2   0.555785 0.174536 0.647448 -0.603505
C202  C     C_2   0.446452 0.784589 0.565836 0.632379
H110  H     H_    0.396871 0.777179 0.526855 0.145379
O82   O     O_2   0.464946 0.789487 0.630048 -0.546372
C203  C     C_2   0.993316 0.683989 0.580440 0.529099
H111  H     H_    0.954201 0.664780 0.548087 0.098685
O83   O     O_2   0.019935 0.683750 0.647376 -0.602148
C204  C     C_2   0.961556 0.297787 0.565978 0.631686
H112  H     H_    0.910332 0.295787 0.526959 0.145095
O84   O     O_2   0.982057 0.304747 0.630207 -0.548129
O85   O     O_3   0.429258 0.189970 0.443497 -0.566882
C205  C     C_3   0.393646 0.165873 0.381677 0.151357
H113  H     H_    0.419748 0.139280 0.393762 0.119308
H114  H     H_    0.384227 0.178243 0.330328 0.158995
C206  C     C_3   0.329724 0.157146 0.367749 -0.744147
H115  H     H_    0.296575 0.180585 0.338526 0.251434
H116  H     H_    0.308648 0.132376 0.331770 0.209080
H117  H     H_    0.335587 0.151687 0.420749 0.267599
O86   O     O_3   0.387611 0.793761 0.417076 -0.567929
C207  C     C_3   0.368048 0.830110 0.420956 0.128882
H118  H     H_    0.371500 0.849596 0.384775 0.216693
H119  H     H_    0.395770 0.841098 0.477872 0.174053
C208  C     C_3   0.298494 0.829744 0.393820 -0.840407
H120  H     H_    0.291511 0.809910 0.426785 0.256243
H121  H     H_    0.284225 0.857720 0.400032 0.239661
H122  H     H_    0.267663 0.822073 0.334376 0.255152
O87   O     O_3   0.903395 0.703121 0.443170 -0.565019
C209  C     C_3   0.857273 0.681207 0.381647 0.155648
H123  H     H_    0.870254 0.651493 0.394320 0.116764
H124  H     H_    0.852861 0.688921 0.330304 0.155551
C210  C     C_3   0.792196 0.686138 0.367142 -0.765488
H125  H     H_    0.770970 0.712576 0.337845 0.250698
H126  H     H_    0.759980 0.663497 0.330989 0.202826
H127  H     H_    0.796267 0.685719 0.419908 0.273206
O88   O     O_3   0.905490 0.304280 0.417293 -0.566990
C211  C     C_3   0.898948 0.343207 0.421230 0.116992
H128  H     H_    0.908282 0.358432 0.384939 0.216212
H129  H     H_    0.930490 0.353956 0.478136 0.173876
C212  C     C_3   0.830971 0.352448 0.394328 -0.818997
H130  H     H_    0.818288 0.337480 0.427899 0.252536
H131  H     H_    0.826618 0.382604 0.399948 0.234572
H132  H     H_    0.797409 0.344890 0.335088 0.268237
C213  C     C_2   0.508495 0.184075 0.416420 0.353194
H133  H     H_    0.528658 0.156955 0.438780 0.118583
O89   O     O_2   0.499304 0.192636 0.357686 -0.520299
C214  C     C_2   0.478959 0.819579 0.427649 0.326600
H134  H     H_    0.521545 0.835192 0.465015 0.165738
O90   O     O_2   0.449137 0.827603 0.362063 -0.558398
C215  C     C_2   0.975385 0.675796 0.417022 0.350289
H135  H     H_    0.983013 0.648194 0.439926 0.116719
O91   O     O_2   0.968608 0.678987 0.357996 -0.533365
C216  C     C_2   0.003140 0.314644 0.427905 0.326907
H136  H     H_    0.050300 0.325724 0.465322 0.165031
O92   O     O_2   0.976003 0.321949 0.362327 -0.558329
C217  C     C_2   0.558819 0.318590 0.568386 0.397126
H137  H     H_    0.528657 0.339801 0.529465 0.106558
O93   O     O_2   0.590175 0.327360 0.633743 -0.526447
C218  C     C_2   0.639188 0.722479 0.585267 0.487559
H138  H     H_    0.648738 0.707081 0.632514 0.080802
O94   O     O_2   0.678005 0.719745 0.570187 -0.470520
C219  C     C_2   0.089917 0.808471 0.568185 0.388954
H139  H     H_    0.069695 0.831005 0.529289 0.106357
O95   O     O_2   0.126059 0.816999 0.633485 -0.542663
C220  C     C_2   0.128403 0.206664 0.585444 0.476300
H140  H     H_    0.133322 0.194146 0.632825 0.077190
O96   O     O_2   0.164995 0.196194 0.570350 -0.472993
O97   O     O_3   0.868112 0.469986 0.055618 -0.618751
C221  C     C_3   0.922264 0.473842 0.053737 0.193617
H141  H     H_    0.914050 0.491358 0.008128 0.139237
H142  H     H_    0.938139 0.446271 0.048442 0.133592
C222  C     C_3   0.977592 0.489520 0.127227 -0.711370
H143  H     H_    0.991276 0.469844 0.172637 0.273401
H144  H     H_    0.019339 0.493953 0.125183 0.176746
H145  H     H_    0.964200 0.516191 0.139450 0.295718
O98   O     O_3   0.859663 0.540407 0.025629 -0.615801
C223  C     C_3   0.871544 0.573205 0.999915 0.146120
H146  H     H_    0.828055 0.589573 0.960885 0.176402
H147  H     H_    0.895785 0.565848 0.973303 0.127752
C224  C     C_3   0.918170 0.598167 0.064648 -0.699175
H148  H     H_    0.959178 0.581878 0.109426 0.252960
H149  H     H_    0.936776 0.619566 0.045926 0.204497
H150  H     H_    0.894065 0.612539 0.086450 0.293861
O99   O     O_3   0.360445 0.971383 0.025944 -0.624032
C225  C     C_3   0.403687 0.974682 0.005682 0.209301
H151  H     H_    0.384864 0.990752 0.954442 0.144524
H152  H     H_    0.416897 0.946797 0.997894 0.132676
C226  C     C_3   0.465534 0.992148 0.069037 -0.745782
H153  H     H_    0.487335 0.974701 0.119376 0.275505
H154  H     H_    0.499594 0.994387 0.053620 0.173271
H155  H     H_    0.456746 0.020104 0.081871 0.298299
O100  O     O_3   0.342402 0.040928 0.986039 -0.608061
C227  C     C_3   0.341857 0.073904 0.950479 0.147944
H156  H     H_    0.295786 0.088976 0.920688 0.157819
H157  H     H_    0.353998 0.066990 0.911201 0.135043
C228  C     C_3   0.393886 0.100389 0.006155 -0.766691
H158  H     H_    0.440309 0.085729 0.040821 0.261228
H159  H     H_    0.398909 0.123157 0.976244 0.171609
H160  H     H_    0.381435 0.112952 0.041964 0.296506
C229  C     C_2   0.637641 0.278407 0.581926 0.506517
H161  H     H_    0.656803 0.289754 0.553181 0.080973
O101  O     O_2   0.675877 0.269260 0.646364 -0.565142
C230  C     C_2   0.623493 0.786113 0.571697 0.451075
H162  H     H_    0.654636 0.790973 0.631017 0.040426
O102  O     O_2   0.624577 0.809048 0.532215 -0.537246
C231  C     C_2   0.145436 0.753424 0.581673 0.512604
H163  H     H_    0.168340 0.756673 0.553343 0.075410
O103  O     O_2   0.178573 0.742581 0.645616 -0.562260
C232  C     C_2   0.134197 0.269899 0.571740 0.446811
H164  H     H_    0.166860 0.274412 0.631050 0.031808
O104  O     O_2   0.142548 0.288523 0.532237 -0.539933
C233  C     C_2   0.511727 0.312560 0.416354 0.421379
H165  H     H_    0.465393 0.318296 0.365953 0.147827
O105  O     O_2   0.553731 0.335440 0.436547 -0.549141
C234  C     C_2   0.543900 0.705044 0.427179 0.422452
H166  H     H_    0.514283 0.699968 0.367884 0.038056
O106  O     O_2   0.580771 0.680531 0.466266 -0.531603
C235  C     C_2   0.037864 0.796114 0.416092 0.398290
H167  H     H_    0.995345 0.806536 0.365758 0.145635
O107  O     O_2   0.088762 0.810130 0.436110 -0.568927
C236  C     C_2   0.027438 0.192476 0.427329 0.427033
H168  H     H_    0.995759 0.187521 0.368085 0.042015
O108  O     O_2   0.055999 0.165799 0.466383 -0.526887
C237  C     C_2   0.460631 0.292150 0.584849 0.147653
H169  H     H_    0.502071 0.301340 0.637481 0.163517
O109  O     O_2   0.409808 0.306910 0.563113 -0.587069
C238  C     C_2   0.537482 0.678902 0.572727 0.306399
H170  H     H_    0.543324 0.662207 0.536771 0.169610
O110  O     O_2   0.568117 0.669816 0.637824 -0.560390
C239  C     C_2   0.985475 0.809234 0.584294 0.150483
H171  H     H_    0.030344 0.814160 0.637043 0.162791
O111  O     O_2   0.944257 0.832903 0.562249 -0.584585
C240  C     C_2   0.014753 0.180412 0.572604 0.303920
H172  H     H_    0.014029 0.160206 0.536447 0.168925
O112  O     O_2   0.042718 0.171862 0.637734 -0.563182
C241  C     C_2   0.408282 0.307257 0.432320 0.211039
H173  H     H_    0.428888 0.329639 0.471520 0.116907
O113  O     O_2   0.369535 0.315522 0.367360 -0.528181
C242  C     C_2   0.435835 0.678726 0.417667 0.181948
H174  H     H_    0.428683 0.678164 0.364442 0.097143
O114  O     O_2   0.430718 0.649362 0.440915 -0.580586
C243  C     C_2   0.937635 0.817315 0.431260 0.213052
H175  H     H_    0.969014 0.838195 0.469974 0.116401
O115  O     O_2   0.902757 0.826416 0.366207 -0.534757
C244  C     C_2   0.913306 0.184530 0.417676 0.183600
H176  H     H_    0.905145 0.180762 0.364300 0.104781
O116  O     O_2   0.898947 0.158837 0.441055 -0.581754
C245  C     C_2   0.567315 0.256816 0.432469 0.540817
H177  H     H_    0.610101 0.241450 0.470676 0.103505
O117  O     O_2   0.551686 0.259048 0.368823 -0.497431
C246  C     C_2   0.557922 0.767012 0.413663 0.499327
H178  H     H_    0.523161 0.782830 0.365232 0.098842
O118  O     O_2   0.612112 0.765584 0.429509 -0.481997
C247  C     C_2   0.064761 0.732433 0.432071 0.532538
H179  H     H_    0.099510 0.712545 0.470278 0.110047
O119  O     O_2   0.048756 0.730639 0.368226 -0.525788
C248  C     C_2   0.061703 0.249062 0.413628 0.499891
H180  H     H_    0.032491 0.266161 0.365121 0.095675
O120  O     O_2   0.114103 0.239848 0.429449 -0.484388
C249  C     C_2   0.757012 0.960318 0.125421 0.266545
H181  H     H_    0.760038 0.975073 0.169978 0.054043
O121  O     O_2   0.772763 0.927825 0.136568 -0.495373
C250  C     C_2   0.791519 0.035978 0.136100 0.193946
H182  H     H_    0.826294 0.017409 0.178390 0.062136
O122  O     O_2   0.796867 0.068651 0.152806 -0.540127
C251  C     C_2   0.250679 0.455402 0.116500 0.348505
H183  H     H_    0.291007 0.464885 0.169387 0.145972
O123  O     O_2   0.232454 0.424106 0.115561 -0.529678
C252  C     C_2   0.281576 0.533054 0.135837 0.122520
H184  H     H_    0.321341 0.550450 0.152238 0.107335
O124  O     O_2   0.273484 0.525955 0.183852 -0.568308
C253  C     C_2   0.829042 0.035748 0.962835 0.558158
H185  H     H_    0.826977 0.065315 0.953200 0.093566
O125  O     O_2   0.843167 0.016175 0.929493 -0.525101
C254  C     C_2   0.859287 0.958057 0.009021 0.611972
H186  H     H_    0.904200 0.969775 0.024012 0.128007
O126  O     O_2   0.844382 0.927888 0.978873 -0.600842
C255  C     C_2   0.330081 0.535245 0.965816 0.559937
H187  H     H_    0.325078 0.564503 0.952771 0.102189
O127  O     O_2   0.350668 0.515871 0.938920 -0.521271
C256  C     C_2   0.360811 0.458037 0.015445 0.654635
H188  H     H_    0.407571 0.468948 0.035541 0.130504
O128  O     O_2   0.345337 0.428771 0.981981 -0.616331
C257  C     C_2   0.875699 0.042187 0.088988 0.231064
H189  H     H_    0.868943 0.067319 0.110244 0.146799
O129  O     O_2   0.930579 0.032376 0.115767 -0.554662
C258  C     C_2   0.865701 0.966810 0.117988 0.399601
H190  H     H_    0.888140 0.986794 0.162090 0.107866
O130  O     O_2   0.878146 0.934367 0.136652 -0.490155
C259  C     C_2   0.374509 0.542675 0.090187 0.233937
H191  H     H_    0.368704 0.570413 0.104054 0.081141
O131  O     O_2   0.428885 0.530537 0.123147 -0.542129
C260  C     C_2   0.360743 0.468415 0.120443 0.324355
H192  H     H_    0.373978 0.489074 0.162299 0.126968
O132  O     O_2   0.376729 0.436521 0.141826 -0.533176
C261  C     C_2   0.628749 0.032901 0.899680 0.567933
H193  H     H_    0.596512 0.013075 0.897972 0.151046
O133  O     O_2   0.611770 0.065277 0.889950 -0.535544
C262  C     C_2   0.638480 0.957460 0.873024 0.316258
H194  H     H_    0.631116 0.933013 0.895208 0.110120
O134  O     O_2   0.595571 0.966781 0.810075 -0.572888
C263  C     C_2   0.127834 0.533221 0.892890 0.461285
H195  H     H_    0.096202 0.513696 0.893088 0.135704
O135  O     O_2   0.108960 0.565181 0.877109 -0.549449
C264  C     C_2   0.137024 0.458962 0.865717 0.379808
H196  H     H_    0.101688 0.470309 0.811265 0.045985
O136  O     O_2   0.123306 0.430916 0.884222 -0.517123
C265  C     C_2   0.688736 0.040748 0.851084 0.552839
H197  H     H_    0.657570 0.028618 0.796407 0.138514
O137  O     O_2   0.712096 0.070818 0.855507 -0.575058
C266  C     C_2   0.728057 0.962805 0.871085 0.515997
H198  H     H_    0.733274 0.933125 0.868890 0.109012
O138  O     O_2   0.738761 0.981875 0.834119 -0.518401
C267  C     C_2   0.192984 0.540931 0.851221 0.546255
H199  H     H_    0.166013 0.527998 0.797001 0.091232
O139  O     O_2   0.212911 0.572123 0.855737 -0.550190
C268  C     C_2   0.230576 0.462730 0.872055 0.404539
H200  H     H_    0.233588 0.432964 0.867968 0.136543
O140  O     O_2   0.246914 0.481787 0.840439 -0.523913
O141  O     O_3   0.800981 0.462716 0.925716 -0.703982
C269  C     C_3   0.819532 0.425371 0.929392 0.116871
H201  H     H_    0.776103 0.408099 0.896569 0.213629
H202  H     H_    0.849418 0.413607 0.985995 0.168126
C270  C     C_3   0.854207 0.422056 0.892321 -0.828748
H203  H     H_    0.898507 0.438739 0.922075 0.222712
H204  H     H_    0.866694 0.392776 0.891681 0.258344
H205  H     H_    0.822868 0.432056 0.834314 0.266619
O142  O     O_3   0.767275 0.534227 0.901467 -0.718449
C271  C     C_3   0.796630 0.525815 0.864779 0.109859
H206  H     H_    0.771440 0.502208 0.826648 0.214671
H207  H     H_    0.847640 0.518478 0.902061 0.149319
C272  C     C_3   0.787569 0.557982 0.815061 -0.849085
H208  H     H_    0.813231 0.582973 0.847737 0.246765
H209  H     H_    0.806231 0.550201 0.782316 0.230773
H210  H     H_    0.736032 0.564688 0.776312 0.282739
O143  O     O_3   0.275400 0.961254 0.900679 -0.695390
C273  C     C_3   0.293324 0.923929 0.902236 0.109206
H211  H     H_    0.250737 0.906151 0.879256 0.212788
H212  H     H_    0.330974 0.913274 0.958061 0.162190
C274  C     C_3   0.314397 0.919434 0.850847 -0.823679
H213  H     H_    0.355823 0.937363 0.868433 0.223781
H214  H     H_    0.327956 0.890229 0.851230 0.257092
H215  H     H_    0.274625 0.927075 0.793485 0.269951
O144  O     O_3   0.236498 0.032108 0.878969 -0.721884
C275  C     C_3   0.250691 0.023203 0.827272 0.111188
H216  H     H_    0.222677 0.998590 0.794850 0.216700
H217  H     H_    0.301565 0.017098 0.852597 0.153066
C276  C     C_3   0.227646 0.054178 0.770523 -0.851373
H218  H     H_    0.253977 0.080184 0.796458 0.234777
H219  H     H_    0.234908 0.046035 0.727471 0.235532
H220  H     H_    0.175994 0.059309 0.743499 0.282683
O145  O     O_3   0.680148 0.041790 0.040156 -0.543573
C277  C     C_3   0.664408 0.037693 0.091683 0.219777
H221  H     H_    0.695002 0.055602 0.140735 0.181814
H222  H     H_    0.668533 0.008865 0.110397 0.111478
C278  C     C_3   0.595713 0.050065 0.055011 -0.792682
H223  H     H_    0.563174 0.032810 0.005511 0.254199
H224  H     H_    0.582466 0.047268 0.094501 0.197058
H225  H     H_    0.590141 0.079442 0.037707 0.278732
O146  O     O_3   0.656964 0.973865 0.005453 -0.637611
C279  C     C_3   0.633526 0.942266 0.020682 0.135531
H226  H     H_    0.644211 0.943883 0.076958 0.166127
H227  H     H_    0.653539 0.916350 0.015069 0.172346
C280  C     C_3   0.561168 0.940976 0.966602 -0.868691
H228  H     H_    0.546610 0.939470 0.908742 0.267234
H229  H     H_    0.542557 0.916270 0.978019 0.222525
H230  H     H_    0.539746 0.966076 0.972910 0.248373
O147  O     O_3   0.170500 0.539129 0.030762 -0.595692
C281  C     C_3   0.170845 0.571337 0.068167 0.193156
H231  H     H_    0.211848 0.589893 0.086858 0.147087
H232  H     H_    0.171642 0.562853 0.116911 0.188507
C282  C     C_3   0.110096 0.593621 0.017471 -0.791397
H233  H     H_    0.067469 0.575796 0.994071 0.239375
H234  H     H_    0.107250 0.616255 0.049359 0.230777
H235  H     H_    0.110286 0.606151 0.971911 0.293844
O148  O     O_3   0.152770 0.470622 0.998310 -0.559648
C283  C     C_3   0.121702 0.470994 0.034820 0.283634
H236  H     H_    0.145041 0.489468 0.083990 0.156277
H237  H     H_    0.120858 0.442553 0.052974 0.185896
C284  C     C_3   0.052498 0.482917 0.980734 -0.881229
H238  H     H_    0.028037 0.464292 0.931891 0.273389
H239  H     H_    0.027430 0.481585 0.008111 0.189749
H240  H     H_    0.049872 0.511640 0.961899 0.270824
C285  C     C_2   0.715436 0.463546 0.083800 0.383766
H241  H     H_    0.670785 0.478125 0.055060 0.162878
O149  O     O_2   0.720783 0.437288 0.121817 -0.567088
C286  C     C_2   0.739966 0.538533 0.112445 0.281725
H242  H     H_    0.731157 0.522762 0.147291 0.098332
O150  O     O_2   0.728349 0.571609 0.107361 -0.569087
C287  C     C_2   0.243414 0.964834 0.107255 0.391856
H243  H     H_    0.200694 0.979963 0.089304 0.154522
O151  O     O_2   0.256239 0.938654 0.148653 -0.557532
C288  C     C_2   0.273566 0.039538 0.132181 0.262427
H244  H     H_    0.274216 0.023883 0.174318 0.102349
O152  O     O_2   0.265586 0.072871 0.131869 -0.566849
C289  C     C_2   0.828470 0.453534 0.139234 0.546917
H245  H     H_    0.823163 0.424057 0.143369 0.118858
O153  O     O_2   0.881923 0.465854 0.182495 -0.580647
C290  C     C_2   0.842733 0.534756 0.145288 0.658106
H246  H     H_    0.864037 0.524851 0.201162 0.085140
O154  O     O_2   0.868183 0.561374 0.139243 -0.552750
C291  C     C_2   0.348252 0.953559 0.133392 0.553728
H247  H     H_    0.344334 0.924089 0.139228 0.121344
O155  O     O_2   0.402331 0.965625 0.166533 -0.584146
C292  C     C_2   0.362878 0.034701 0.131774 0.668819
H248  H     H_    0.394394 0.025726 0.188856 0.088099
O156  O     O_2   0.381986 0.060206 0.113902 -0.552439
C293  C     C_2   0.624123 0.458870 0.916502 0.599390
H249  H     H_    0.577031 0.469108 0.873010 0.139238
O157  O     O_2   0.627205 0.430662 0.948608 -0.557557
C294  C     C_2   0.635637 0.536856 0.960877 0.442913
H250  H     H_    0.636772 0.566044 0.973011 0.125881
O158  O     O_2   0.595651 0.518209 0.959812 -0.592134
C295  C     C_2   0.128798 0.958545 0.947545 0.584944
H251  H     H_    0.079751 0.968221 0.912513 0.139313
O159  O     O_2   0.139687 0.930870 0.984597 -0.569547
C296  C     C_2   0.150011 0.036277 0.995819 0.414674
H252  H     H_    0.157853 0.064742 0.014469 0.129172
O160  O     O_2   0.112731 0.018585 0.001590 -0.584974
C297  C     C_2   0.462577 0.769891 0.854337 0.424104
H253  H     H_    0.412294 0.773592 0.810859 0.102331
O161  O     O_2   0.501849 0.773988 0.840545 -0.551312
C298  C     C_2   0.514188 0.178257 0.957433 0.389568
H254  H     H_    0.480164 0.156921 0.946438 0.058698
O162  O     O_2   0.557395 0.171227 0.951237 -0.548500
C299  C     C_2   0.968023 0.279538 0.862458 0.399713
H255  H     H_    0.919022 0.287423 0.820566 0.096806
O163  O     O_2   0.008498 0.283649 0.850563 -0.549270
C300  C     C_2   0.963274 0.730279 0.854525 0.384686
H256  H     H_    0.913183 0.726010 0.811038 0.086622
O164  O     O_2   0.002810 0.726487 0.841013 -0.572488
C301  C     C_2   0.950666 0.324023 0.974487 0.393425
H257  H     H_    0.976284 0.346115 0.969256 0.080397
O165  O     O_2   0.901648 0.330970 0.969138 -0.587094
C302  C     C_2   0.939671 0.678564 0.953087 0.374611
H258  H     H_    0.963716 0.656218 0.945632 0.076596
O166  O     O_2   0.887344 0.673282 0.940499 -0.597029
C303  C     C_2   0.439656 0.821897 0.954416 0.400683
H259  H     H_    0.461987 0.843630 0.943192 0.070867
O167  O     O_2   0.389646 0.828098 0.947270 -0.590220
C304  C     C_2   0.515031 0.195066 0.101442 0.505435
H260  H     H_    0.513477 0.166019 0.088367 0.039676
O168  O     O_2   0.521857 0.204009 0.158790 -0.513778
C305  C     C_2   0.577281 0.808349 0.100213 0.395401
H261  H     H_    0.559727 0.821781 0.129050 0.087606
O169  O     O_2   0.626964 0.818886 0.110804 -0.523739
C306  C     C_2   0.608026 0.265576 0.146510 0.416009
H262  H     H_    0.601067 0.269134 0.190066 0.119781
O170  O     O_2   0.661452 0.268361 0.160982 -0.591134
C307  C     C_2   0.085365 0.299758 0.116857 0.421664
H263  H     H_    0.067310 0.313249 0.145105 0.088741
O171  O     O_2   0.139564 0.306156 0.136342 -0.506431
C308  C     C_2   0.077751 0.691946 0.100644 0.374379
H264  H     H_    0.057528 0.676397 0.124300 0.084944
O172  O     O_2   0.131022 0.684228 0.118187 -0.551988

loop_
_geom_bond_atom_site_label_1
_geom_bond_atom_site_label_2
_geom_bond_distance
_ccdc_geom_bond_type
C179  H61   1.113530 S    
C37   C42   1.618781 S    
C280  H228  1.108984 S    
C133  C253  1.541961 S    
C203  O83   1.221891 D    
C171  C172  1.520591 S    
C33   C45   1.203347 T    
O86   C207  1.426604 S    
C74   C78   1.544963 S    
C116  C220  1.531782 S    
O23   C19   1.273607 A    
O147  C281  1.425536 S    
C111  C235  1.538203 S    
C297  H253  1.084386 S    
C246  H178  1.080588 S    
C111  C247  1.539631 S    
C143  C152  1.480523 S    
C62   C306  1.500913 S    
C169  H35   1.110460 S    
C188  H82   1.104870 S    
C198  O78   1.221177 D    
O141  C269  1.418209 S    
Zn5   O21   1.914231 S    
C270  H204  1.108436 S    
C87   C203  1.539935 S    
C266  O138  1.217892 D    
C196  H103  1.110595 S    
C174  H49   1.110663 S    
C179  C180  1.521928 S    
C161  H16   1.113964 S    
C307  H263  1.084577 S    
C89   O85   1.446632 S    
C250  H182  1.076283 S    
O46   C2    1.258496 A    
C199  O79   1.218456 D    
C167  H30   1.109468 S    
C39   C44   1.616535 S    
C268  H200  1.086981 S    
C55   C299  1.500006 S    
C72   O64   1.412288 S    
C36   C48   1.204615 T    
Zn11  O31   1.916002 S    
C176  H54   1.110746 S    
O34   C22   1.275691 A    
C87   C99   1.620929 S    
C254  H186  1.086375 S    
C213  O89   1.219820 D    
C26   C153  1.537534 S    
C159  H11   1.109563 S    
C157  H6    1.113488 S    
C282  H233  1.109378 S    
Zn3   O3    1.937724 S    
Zn16  O28   1.914114 S    
C279  H227  1.108744 S    
O28   C24   1.277701 A    
C73   C77   1.545706 S    
C29   C37   1.627259 S    
C161  C162  1.521521 S    
Zn10  O50   1.941176 S    
C28   C40   1.623673 S    
C131  C132  1.629302 S    
C265  O137  1.220144 D    
C257  H189  1.081804 S    
C160  H12   1.110646 S    
Zn4   O40   1.912362 S    
C204  O84   1.223569 D    
C267  O139  1.220449 D    
C103  O71   1.444883 S    
C304  O168  1.220078 D    
C136  C144  1.632470 S    
O11   C7    1.265861 A    
Zn13  O25   1.916130 S    
C302  H258  1.084591 S    
C246  O118  1.223758 D    
C108  C120  1.484680 S    
C281  H232  1.110807 S    
C66   C78   1.540979 S    
C159  C160  1.521505 S    
C28   C296  1.544173 S    
C181  H65   1.108772 S    
C71   O63   1.412447 S    
C279  C280  1.522988 S    
C276  H220  1.110887 S    
C233  O105  1.223027 D    
C260  H192  1.080940 S    
C38   C45   1.485046 S    
C177  H55   1.109892 S    
C210  H125  1.106125 S    
C82   O74   1.438382 S    
C32   O100  1.440499 S    
C244  O116  1.221265 D    
C157  C158  1.521064 S    
C301  H257  1.084501 S    
C178  H59   1.110697 S    
C195  H101  1.101786 S    
C147  C148  1.631450 S    
C66   O58   1.413317 S    
C252  H184  1.070265 S    
C34   C46   1.204737 T    
O148  C283  1.425846 S    
O16   C12   1.274369 A    
C281  C282  1.522184 S    
C227  H156  1.108287 S    
C191  H91   1.101621 S    
C155  H3    1.084426 S    
Zn16  O4    1.938139 S    
C49   C301  1.500855 S    
Zn12  O4    1.932883 S    
C262  O134  1.223094 D    
C175  H50   1.110506 S    
Zn13  O5    1.940936 S    
C303  O167  1.219773 D    
C50   C56   1.546578 S    
C156  O56   1.223441 D    
C65   C71   1.539409 S    
O142  C271  1.422717 S    
C110  C114  1.633284 S    
C101  C241  1.541193 S    
C68   C70   1.537756 S    
Zn6   O14   1.914051 S    
C202  O82   1.223603 D    
C1    C58   1.461969 S    
C52   C80   1.543371 S    
C188  H84   1.110647 S    
C223  H147  1.107549 S    
C166  H28   1.110567 S    
C92   C216  1.542534 S    
C272  H208  1.107382 S    
C136  C256  1.539517 S    
C3    C60   1.462348 S    
C278  H225  1.110923 S    
C195  C196  1.520796 S    
C65   C77   1.541036 S    
C225  H151  1.106973 S    
C288  O152  1.222187 D    
Zn5   O13   1.914523 S    
C55   C59   1.547920 S    
C162  H18   1.109886 S    
C277  H221  1.109943 S    
C102  C106  1.626639 S    
C182  H69   1.110758 S    
C67   C69   1.540771 S    
C109  C233  1.537963 S    
C43   C288  1.546204 S    
C281  H231  1.109346 S    
C72   C74   1.537068 S    
C96   C120  1.202430 T    
C100  C124  1.487739 S    
C86   C90   1.625381 S    
C172  H44   1.110789 S    
C223  C224  1.524451 S    
C99   C123  1.484242 S    
C197  H105  1.084950 S    
C30   C38   1.621763 S    
C40   C43   1.639499 S    
C30   O98   1.440020 S    
C50   C302  1.500934 S    
C242  H174  1.082560 S    
O24   C20   1.273633 A    
O42   C14   1.277174 A    
C273  H211  1.108641 S    
O63   C169  1.410560 S    
C170  H38   1.110612 S    
C201  H109  1.084727 S    
C41   C286  1.545755 S    
C221  H141  1.104715 S    
C82   C102  1.620856 S    
C283  H237  1.110091 S    
Zn10  O2    1.932883 S    
C83   C99   1.625617 S    
C284  H238  1.110711 S    
C99   C115  1.630421 S    
Zn11  O19   1.914329 S    
C206  H116  1.110614 S    
C276  H219  1.110519 S    
C15   C127  1.425774 S    
C212  H130  1.110300 S    
Zn9   O49   1.943054 S    
C275  H216  1.109690 S    
C13   C125  1.425245 S    
Zn4   O4    1.933742 S    
O65   C173  1.411804 S    
C57   C61   1.557442 S    
C186  H79   1.110746 S    
C8    C80   1.460910 S    
C234  O106  1.217924 D    
O68   C179  1.411385 S    
C160  H14   1.110341 S    
C5    C77   1.459338 S    
C215  O91   1.219859 D    
Zn7   O23   1.914231 S    
O64   C171  1.411053 S    
C292  O156  1.215089 D    
Zn8   O24   1.915981 S    
C261  H193  1.080845 S    
C278  H223  1.110121 S    
C177  H56   1.114993 S    
C112  C116  1.634006 S    
C290  O154  1.215426 D    
C283  C284  1.522468 S    
C113  C217  1.539962 S    
C132  C251  1.559589 S    
C54   C58   1.549323 S    
C186  H77   1.109708 S    
C115  C219  1.539873 S    
C232  O104  1.217926 D    
C263  H195  1.079838 S    
C98   C114  1.625424 S    
C27   C156  1.541591 S    
C191  H90   1.109659 S    
C44   C291  1.564925 S    
C208  H120  1.110286 S    
Zn12  O52   1.941176 S    
C137  C149  1.202289 T    
O59   C161  1.411846 S    
C224  H148  1.109842 S    
C256  O128  1.219910 D    
O22   C18   1.273294 A    
C81   C101  1.619488 S    
C40   C47   1.484728 S    
C298  O162  1.219733 D    
C287  O151  1.223842 D    
C43   C292  1.532568 S    
C162  H17   1.110343 S    
C84   C104  1.620561 S    
C29   O97   1.436675 S    
Zn13  O41   1.912081 S    
C189  H85   1.110439 S    
C88   C100  1.628708 S    
C41   C290  1.531556 S    
C199  H107  1.085405 S    
C82   C98   1.616909 S    
C83   C103  1.619656 S    
Zn11  O51   1.943054 S    
O58   C159  1.412015 S    
Zn16  O44   1.912285 S    
C49   C55   1.546275 S    
C180  H63   1.109556 S    
C245  H177  1.075395 S    
Zn1   O37   1.912566 S    
C76   O68   1.412458 S    
Zn2   O34   1.916239 S    
C61   C67   1.544229 S    
Zn3   O39   1.912566 S    
C219  H139  1.076640 S    
C307  O171  1.218432 D    
C194  H99   1.111009 S    
C93   C117  1.201569 T    
Zn6   O22   1.915981 S    
C90   O86   1.444116 S    
C135  C255  1.541955 S    
O57   C157  1.411744 S    
C51   C303  1.501683 S    
C52   C304  1.500127 S    
C9    C96   1.426947 S    
C73   O65   1.412689 S    
C143  C148  1.637385 S    
C10   C95   1.424849 S    
O145  C277  1.420697 S    
C228  H158  1.110208 S    
C293  O157  1.220540 D    
C135  C143  1.623884 S    
C180  H62   1.110705 S    
C132  C144  1.625812 S    
C18   C137  1.425252 S    
C133  C141  1.620725 S    
C139  C151  1.202366 T    
C90   C106  1.620231 S    
C237  H169  1.081508 S    
C44   C287  1.543895 S    
C59   C63   1.555872 S    
C248  O120  1.223748 D    
C284  H239  1.110820 S    
C190  H88   1.110203 S    
C27   C295  1.539208 S    
C32   C40   1.624171 S    
C216  H136  1.075591 S    
C31   O143  1.436862 S    
C4    C59   1.462315 S    
C87   C91   1.628646 S    
C88   C92   1.625159 S    
C81   C97   1.625788 S    
C190  H89   1.110924 S    
C220  H140  1.081152 S    
C218  H138  1.081183 S    
C110  C246  1.531863 S    
C112  C236  1.543701 S    
C168  H34   1.110837 S    
O5    C1    1.263149 A    
O26   C22   1.277924 A    
C146  C261  1.544326 S    
O31   C19   1.274147 A    
C212  H132  1.110157 S    
C53   C57   1.546591 S    
C172  H42   1.110950 S    
C205  C206  1.518753 S    
C185  H76   1.103519 S    
C259  H191  1.083885 S    
C144  C147  1.622493 S    
C135  C259  1.534141 S    
C306  O170  1.219696 D    
O98   C223  1.424694 S    
Zn5   O45   1.941145 S    
Zn2   O10   1.940779 S    
C269  C270  1.523827 S    
C238  H170  1.075383 S    
Zn7   O47   1.941145 S    
C68   C80   1.542146 S    
C102  O70   1.443170 S    
C165  H26   1.109146 S    
Zn8   O48   1.943026 S    
C89   C213  1.550317 S    
C64   C66   1.543418 S    
C155  O55   1.223075 D    
C294  O158  1.218873 D    
C56   C300  1.500300 S    
C282  H235  1.108730 S    
C67   C79   1.542979 S    
C236  O108  1.217934 D    
C226  H155  1.107513 S    
O51   C7    1.261904 A    
C271  H207  1.103514 S    
C231  H163  1.085728 S    
O8    C4    1.271132 A    
C185  C186  1.520568 S    
C194  H98   1.110606 S    
C200  H108  1.082381 S    
C274  H215  1.110783 S    
C208  H122  1.110180 S    
Zn9   O1    1.929421 S    
C196  H104  1.111018 S    
O146  C279  1.422008 S    
C83   C239  1.552416 S    
C308  H264  1.084647 S    
C85   C97   1.621185 S    
C115  C231  1.542333 S    
C214  H134  1.075601 S    
C165  C166  1.521117 S    
C142  C145  1.622754 S    
C164  H24   1.110449 S    
C235  H167  1.081665 S    
C206  H117  1.110941 S    
C183  C184  1.518620 S    
C296  O160  1.219440 D    
O40   C12   1.274424 A    
C133  C134  1.631225 S    
Zn13  O1    1.934156 S    
C105  C109  1.617669 S    
Zn14  O6    1.939100 S    
C271  C272  1.525224 S    
C228  H159  1.110975 S    
C163  H20   1.114083 S    
C60   C72   1.551235 S    
Zn15  O27   1.916130 S    
C173  H46   1.110081 S    
C147  C268  1.540466 S    
C70   C76   1.538233 S    
C270  H203  1.108972 S    
C71   C73   1.537758 S    
C16   C128  1.426942 S    
C109  C113  1.626043 S    
C241  H173  1.076567 S    
C88   C204  1.539118 S    
C51   C61   1.546550 S    
C250  O122  1.222399 D    
C167  H31   1.111186 S    
C239  O111  1.221222 D    
C129  C130  1.621756 S    
C130  C142  1.631321 S    
C123  C127  1.202853 T    
C19   C140  1.425503 S    
C50   C64   1.546527 S    
C107  C119  1.480428 S    
C121  C125  1.202580 T    
C251  H183  1.077828 S    
O13   C9    1.277048 A    
C169  C170  1.520825 S    
C218  O94   1.223702 D    
C213  H133  1.085635 S    
C158  H9    1.110982 S    
C89   C105  1.626915 S    
C303  H259  1.084588 S    
C295  O159  1.220481 D    
C269  H201  1.108665 S    
O18   C14   1.277036 A    
C211  H128  1.109144 S    
C166  H27   1.110838 S    
C84   O76   1.438674 S    
O6    C2    1.271340 A    
C116  C232  1.544028 S    
C104  C108  1.626693 S    
C230  H162  1.087304 S    
C38   C41   1.636771 S    
C205  H113  1.112055 S    
C297  O161  1.219763 D    
C87   C199  1.544648 S    
Zn9   O29   1.916002 S    
C265  H197  1.086267 S    
C167  C168  1.520006 S    
O25   C21   1.277432 A    
C243  H175  1.076442 S    
Zn12  O32   1.914251 S    
C132  O148  1.437864 S    
C302  O166  1.219886 D    
C209  H123  1.112071 S    
O72   C187  1.423705 S    
C145  C146  1.630094 S    
Zn15  O3    1.934156 S    
Zn11  O3    1.929421 S    
C240  H172  1.075365 S    
C206  H115  1.106352 S    
C142  C149  1.483319 S    
C181  H66   1.104457 S    
C55   C73   1.541842 S    
C182  H67   1.109510 S    
C124  C128  1.202164 T    
C110  C234  1.544040 S    
C145  C262  1.533259 S    
O43   C15   1.274287 A    
O74   C191  1.418932 S    
C224  H150  1.108263 S    
C192  H93   1.110513 S    
C233  H165  1.081662 S    
C260  O132  1.224302 D    
C184  H74   1.110588 S    
Zn5   O1    1.933293 S    
C207  H118  1.109106 S    
C58   C62   1.549506 S    
C101  O69   1.444691 S    
C296  H252  1.084326 S    
C49   C77   1.539242 S    
C171  H40   1.109704 S    
O69   C181  1.428267 S    
C178  H58   1.110620 S    
Zn14  O2    1.938139 S    
C266  H198  1.086363 S    
C252  O124  1.222371 D    
O35   C23   1.276575 A    
C305  O169  1.218462 D    
C81   O73   1.441385 S    
C43   C44   1.637512 S    
C286  O150  1.222111 D    
C253  O125  1.217965 D    
C181  C182  1.520148 S    
C274  H213  1.108547 S    
C227  H157  1.107708 S    
O32   C20   1.274086 A    
C305  H261  1.084612 S    
C106  C110  1.628254 S    
C114  C218  1.531709 S    
C56   C60   1.547735 S    
C61   C305  1.503280 S    
C177  C178  1.520831 S    
C210  H126  1.110621 S    
C179  H60   1.110553 S    
C215  H135  1.085645 S    
C83   O75   1.441684 S    
C226  H153  1.110538 S    
Zn9   O17   1.914329 S    
C269  H202  1.108793 S    
C245  O117  1.224484 D    
C183  H70   1.110746 S    
C225  H152  1.108046 S    
C264  H196  1.086864 S    
C84   C100  1.616920 S    
C29   C30   1.626507 S    
C277  H222  1.104893 S    
C182  H68   1.110888 S    
C131  C252  1.546520 S    
O70   C183  1.423730 S    
Zn14  O42   1.912285 S    
C227  C228  1.524747 S    
C70   O62   1.412150 S    
C295  H251  1.086590 S    
C175  C176  1.520545 S    
C111  C115  1.626102 S    
O7    C3    1.271559 A    
C198  H106  1.082380 S    
C86   C198  1.543379 S    
Zn2   O38   1.912362 S    
C270  H205  1.110774 S    
O33   C21   1.276858 A    
C299  H255  1.084432 S    
C255  O127  1.218541 D    
O19   C15   1.274706 A    
C258  H190  1.076405 S    
C154  H2    1.079180 S    
C57   C69   1.551398 S    
C161  H15   1.109426 S    
C249  H181  1.083366 S    
C173  C174  1.520520 S    
C242  O114  1.221200 D    
O37   C9    1.276906 A    
C287  H243  1.074532 S    
C170  H37   1.110808 S    
C162  H19   1.111026 S    
C277  C278  1.521113 S    
O39   C11   1.276899 A    
C130  C249  1.555750 S    
C221  H142  1.107956 S    
C105  C117  1.480817 S    
C159  H10   1.113830 S    
C65   O57   1.413052 S    
C279  H226  1.111483 S    
C174  H48   1.110606 S    
C27   C39   1.627076 S    
C2    C57   1.462177 S    
C259  O131  1.223027 D    
C238  O110  1.222407 D    
C97   C121  1.483547 S    
C160  H13   1.110198 S    
C204  H112  1.081628 S    
C31   O99   1.437109 S    
C82   C238  1.539764 S    
C192  H94   1.110994 S    
C273  C274  1.523728 S    
O52   C8    1.267588 A    
C304  H260  1.084455 S    
C20   C139  1.425543 S    
C193  H96   1.106994 S    
O12   C8    1.261053 A    
C286  H242  1.083957 S    
C221  C222  1.523128 S    
O76   C195  1.419326 S    
O144  C275  1.423020 S    
C114  C230  1.544017 S    
C222  H144  1.110593 S    
Zn3   O35   1.914221 S    
C146  C265  1.536769 S    
Zn15  O43   1.912081 S    
C6    C78   1.458874 S    
C205  H114  1.110827 S    
C174  H47   1.110829 S    
C275  C276  1.525227 S    
C257  O129  1.223235 D    
C190  H87   1.108685 S    
C263  O135  1.223428 D    
C173  H45   1.113935 S    
C144  C151  1.486245 S    
C253  H185  1.086351 S    
C170  H39   1.110974 S    
C31   C39   1.629227 S    
C104  O72   1.443220 S    
C217  O93   1.223507 D    
C141  C146  1.631314 S    
C153  O53   1.223117 D    
C7    C79   1.458624 S    
Zn6   O46   1.943026 S    
C193  C194  1.521942 S    
C278  H224  1.110522 S    
C195  H100  1.109582 S    
C156  H4    1.078759 S    
C63   C307  1.503054 S    
C41   C42   1.637357 S    
C237  O109  1.221208 D    
C109  C245  1.539601 S    
C235  O107  1.223073 D    
C64   C308  1.503154 S    
O67   C177  1.414625 S    
C164  H22   1.110834 S    
C189  H86   1.106381 S    
C91   C215  1.550340 S    
Zn3   O11   1.938943 S    
C262  H194  1.081049 S    
C207  H119  1.102992 S    
C54   C298  1.500047 S    
C232  H164  1.087380 S    
C25   C154  1.541450 S    
Zn4   O36   1.916239 S    
C85   C89   1.628783 S    
C289  H245  1.086296 S    
C14   C126  1.427499 S    
C191  C192  1.520911 S    
C26   C38   1.624051 S    
C291  H247  1.086237 S    
C112  C248  1.531774 S    
C202  H110  1.081738 S    
C85   C201  1.539367 S    
C223  H146  1.108140 S    
C67   O59   1.413429 S    
C166  H29   1.110726 S    
C203  H111  1.084760 S    
C274  H214  1.110166 S    
C86   C98   1.628985 S    
C131  O147  1.446418 S    
C35   C47   1.203587 T    
C288  H244  1.083668 S    
C192  H92   1.110762 S    
C225  C226  1.523094 S    
C90   C214  1.542496 S    
C103  C243  1.541544 S    
O38   C10   1.273779 A    
C189  C190  1.522124 S    
O50   C6    1.260679 A    
C140  C152  1.202104 T    
C30   O142  1.446097 S    
C135  C136  1.625486 S    
C231  O103  1.220826 D    
C25   C26   1.628898 S    
C21   C34   1.428431 S    
Zn2   O2    1.933742 S    
C293  H249  1.086567 S    
C53   C75   1.539702 S    
C273  H212  1.109147 S    
C27   C28   1.629160 S    
C272  H210  1.110859 S    
C54   C76   1.541645 S    
C23   C36   1.427747 S    
C76   C80   1.541459 S    
C147  C264  1.540132 S    
C258  O130  1.223807 D    
O85   C205  1.423067 S    
C185  H75   1.108931 S    
C148  C263  1.542429 S    
C247  O119  1.224435 D    
C134  C258  1.539719 S    
C176  H52   1.110820 S    
C138  C150  1.201481 T    
C264  O136  1.221222 D    
C75   C79   1.543801 S    
C197  O77   1.218674 D    
C229  H161  1.085570 S    
Zn8   O4    1.929833 S    
C216  O92   1.222529 D    
O66   C175  1.411789 S    
C52   C62   1.545811 S    
C141  C150  1.485007 S    
C183  H71   1.109293 S    
O21   C17   1.273934 A    
C243  O115  1.222572 D    
C91   O87   1.446993 S    
C194  H97   1.108862 S    
O60   C163  1.411417 S    
C222  H145  1.107896 S    
C201  O81   1.221972 D    
C66   C72   1.538665 S    
C220  O96   1.223700 D    
C283  H236  1.112452 S    
C200  O80   1.221122 D    
C158  H8    1.110080 S    
O49   C5    1.261894 A    
C131  C143  1.633482 S    
C289  O153  1.218305 D    
O100  C227  1.425935 S    
C148  C267  1.538478 S    
C247  H179  1.075230 S    
Zn7   O3    1.933293 S    
C95   C119  1.201259 T    
C24   C35   1.427390 S    
C301  O165  1.219490 D    
C184  H73   1.110575 S    
C69   O61   1.412097 S    
C285  H241  1.073700 S    
C102  C242  1.556908 S    
C84   C240  1.539929 S    
C234  H166  1.087315 S    
C100  C116  1.625521 S    
Zn1   O33   1.914221 S    
Zn10  O30   1.914251 S    
C85   C197  1.544599 S    
C239  H171  1.081605 S    
C292  H248  1.084394 S    
Zn12  O20   1.914802 S    
C130  O146  1.441345 S    
C25   C293  1.538762 S    
O61   C165  1.411393 S    
O9    C5    1.266159 A    
C172  H43   1.110601 S    
C25   C37   1.626583 S    
Zn15  O7    1.940936 S    
C69   C75   1.536044 S    
C186  H78   1.110674 S    
C91   C107  1.627006 S    
Zn1   O9    1.938943 S    
C92   C108  1.620005 S    
C56   C74   1.540591 S    
C300  H256  1.084440 S    
C145  C266  1.542065 S    
C59   C71   1.552025 S    
C134  C142  1.629756 S    
C49   C63   1.545491 S    
C60   C64   1.557450 S    
Zn4   O12   1.940779 S    
C52   C54   1.545364 S    
C17   C138  1.425174 S    
C248  H180  1.080610 S    
C268  O140  1.217693 D    
C208  H121  1.110578 S    
C308  O172  1.218361 D    
C39   C48   1.486721 S    
Zn6   O2    1.929833 S    
C134  C254  1.538101 S    
C251  O123  1.222063 D    
C74   O66   1.412327 S    
Zn7   O15   1.914523 S    
C256  H188  1.086594 S    
C249  O121  1.220520 D    
Zn8   O16   1.914051 S    
C28   C155  1.536690 S    
C136  C260  1.536903 S    
C37   C46   1.486902 S    
C50   C78   1.538905 S    
C298  H254  1.084519 S    
C222  H143  1.110621 S    
C214  O90   1.222530 D    
C32   O144  1.444854 S    
C229  O101  1.220888 D    
C164  H23   1.110539 S    
C107  C111  1.617713 S    
C42   C285  1.544085 S    
C285  O149  1.223818 D    
O97   C221  1.421959 S    
C103  C107  1.620597 S    
O27   C23   1.277388 A    
C98   C122  1.488259 S    
C53   C297  1.500000 S    
C188  H83   1.110705 S    
C180  H64   1.110825 S    
O29   C17   1.273596 A    
C22   C33   1.427101 S    
C217  H137  1.076707 S    
C299  O163  1.219821 D    
C153  H1    1.084269 S    
C282  H234  1.109776 S    
C88   C200  1.543655 S    
C31   C32   1.627143 S    
C108  C112  1.628759 S    
C267  H199  1.086031 S    
C86   C202  1.539061 S    
O62   C167  1.410865 S    
C94   C118  1.202004 T    
Zn10  O18   1.914802 S    
C104  C244  1.556628 S    
C294  H250  1.085670 S    
C300  O164  1.219785 D    
C75   O67   1.412090 S    
O75   C193  1.421728 S    
C51   C53   1.545013 S    
C275  H217  1.105692 S    
C169  H36   1.110550 S    
C254  O126  1.220148 D    
C187  H80   1.110672 S    
C187  H81   1.109080 S    
C168  H33   1.110487 S    
O41   C13   1.274504 A    
C228  H160  1.107885 S    
C163  C164  1.521730 S    
C261  O133  1.223997 D    
C211  H129  1.102846 S    
C163  H21   1.110027 S    
C68   O60   1.412674 S    
C175  H51   1.114009 S    
C129  O145  1.438841 S    
C230  O102  1.217918 D    
O143  C273  1.419585 S    
O99   C225  1.422416 S    
C284  H240  1.107653 S    
O45   C1    1.266103 A    
C133  C257  1.534014 S    
C58   C70   1.555010 S    
C101  C105  1.620912 S    
C219  O95   1.223590 D    
C62   C68   1.544134 S    
O20   C16   1.276654 A    
O47   C3    1.258031 A    
C63   C65   1.542250 S    
C154  O54   1.223732 D    
C209  H124  1.110893 S    
O15   C11   1.276680 A    
C244  H176  1.082546 S    
C272  H209  1.110554 S    
C280  H230  1.110052 S    
C187  C188  1.518761 S    
C212  H131  1.110631 S    
O73   C189  1.421715 S    
C42   C289  1.564948 S    
C240  O112  1.222442 D    
Zn14  O26   1.914114 S    
C97   C113  1.630242 S    
C290  H246  1.084530 S    
C211  C212  1.519810 S    
C226  H154  1.110153 S    
O71   C185  1.427440 S    
C51   C79   1.538741 S    
C255  H187  1.085328 S    
C224  H149  1.109475 S    
C276  H218  1.107266 S    
C106  C118  1.483984 S    
O44   C16   1.277268 A    
O88   C211  1.426519 S    
C196  H102  1.110774 S    
C176  H53   1.110504 S    
O17   C13   1.274214 A    
C92   O88   1.443973 S    
C193  H95   1.110280 S    
C306  H262  1.084405 S    
O10   C6    1.266833 A    
C210  H127  1.110870 S    
C280  H229  1.110765 S    
C171  H41   1.111644 S    
O48   C4    1.258798 A    
C178  H57   1.110821 S    
C158  H7    1.110553 S    
C12   C93   1.425393 S    
C209  C210  1.518395 S    
C129  C141  1.618375 S    
C165  H25   1.112884 S    
C122  C126  1.202481 T    
C129  C250  1.544172 S    
O14   C10   1.274729 A    
C241  O113  1.222566 D    
C26   C294  1.544900 S    
Zn1   O1    1.937724 S    
Zn16  O8    1.939100 S    
O87   C209  1.423348 S    
C157  H5    1.109889 S    
C184  H72   1.105003 S    
C236  H168  1.087188 S    
C113  C229  1.542438 S    
C11   C94   1.426226 S    
O30   C18   1.274325 A    
C271  H206  1.109569 S    
C168  H32   1.110972 S    
C29   O141  1.434963 S    
O36   C24   1.276054 A    
C291  O155  1.217893 D    
C207  C208  1.520426 S    
C81   C237  1.551307 S    
