data_mof_unit_10927.cif
_audit_creation_date              2013-03-05T15:56:43-0500
_audit_creation_method            fapswitch 2.2
_symmetry_space_group_name_H-M    P1
_symmetry_Int_Tables_number       1
_space_group_crystal_system       triclinic
_cell_length_a                    21.351855
_cell_length_b                    21.367365
_cell_length_c                    13.669834
_cell_angle_alpha                 89.992393
_cell_angle_beta                  90.004172
_cell_angle_gamma                 89.996004
_cell_volume                      6236.6276375

loop_
_atom_site_label
_atom_site_type_symbol
_atom_site_description
_atom_site_fract_x
_atom_site_fract_y
_atom_site_fract_z
_atom_type_partial_charge
O1    O     O_R   0.064880 0.435140 0.582280 -0.587039
O2    O     O_R   0.935120 0.564860 0.417720 -0.592192
O3    O     O_R   0.935120 0.564860 0.582280 -0.586189
O4    O     O_R   0.064880 0.435140 0.417720 -0.593122
O5    O     O_R   0.935120 0.435140 0.417720 -0.591278
O6    O     O_R   0.064880 0.564860 0.582280 -0.583500
O7    O     O_R   0.064880 0.564860 0.417720 -0.590122
O8    O     O_R   0.935120 0.435140 0.582280 -0.583667
O9    O     O_R   0.564880 0.935140 0.582280 -0.590500
O10   O     O_R   0.435120 0.064860 0.417720 -0.583263
O11   O     O_R   0.435120 0.064860 0.582280 -0.590498
O12   O     O_R   0.564880 0.935140 0.417720 -0.583965
O13   O     O_R   0.435120 0.935140 0.417720 -0.587474
O14   O     O_R   0.564880 0.064860 0.582280 -0.592997
O15   O     O_R   0.564880 0.064860 0.417720 -0.586773
O16   O     O_R   0.435120 0.935140 0.582280 -0.593026
C1    C     C_R   0.085934 0.414433 0.500005 0.815381
C2    C     C_R   0.914028 0.585533 0.500008 0.818539
C3    C     C_R   0.914288 0.414187 0.500011 0.814963
C4    C     C_R   0.085709 0.585816 0.500009 0.815593
C5    C     C_R   0.585756 0.914225 0.500007 0.816323
C6    C     C_R   0.414291 0.085815 0.499986 0.815595
C7    C     C_R   0.414064 0.914433 0.500004 0.815388
C8    C     C_R   0.585934 0.085568 0.499999 0.816161
Cu1   Cu    Cu3+1 0.000000 0.500000 0.597420 0.967836
Cu2   Cu    Cu3+1 0.000000 0.500000 0.402580 0.942871
Cu3   Cu    Cu3+1 0.500000 0.000000 0.597420 0.940862
Cu4   Cu    Cu3+1 0.500000 0.000000 0.402580 0.967063
C9    C     C_R   0.153659 0.660644 0.411883 -0.227878
C10   C     C_R   0.845697 0.340000 0.411796 -0.228626
C11   C     C_R   0.842350 0.656737 0.411818 -0.204453
C12   C     C_R   0.158163 0.343961 0.411601 -0.227785
C13   C     C_R   0.657940 0.156276 0.588409 -0.227729
C14   C     C_R   0.342641 0.843134 0.588417 -0.228009
C15   C     C_R   0.345492 0.159783 0.588229 -0.228450
C16   C     C_R   0.654272 0.840005 0.588406 -0.229695
C17   C     C_R   0.133337 0.634960 0.500074 -0.081979
C18   C     C_R   0.866645 0.365055 0.500067 -0.081940
C19   C     C_R   0.864535 0.632755 0.500092 -0.103954
C20   C     C_R   0.135192 0.366963 0.499991 -0.082006
C21   C     C_R   0.635187 0.133045 0.500022 -0.081984
C22   C     C_R   0.364802 0.866967 0.500048 -0.081939
C23   C     C_R   0.366658 0.134955 0.499932 -0.082168
C24   C     C_R   0.633612 0.865291 0.500055 -0.084264
C25   C     C_R   0.157863 0.656481 0.588403 -0.178410
C26   C     C_R   0.842726 0.342924 0.588437 -0.178422
C27   C     C_R   0.839248 0.653390 0.588501 -0.177828
C28   C     C_R   0.159464 0.345204 0.588335 -0.179865
C29   C     C_R   0.659674 0.154582 0.411695 -0.179030
C30   C     C_R   0.339707 0.846046 0.411777 -0.180056
C31   C     C_R   0.342966 0.157321 0.411551 -0.178316
C32   C     C_R   0.658026 0.843558 0.411759 -0.176214
C33   C     C_R   0.202145 0.704812 0.590466 -0.008871
C34   C     C_R   0.798456 0.294579 0.590431 -0.008915
C35   C     C_R   0.791090 0.697915 0.590369 -0.008653
C36   C     C_R   0.207779 0.300905 0.590083 -0.008125
C37   C     C_R   0.707992 0.198875 0.409970 -0.008016
C38   C     C_R   0.291353 0.801789 0.410119 -0.007920
C39   C     C_R   0.298707 0.205679 0.409584 -0.008946
C40   C     C_R   0.702809 0.795682 0.410030 0.007951
C41   C     C_R   0.223781 0.729795 0.500317 0.018829
C42   C     C_R   0.776183 0.270240 0.500235 0.018821
C43   C     C_R   0.769827 0.723334 0.500364 0.001350
C44   C     C_R   0.229838 0.276354 0.499900 0.017840
C45   C     C_R   0.729822 0.223664 0.500134 0.017832
C46   C     C_R   0.270144 0.776369 0.500222 0.017844
C47   C     C_R   0.276203 0.229779 0.499795 0.018811
C48   C     C_R   0.724070 0.770467 0.500216 0.016817
C49   C     C_R   0.199357 0.707570 0.410203 0.048039
C50   C     C_R   0.799965 0.293111 0.410095 0.048187
C51   C     C_R   0.795046 0.701950 0.410437 0.086020
C52   C     C_R   0.204891 0.298084 0.409832 0.048505
C53   C     C_R   0.704652 0.202167 0.590180 0.048539
C54   C     C_R   0.295940 0.797234 0.590199 0.048481
C55   C     C_R   0.299755 0.206668 0.589939 0.048132
C56   C     C_R   0.699825 0.792918 0.590246 0.048708
C57   C     C_R   0.226370 0.727271 0.680389 -0.049626
C58   C     C_R   0.774867 0.271475 0.680374 -0.049448
C59   C     C_R   0.765314 0.718834 0.680133 -0.043527
C60   C     C_R   0.233015 0.279469 0.679930 -0.045877
C61   C     C_R   0.733462 0.220069 0.320148 -0.045752
C62   C     C_R   0.265228 0.781258 0.320382 -0.045382
C63   C     C_R   0.275351 0.229026 0.319640 -0.049522
C64   C     C_R   0.727079 0.773227 0.320203 -0.060082
C65   C     C_R   0.778497 0.268047 0.320238 0.172706
C66   C     C_R   0.220163 0.733306 0.320424 0.172215
C67   C     C_R   0.227650 0.274358 0.319885 0.176196
C68   C     C_R   0.773352 0.726243 0.320570 0.171161
C69   C     C_R   0.274045 0.772624 0.680099 0.175942
C70   C     C_R   0.727176 0.226138 0.680117 0.176133
C71   C     C_R   0.720581 0.767146 0.680063 0.173495
C72   C     C_R   0.278051 0.231487 0.679821 0.172705
H1    H     H_    0.133083 0.643654 0.344765 0.162317
H2    H     H_    0.865792 0.357466 0.344620 0.161773
H3    H     H_    0.862802 0.640368 0.344007 0.192804
H4    H     H_    0.139055 0.362412 0.344358 0.160333
H5    H     H_    0.638665 0.138001 0.655647 0.160313
H6    H     H_    0.362396 0.860924 0.655631 0.160435
H7    H     H_    0.365410 0.142135 0.655422 0.161999
H8    H     H_    0.633870 0.857218 0.655509 0.162373
H9    H     H_    0.142479 0.634486 0.655406 0.179471
H10   H     H_    0.858591 0.364431 0.655546 0.179762
H11   H     H_    0.858356 0.635006 0.655819 0.181112
H12   H     H_    0.139651 0.362780 0.655676 0.180084
H13   H     H_    0.640034 0.136829 0.344342 0.179894
H14   H     H_    0.358876 0.864280 0.344402 0.179448
H15   H     H_    0.359005 0.135993 0.344407 0.180021
H16   H     H_    0.641856 0.864574 0.344335 0.174969
C73   C     C_R   0.055554 0.496608 0.793229 0.037841
C74   C     C_R   0.944447 0.503398 0.206778 0.013083
C75   C     C_R   0.944445 0.503358 0.793216 0.036966
C76   C     C_R   0.055552 0.496545 0.206794 0.007121
C77   C     C_R   0.555523 0.003870 0.793220 0.006970
C78   C     C_R   0.444476 0.996185 0.206769 0.036192
C79   C     C_R   0.444479 0.996113 0.793211 0.006921
C80   C     C_R   0.555527 0.003793 0.206782 0.035453
N1    N     N_R   0.000000 0.500000 0.743810 -0.191994
N2    N     N_R   1.000000 0.500000 0.256190 -0.184898
N3    N     N_R   0.500000 0.000000 0.743810 -0.184265
N4    N     N_R   0.500000 0.000000 0.256190 -0.192072
C81   C     C_R   0.943112 0.503536 0.896335 -0.002995
C82   C     C_R   0.056886 0.496339 0.103681 -0.004132
C83   C     C_R   0.056887 0.496383 0.896349 -0.002814
C84   C     C_R   0.943113 0.503556 0.103665 -0.003141
C85   C     C_R   0.443149 0.995897 0.896321 -0.004278
C86   C     C_R   0.556860 0.004013 0.103662 -0.003577
C87   C     C_R   0.556857 0.004064 0.896332 -0.003976
C88   C     C_R   0.443147 0.995943 0.103650 -0.003283
C89   C     C_R   1.000000 0.499957 0.948161 0.086070
C90   C     C_R   1.000000 0.499952 0.051854 0.093076
C91   C     C_R   0.500003 0.999981 0.948146 0.093777
C92   C     C_R   0.500004 0.999980 0.051837 0.086235
C93   C     C_R   0.886525 0.507192 0.948602 -0.167934
C94   C     C_R   0.113470 0.492623 0.051423 -0.207619
C95   C     C_R   0.113472 0.492670 0.948631 -0.165766
C96   C     C_R   0.886525 0.507210 0.051392 -0.205321
C97   C     C_R   0.386597 0.991717 0.948580 -0.208378
C98   C     C_R   0.613415 0.008159 0.051394 -0.168110
C99   C     C_R   0.613412 0.008216 0.948603 -0.208624
C100  C     C_R   0.386595 0.991766 0.051371 -0.167995
H17   H     H_    0.098844 0.494065 0.752183 0.138159
H18   H     H_    0.901158 0.505984 0.247822 0.126388
H19   H     H_    0.901155 0.505904 0.752162 0.138125
H20   H     H_    0.098840 0.493952 0.247850 0.125244
H21   H     H_    0.598791 0.006800 0.752178 0.125416
H22   H     H_    0.401204 0.993317 0.247809 0.138749
H23   H     H_    0.401211 0.993183 0.752162 0.125379
H24   H     H_    0.598799 0.006660 0.247831 0.140043
H25   H     H_    0.842293 0.510053 0.910016 0.169577
H26   H     H_    0.157696 0.489677 0.090017 0.142226
H27   H     H_    0.157701 0.489785 0.910055 0.168960
H28   H     H_    0.842296 0.510087 0.089974 0.142433
H29   H     H_    0.342397 0.988404 0.909988 0.142631
H30   H     H_    0.657620 0.011384 0.089980 0.171170
H31   H     H_    0.657613 0.011512 0.910018 0.142482
H32   H     H_    0.342392 0.988514 0.089948 0.170175
C101  C     C_2   0.202675 0.704163 0.776181 0.860931
O17   O     O_2   0.146705 0.706640 0.794821 -0.604963
O18   O     O_R   0.244761 0.681357 0.845969 -0.721487
H33   H     H_    0.223166 0.667749 0.908519 0.339822
C102  C     C_2   0.799276 0.293859 0.776149 0.860678
O19   O     O_2   0.855383 0.291261 0.793722 -0.605233
O20   O     O_R   0.757715 0.316100 0.847124 -0.721335
H34   H     H_    0.779774 0.329213 0.909532 0.339592
C103  C     C_2   0.784178 0.690904 0.775453 0.863178
O21   O     O_2   0.780817 0.634308 0.787821 -0.626844
O22   O     O_R   0.803908 0.729683 0.851852 -0.720784
H35   H     H_    0.814615 0.705358 0.913317 0.335023
C104  C     C_2   0.213290 0.306547 0.775421 0.862990
O23   O     O_2   0.216341 0.363050 0.788957 -0.627034
O24   O     O_R   0.193112 0.267074 0.850667 -0.717019
H36   H     H_    0.181853 0.290854 0.912400 0.339472
C105  C     C_2   0.713997 0.192723 0.224709 0.862925
O25   O     O_2   0.717074 0.136181 0.211590 -0.625923
O26   O     O_R   0.694040 0.231987 0.149043 -0.717193
H37   H     H_    0.682952 0.208033 0.087398 0.339178
C106  C     C_2   0.284016 0.809287 0.225088 0.862358
O27   O     O_2   0.280899 0.865924 0.213014 -0.627369
O28   O     O_R   0.303372 0.770565 0.148386 -0.717476
H38   H     H_    0.314034 0.794961 0.086970 0.338164
C107  C     C_2   0.300021 0.206911 0.223877 0.860784
O29   O     O_2   0.356176 0.209546 0.206712 -0.605202
O30   O     O_R   0.258653 0.184890 0.152455 -0.721214
H39   H     H_    0.280882 0.171961 0.090103 0.339608
C108  C     C_2   0.703181 0.797144 0.225393 0.820404
O31   O     O_2   0.649540 0.785261 0.200177 -0.589050
O32   O     O_R   0.741826 0.833651 0.165809 -0.761710
H40   H     H_    0.720168 0.847308 0.103340 0.341553
N5    N     N_2   0.801783 0.290398 0.228790 -0.401003
H41   H     H_    0.803106 0.338375 0.221221 0.252424
C109  C     C_3   0.857271 0.258773 0.193556 -0.624283
H42   H     H_    0.897446 0.267503 0.243347 0.213323
H43   H     H_    0.869293 0.276522 0.119558 0.236866
H44   H     H_    0.848795 0.207587 0.188258 0.245205
N6    N     N_2   0.196130 0.711709 0.229011 -0.401337
H45   H     H_    0.194736 0.663800 0.220520 0.252651
C110  C     C_3   0.140358 0.743624 0.195524 -0.621641
H46   H     H_    0.100592 0.734461 0.245916 0.214496
H47   H     H_    0.127732 0.726508 0.121412 0.237676
H48   H     H_    0.148790 0.794852 0.191114 0.244503
N7    N     N_2   0.203075 0.295476 0.228513 -0.395956
H49   H     H_    0.154912 0.296569 0.223749 0.257264
C111  C     C_3   0.233651 0.350135 0.188263 -0.643973
H50   H     H_    0.214083 0.360371 0.114709 0.231144
H51   H     H_    0.284741 0.341646 0.180477 0.249335
H52   H     H_    0.225941 0.391434 0.236117 0.205932
N8    N     N_2   0.797916 0.702478 0.230762 -0.441224
H53   H     H_    0.807215 0.735704 0.178137 0.295492
C112  C     C_3   0.764982 0.648616 0.192514 -0.675932
H54   H     H_    0.789895 0.630691 0.126939 0.230316
H55   H     H_    0.716504 0.661742 0.171250 0.252302
H56   H     H_    0.763301 0.610603 0.247925 0.230723
N9    N     N_2   0.299488 0.792848 0.771378 -0.395735
H57   H     H_    0.347690 0.793915 0.775044 0.257281
C113  C     C_3   0.269280 0.847083 0.813649 -0.643061
H58   H     H_    0.276533 0.888864 0.766636 0.205825
H59   H     H_    0.289532 0.856582 0.886988 0.230122
H60   H     H_    0.218271 0.838500 0.822400 0.249340
N10   N     N_2   0.702367 0.205267 0.771467 -0.395927
H61   H     H_    0.654192 0.204176 0.775916 0.257289
C114  C     C_3   0.732855 0.150728 0.812292 -0.643505
H62   H     H_    0.725299 0.109298 0.764656 0.205952
H63   H     H_    0.713087 0.140682 0.885774 0.230835
H64   H     H_    0.783919 0.159256 0.820385 0.249417
N11   N     N_2   0.696847 0.789080 0.771461 -0.401232
H65   H     H_    0.695683 0.837019 0.779633 0.252748
C115  C     C_3   0.640978 0.757537 0.805378 -0.624307
H66   H     H_    0.628560 0.774920 0.879421 0.238561
H67   H     H_    0.649169 0.706279 0.810104 0.244739
H68   H     H_    0.601173 0.766761 0.755076 0.212932
N12   N     N_2   0.301086 0.208874 0.771275 -0.400929
H69   H     H_    0.302389 0.160877 0.778523 0.252624
C116  C     C_3   0.356471 0.240394 0.807123 -0.624592
H70   H     H_    0.396790 0.231789 0.757571 0.213388
H71   H     H_    0.368276 0.222443 0.881092 0.236787
H72   H     H_    0.347982 0.291566 0.812696 0.244964

loop_
_geom_bond_atom_site_label_1
_geom_bond_atom_site_label_2
_geom_bond_distance
_ccdc_geom_bond_type
C74   H18   1.082705 S    
O24   H36   1.014012 S    
C103  O21   1.223158 D    
C8    C21   1.461239 S    
O5    Cu2   1.970491 S    
C75   C81   1.409911 A    
C104  O24   1.398197 S    
C104  O23   1.223173 D    
C63   C67   1.405506 A    
O20   H34   1.013986 S    
C14   C22   1.393700 A    
C30   H14   1.080533 S    
C111  H50   1.110517 S    
C23   C31   1.394149 A    
C74   N2    1.366879 A    
C102  O19   1.223074 D    
O15   Cu4   1.970505 S    
C29   C37   1.400295 A    
C12   C52   1.398876 A    
N9    H57   1.030685 S    
O10   C6    1.289607 A    
C26   H10   1.080539 S    
C63   C107  1.488157 S    
C101  O17   1.223081 D    
C7    C22   1.461227 S    
O12   Cu4   1.970332 S    
C54   C69   1.416069 A    
C19   C27   1.395230 A    
C39   C63   1.417399 A    
C53   C70   1.416061 A    
C114  H64   1.110947 S    
C38   C62   1.417194 A    
O18   H33   1.014037 S    
C95   H27   1.083418 S    
C108  O32   1.397436 S    
O6    Cu1   1.970488 S    
O2    C2    1.289739 A    
O14   C8    1.289556 A    
C46   C54   1.419518 A    
C79   H23   1.082697 S    
C112  H56   1.111120 S    
C45   C53   1.419498 A    
C42   C50   1.419489 A    
O3    C2    1.289395 A    
C20   C28   1.393874 A    
N7    H49   1.030689 S    
C77   H21   1.082700 S    
C110  H47   1.110344 S    
C82   C94   1.405868 A    
C32   C40   1.400453 A    
C39   C47   1.420202 A    
C77   N3    1.366906 A    
C33   C41   1.420194 A    
C41   C46   1.403744 A    
C38   C46   1.420244 A    
C115  H66   1.110332 S    
C106  O28   1.398208 S    
C35   C43   1.419374 A    
C93   C96   1.405124 A    
C36   C44   1.420227 A    
O13   Cu4   1.970491 S    
C86   C92   1.408188 A    
O14   Cu3   1.970488 S    
C15   C23   1.393820 A    
C116  H70   1.110789 S    
C59   C71   1.406342 A    
C75   H19   1.082692 S    
C10   H2    1.080093 S    
C74   C84   1.409821 A    
C98   H30   1.083426 S    
O16   Cu3   1.970508 S    
C107  O30   1.398155 S    
C27   C35   1.401058 A    
C25   C33   1.400496 A    
C101  O18   1.398131 S    
C80   C86   1.409917 A    
C83   C89   1.408181 A    
O1    Cu1   1.970392 S    
O8    Cu1   1.970508 S    
N7    C111  1.446699 S    
C28   H12   1.080508 S    
C64   C108  1.483551 S    
C110  H46   1.110792 S    
C87   C99   1.405875 A    
C60   C104  1.488727 S    
C15   H7    1.080086 S    
C88   C92   1.408187 A    
C111  H51   1.110949 S    
C21   C29   1.393909 A    
C10   C50   1.399276 A    
O13   C7    1.289589 A    
O11   Cu3   1.970332 S    
N11   H65   1.030705 S    
C9    C49   1.399317 A    
C105  O26   1.398203 S    
C100  H32   1.083422 S    
C97   C100  1.405131 A    
O8    C3    1.289617 A    
C27   H11   1.080476 S    
C78   C88   1.409912 A    
C84   C96   1.405848 A    
C73   N1    1.366926 A    
N8    H53   1.029966 S    
C30   C38   1.400303 A    
C44   C47   1.403671 A    
Cu2   N2    2.001127 S    
C111  H52   1.110805 S    
O3    Cu1   1.970332 S    
C93   H25   1.083420 S    
C78   H22   1.082682 S    
N12   C116  1.446490 S    
Cu4   N4    2.001127 S    
C113  H60   1.110940 S    
C37   C45   1.420229 A    
O22   H35   1.014013 S    
C80   H24   1.082684 S    
C9    H1    1.080119 S    
C73   C83   1.409928 A    
C103  O22   1.398200 S    
C102  O20   1.398149 S    
C34   C42   1.420197 A    
C72   N12   1.427578 S    
C85   C97   1.405859 A    
Cu1   Cu2   2.663429 S    
C107  O29   1.223073 D    
O12   C5    1.289748 A    
C58   C70   1.405532 A    
C109  H42   1.110794 S    
C83   C95   1.405927 A    
C1    C20   1.461114 S    
C61   C105  1.488746 S    
C60   C72   1.405582 A    
C110  H48   1.110964 S    
C33   C57   1.417390 A    
C2    C19   1.461068 S    
C109  H43   1.110354 S    
O30   H39   1.013987 S    
C76   C82   1.409831 A    
C114  H62   1.110808 S    
C3    C18   1.461872 S    
C66   N6    1.427542 S    
N10   C114  1.446702 S    
C5    C24   1.461905 S    
C35   C59   1.417240 A    
C85   C91   1.408215 A    
O4    Cu2   1.970332 S    
O26   H37   1.014016 S    
N12   H69   1.030706 S    
C99   H31   1.083481 S    
C57   C69   1.405516 A    
C26   C34   1.400514 A    
C112  H54   1.110547 S    
C97   H29   1.083479 S    
O2    Cu2   1.970392 S    
C76   H20   1.082705 S    
C59   C103  1.488593 S    
C51   C68   1.411688 A    
C116  H71   1.110359 S    
C40   C48   1.419845 A    
C70   N10   1.427869 S    
C43   C51   1.417778 A    
C25   H9    1.080572 S    
C55   C72   1.416275 A    
C22   C30   1.393926 A    
C77   C87   1.409818 A    
O4    C1    1.289516 A    
C13   C53   1.398937 A    
O15   C8    1.289574 A    
C115  H67   1.110974 S    
C14   C54   1.398917 A    
O7    C4    1.289852 A    
O16   C7    1.289547 A    
C79   N3    1.366895 A    
C12   C20   1.393658 A    
C71   N11   1.427473 S    
C37   C61   1.417174 A    
C15   C55   1.399196 A    
C47   C55   1.419480 A    
C68   N8    1.428399 S    
C17   C25   1.394162 A    
C91   C92   1.417450 A    
N10   H61   1.030688 S    
C52   C67   1.416047 A    
O9    Cu3   1.970392 S    
C69   N9    1.427885 S    
C89   C90   1.417463 A    
O10   Cu4   1.970392 S    
C28   C36   1.400227 A    
C43   C48   1.403074 A    
C86   C98   1.405933 A    
C42   C45   1.403734 A    
C12   H4    1.080106 S    
C67   N7    1.427864 S    
C64   C68   1.408513 A    
C81   C89   1.408192 A    
Cu1   N1    2.001127 S    
C24   C32   1.394425 A    
C29   H13   1.080506 S    
C16   H8    1.080090 S    
C94   C95   1.405151 A    
O5    C3    1.289836 A    
Cu3   N3    2.001127 S    
O28   H38   1.014066 S    
C48   C56   1.418791 A    
O6    C4    1.289596 A    
O11   C6    1.289787 A    
O1    C1    1.289550 A    
C36   C60   1.417154 A    
C75   N1    1.366913 A    
C41   C49   1.419504 A    
C14   H6    1.080131 S    
C87   C91   1.408209 A    
C113  H59   1.110536 S    
C88   C100  1.405922 A    
N9    C113  1.446720 S    
C13   C21   1.393683 A    
O32   H40   1.013936 S    
C114  H63   1.110518 S    
C62   C66   1.405631 A    
C84   C90   1.408203 A    
C18   C26   1.394176 A    
C76   N2    1.366902 A    
C4    C17   1.461850 S    
C40   C64   1.416594 A    
O9    C5    1.289752 A    
C108  O31   1.222742 D    
O7    Cu2   1.970505 S    
C11   H3    1.082779 S    
C79   C85   1.409803 A    
C62   C106  1.488776 S    
C11   C51   1.397739 A    
N11   C115  1.446487 S    
C34   C58   1.417408 A    
C11   C19   1.393843 A    
C13   H5    1.080108 S    
C44   C52   1.419484 A    
C113  H58   1.110803 S    
N5    H41   1.030710 S    
C116  H72   1.110965 S    
C78   N4    1.366928 A    
C109  H44   1.110964 S    
C16   C24   1.394596 A    
C98   C99   1.405146 A    
C56   C71   1.416621 A    
C105  O25   1.223175 D    
N6    H45   1.030706 S    
C80   N4    1.366944 A    
C16   C56   1.399561 A    
C115  H68   1.110806 S    
C31   C39   1.400467 A    
C32   H16   1.081746 S    
C58   C102  1.488142 S    
C31   H15   1.080533 S    
C106  O27   1.223177 D    
C9    C17   1.393839 A    
Cu3   Cu4   2.663429 S    
N8    C112  1.446600 S    
C112  H55   1.111082 S    
C73   H17   1.082691 S    
C10   C18   1.393836 A    
C81   C93   1.405905 A    
C96   H28   1.083446 S    
C50   C65   1.416287 A    
C65   N5    1.427569 S    
C82   C90   1.408207 A    
C6    C23   1.461759 S    
C61   C65   1.405627 A    
C49   C66   1.416299 A    
C57   C101  1.488089 S    
N5    C109  1.446490 S    
N6    C110  1.446505 S    
C94   H26   1.083478 S    
