data_mof_unit_64654.cif
_audit_creation_date              2012-12-11T16:01:03-0500
_audit_creation_method            fapswitch 2.2
_symmetry_space_group_name_H-M    P1
_symmetry_Int_Tables_number       1
_space_group_crystal_system       triclinic
_cell_length_a                    23.463474
_cell_length_b                    25.173114
_cell_length_c                    8.750644
_cell_angle_alpha                 89.915936
_cell_angle_beta                  98.83251
_cell_angle_gamma                 89.999101
_cell_volume                      5107.25914908

loop_
_atom_site_label
_atom_site_type_symbol
_atom_type_description
_atom_site_fract_x
_atom_site_fract_y
_atom_site_fract_z
_atom_type_partial_charge
Ba1   Ba    Ba6+2 0.999910 0.463090 0.844860 1.618948
Ba2   Ba    Ba6+2 0.999910 0.536910 0.344860 1.621983
Ba3   Ba    Ba6+2 0.499910 0.963090 0.844860 1.621235
Ba4   Ba    Ba6+2 0.499910 0.036910 0.344860 1.636509
C1    C     C_3   0.063380 0.229541 0.712190 -0.211817
C2    C     C_R   0.833635 0.657870 0.588911 -0.134088
C3    C     C_3   0.260122 0.955332 0.354909 -0.445319
C4    C     C_3   0.744761 0.407395 0.800555 -0.280161
C5    C     C_3   0.682855 0.546314 0.265723 -0.413027
C6    C     C_3   0.245388 0.904948 0.808072 -0.290952
C7    C     C_3   0.213888 0.076415 0.433238 -0.385045
C8    C     C_3   0.061499 0.188190 0.584627 -0.434408
C9    C     C_3   0.103598 0.784153 0.258707 -0.491271
C10   C     C_3   0.562758 0.688352 0.586459 -0.435466
C11   C     C_3   0.561167 0.311603 0.081519 -0.433333
C12   C     C_3   0.919371 0.187966 0.205138 -0.378138
C13   C     C_R   0.340654 0.838448 0.083496 -0.165390
C14   C     C_3   0.929973 0.811290 0.747687 -0.359206
C15   C     C_3   0.421687 0.686325 0.206802 -0.377258
C16   C     C_3   0.417489 0.309962 0.701709 -0.378942
C17   C     C_3   0.181740 0.736620 0.746289 -0.383850
C18   C     C_3   0.166935 0.250986 0.264057 -0.386726
C19   C     C_3   0.668271 0.248253 0.760755 -0.386623
C20   C     C_3   0.667358 0.751347 0.263495 -0.377708
C21   C     C_3   0.915514 0.431595 0.390306 -0.236078
C22   C     C_3   0.919838 0.567558 0.888675 -0.231802
C23   C     C_3   0.417438 0.930869 0.391826 -0.236641
C24   C     C_R   0.334136 0.158231 0.587559 -0.173468
C25   C     C_3   0.419480 0.069103 0.889109 -0.240931
C26   C     C_3   0.929942 0.195460 0.927835 -0.399748
C27   C     C_3   0.922073 0.781218 0.473149 -0.379067
C28   C     C_3   0.431568 0.694133 0.929065 -0.399866
C29   C     C_3   0.429080 0.302976 0.425090 -0.399997
C30   C     C_3   0.012685 0.162241 0.122348 -0.350135
C31   C     C_3   0.003904 0.840744 0.587898 -0.370405
C32   C     C_3   0.515112 0.661863 0.122701 -0.356816
C33   C     C_3   0.510732 0.337217 0.620743 -0.353048
C34   C     C_3   0.184088 0.458388 0.371107 -0.310228
C35   C     C_R   0.820491 0.299885 0.181328 -0.006321
C36   C     C_3   0.184462 0.540192 0.871735 -0.307515
C37   C     C_3   0.684251 0.958676 0.371163 -0.311193
C38   C     C_3   0.684217 0.040936 0.871161 -0.310528
C39   C     C_R   0.815222 0.696629 0.687353 -0.023412
C40   C     C_R   0.322929 0.798437 0.179873 -0.005948
C41   C     C_R   0.317321 0.198146 0.685069 -0.015022
C42   C     C_R   0.847327 0.297126 0.336639 -0.121212
C43   C     C_R   0.840858 0.697821 0.843190 -0.133827
C44   C     C_R   0.349134 0.796063 0.335654 -0.118743
C45   C     C_3   0.040611 0.784061 0.182739 -0.221781
C46   C     C_R   0.346081 0.201800 0.838233 -0.117129
C47   C     C_R   0.886938 0.336244 0.398134 0.085089
C48   C     C_R   0.881778 0.659428 0.901754 0.050688
C49   C     C_R   0.387670 0.835827 0.398193 0.084336
C50   C     C_R   0.386899 0.163400 0.898041 0.089363
C51   C     C_R   0.170222 0.656061 0.113953 -0.156428
C52   C     C_R   0.166440 0.342000 0.616436 -0.165689
C53   C     C_R   0.667781 0.157480 0.114525 -0.164093
C54   C     C_R   0.666468 0.842082 0.616304 -0.164712
C55   C     C_R   0.123438 0.621935 0.062030 0.073509
C56   C     C_3   0.564459 0.730023 0.713080 -0.212765
C57   C     C_R   0.121749 0.377937 0.561645 0.059761
C58   C     C_R   0.622445 0.122018 0.060971 0.057799
C59   C     C_R   0.621860 0.878051 0.561387 0.058341
C60   C     C_R   0.111837 0.665647 0.808956 0.082654
C61   C     C_R   0.106966 0.331274 0.312554 0.060094
C62   C     C_R   0.607755 0.168540 0.811204 0.059985
C63   C     C_R   0.607220 0.831493 0.312171 0.062534
C64   C     C_R   0.160154 0.698944 0.859870 0.014607
C65   C     C_R   0.151643 0.294742 0.369071 -0.016490
C66   C     C_R   0.652964 0.204659 0.866549 -0.015785
C67   C     C_3   0.563201 0.270523 0.210220 -0.211350
C68   C     C_R   0.651892 0.794984 0.368670 -0.024715
C69   C     C_R   0.188703 0.695048 0.015541 0.000634
C70   C     C_R   0.181669 0.300188 0.522790 0.008562
C71   C     C_R   0.683487 0.198940 0.019791 0.009566
C72   C     C_R   0.681735 0.800336 0.522565 0.007163
C73   C     C_3   0.984551 0.261324 0.118647 0.659907
C74   C     C_3   0.001257 0.743151 0.672545 0.683105
C75   C     C_3   0.485497 0.760607 0.119136 0.659995
C76   C     C_3   0.484292 0.237780 0.617502 0.660460
C77   C     C_1   0.237621 0.729958 0.074719 -0.009150
C78   C     C_R   0.874417 0.381911 0.145887 0.091075
C79   C     C_1   0.230223 0.265082 0.582907 -0.001075
C80   C     C_1   0.732863 0.233445 0.078392 -0.001798
C81   C     C_1   0.729876 0.764939 0.583213 -0.003337
C82   C     C_1   0.773311 0.263069 0.124144 -0.018451
C83   C     C_1   0.769288 0.734462 0.630165 -0.002038
C84   C     C_1   0.277127 0.760460 0.121306 -0.018162
C85   C     C_1   0.270204 0.235073 0.629174 -0.016899
C86   C     C_R   0.092903 0.629312 0.912445 -0.256745
C87   C     C_R   0.091165 0.370870 0.411531 -0.251409
C88   C     C_R   0.591828 0.129191 0.910952 -0.250541
C89   C     C_R   0.870969 0.616039 0.648205 0.082802
C90   C     C_R   0.591403 0.871074 0.411114 -0.250759
C91   C     C_3   0.962209 0.202382 0.093997 0.088379
C92   C     C_3   0.964837 0.793872 0.620544 0.092378
C93   C     C_3   0.464029 0.701378 0.094906 0.091962
C94   C     C_3   0.460984 0.296376 0.591801 0.089931
C95   C     C_3   0.187126 0.467909 0.204611 0.676630
C96   C     C_3   0.187317 0.531511 0.704760 0.676767
C97   C     C_3   0.687288 0.968139 0.204552 0.677308
C98   C     C_3   0.687192 0.031786 0.704442 0.677539
C99   C     C_3   0.247435 0.443914 0.176419 -0.002933
C100  C     C_R   0.374598 0.881940 0.146435 0.082968
C101  C     C_3   0.247531 0.555589 0.676478 -0.003127
C102  C     C_3   0.747618 0.944253 0.176386 -0.003173
C103  C     C_3   0.747448 0.055802 0.676142 -0.003367
C104  C     C_3   0.791201 0.497958 0.874324 0.392054
C105  C     C_3   0.787480 0.511887 0.368649 0.395282
C106  C     C_3   0.290953 0.996600 0.872656 0.394733
C107  C     C_3   0.290280 0.009600 0.360550 0.378326
C108  C     C_3   0.733741 0.466222 0.828351 0.663129
C109  C     C_3   0.742542 0.558827 0.360187 0.680456
C110  C     C_3   0.233846 0.963858 0.832892 0.666540
C111  C     C_R   0.372705 0.117294 0.646602 0.077199
C112  C     C_3   0.247121 0.056335 0.306417 0.671984
C113  C     C_3   0.027374 0.279343 0.663425 0.350374
C114  C     C_3   0.015537 0.727823 0.165892 0.345885
C115  C     C_3   0.528108 0.779555 0.663477 0.351105
C116  C     C_3   0.527316 0.220617 0.162605 0.347678
C117  C     C_R   0.894376 0.381591 0.307797 -0.196722
C118  C     C_R   0.892404 0.616047 0.808924 -0.237191
C119  C     C_R   0.394549 0.881513 0.308487 -0.197033
C120  C     C_R   0.395198 0.118442 0.807151 -0.199960
C121  C     C_3   0.297783 0.483892 0.203622 -0.413951
C122  C     C_R   0.839016 0.339199 0.083988 -0.162197
C123  C     C_3   0.297958 0.515717 0.704916 -0.413218
C124  C     C_3   0.797901 0.984278 0.204229 -0.414000
C125  C     C_3   0.797856 0.015903 0.704675 -0.413783
C126  C     C_3   0.246317 0.412870 0.024682 -0.332702
C127  C     C_3   0.246450 0.585912 0.523429 -0.334599
C128  C     C_3   0.746595 0.913640 0.024024 -0.332279
C129  C     C_3   0.746392 0.086197 0.523204 -0.332999
C130  C     C_3   0.777195 0.557421 0.885558 -0.370449
C131  C     C_3   0.758913 0.456842 0.350639 -0.442926
C132  C     C_3   0.276635 0.056247 0.877188 -0.294165
H1    H     H_    0.035834 0.307409 0.761922 0.096684
H2    H     H_    0.811559 0.515502 0.270634 0.051431
H3    H     H_    0.243627 0.092821 0.530638 0.102436
H4    H     H_    0.016316 0.178797 0.534540 0.156506
H5    H     H_    0.085763 0.202610 0.493585 0.112868
H6    H     H_    0.082621 0.151123 0.633531 0.127858
H7    H     H_    0.119911 0.825605 0.268269 0.136769
H8    H     H_    0.108241 0.766730 0.376397 0.178695
H9    H     H_    0.130038 0.761187 0.187739 0.146731
H10   H     H_    0.517619 0.678633 0.536855 0.156675
H11   H     H_    0.586871 0.702637 0.494958 0.113125
H12   H     H_    0.584137 0.651501 0.636152 0.127987
H13   H     H_    0.317015 0.990453 0.779558 0.032082
H14   H     H_    0.582055 0.348843 0.129455 0.129286
H15   H     H_    0.585563 0.297047 0.990998 0.113013
H16   H     H_    0.515946 0.320737 0.030906 0.156433
H17   H     H_    0.879974 0.212165 0.179361 0.117253
H18   H     H_    0.905940 0.145676 0.191054 0.106588
H19   H     H_    0.938369 0.193815 0.328000 0.150927
H20   H     H_    0.902804 0.778358 0.778293 0.114084
H21   H     H_    0.958869 0.823676 0.854194 0.143563
H22   H     H_    0.901412 0.845418 0.707870 0.104753
H23   H     H_    0.381948 0.710056 0.181848 0.117065
H24   H     H_    0.319627 0.007124 0.275185 0.104948
H25   H     H_    0.408832 0.643886 0.192832 0.106644
H26   H     H_    0.440852 0.692304 0.329451 0.150025
H27   H     H_    0.378738 0.284917 0.675495 0.117416
H28   H     H_    0.436350 0.304498 0.824927 0.151498
H29   H     H_    0.403074 0.351975 0.686571 0.106702
H30   H     H_    0.217296 0.762669 0.799858 0.107565
H31   H     H_    0.198179 0.713409 0.654595 0.121663
H32   H     H_    0.146507 0.763006 0.692154 0.113782
H33   H     H_    0.200552 0.223542 0.321119 0.107868
H34   H     H_    0.128207 0.226565 0.223932 0.117777
H35   H     H_    0.042785 0.296970 0.561797 0.020299
H36   H     H_    0.183203 0.268518 0.162667 0.130561
H37   H     H_    0.702161 0.275505 0.817125 0.107773
H38   H     H_    0.684174 0.230567 0.659181 0.130144
H39   H     H_    0.629622 0.272887 0.720985 0.117133
H40   H     H_    0.701109 0.724002 0.320380 0.130785
H41   H     H_    0.628739 0.726804 0.223310 0.116260
H42   H     H_    0.683542 0.769004 0.162150 0.131188
H43   H     H_    0.893063 0.466421 0.335240 0.105755
H44   H     H_    0.903372 0.432863 0.507629 0.137895
H45   H     H_    0.962703 0.435470 0.394190 0.137663
H46   H     H_    0.038047 0.705201 0.084177 0.061619
H47   H     H_    0.899867 0.531279 0.838486 0.104827
H48   H     H_    0.966813 0.567456 0.885980 0.129213
H49   H     H_    0.910078 0.564134 0.007800 0.137573
H50   H     H_    0.397861 0.966615 0.337572 0.095083
H51   H     H_    0.404045 0.932950 0.507693 0.132616
H52   H     H_    0.464814 0.933106 0.397342 0.138411
H53   H     H_    0.398313 0.033378 0.837745 0.097184
H54   H     H_    0.466619 0.066979 0.890000 0.137604
H55   H     H_    0.408141 0.066591 0.006947 0.134893
H56   H     H_    0.026112 0.252523 0.325111 0.278031
H57   H     H_    0.543144 0.796934 0.561006 0.020341
H58   H     H_    0.064753 0.776538 0.808314 0.286344
H59   H     H_    0.527462 0.752102 0.325204 0.277774
H60   H     H_    0.525809 0.246800 0.823920 0.278474
H61   H     H_    0.958632 0.202702 0.841661 0.158764
H62   H     H_    0.912711 0.154433 0.909624 0.114164
H63   H     H_    0.893093 0.223601 0.904580 0.118851
H64   H     H_    0.945282 0.767892 0.379452 0.159085
H65   H     H_    0.892065 0.749048 0.495318 0.107411
H66   H     H_    0.895993 0.816745 0.431968 0.113717
H67   H     H_    0.459927 0.701863 0.842353 0.158818
H68   H     H_    0.542991 0.202664 0.061891 0.020256
H69   H     H_    0.414982 0.652882 0.911087 0.113957
H70   H     H_    0.394245 0.721765 0.906362 0.117685
H71   H     H_    0.458285 0.296450 0.339847 0.158377
H72   H     H_    0.392874 0.274202 0.401047 0.120591
H73   H     H_    0.411011 0.343709 0.406324 0.113985
H74   H     H_    0.035500 0.164899 0.242841 0.094712
H75   H     H_    0.996585 0.120888 0.103136 0.110052
H76   H     H_    0.044547 0.169162 0.043272 0.128468
H77   H     H_    0.977488 0.874668 0.535467 0.109698
H78   H     H_    0.030158 0.855287 0.696204 0.101109
H79   H     H_    0.109024 0.241687 0.748138 0.090552
H80   H     H_    0.034001 0.829077 0.508041 0.133401
H81   H     H_    0.538014 0.664669 0.243084 0.094889
H82   H     H_    0.499612 0.620325 0.103502 0.109070
H83   H     H_    0.546770 0.669260 0.043378 0.126226
H84   H     H_    0.493930 0.378355 0.601316 0.109280
H85   H     H_    0.533422 0.334673 0.741394 0.094806
H86   H     H_    0.542842 0.330882 0.542019 0.126580
H87   H     H_    0.188468 0.415606 0.395741 0.019211
H88   H     H_    0.220914 0.477450 0.440782 0.097503
H89   H     H_    0.143252 0.475245 0.396299 0.117430
H90   H     H_    0.015033 0.808661 0.252176 0.113456
H91   H     H_    0.220733 0.520074 0.940395 0.098069
H92   H     H_    0.189951 0.582632 0.898743 0.013999
H93   H     H_    0.143282 0.524004 0.896669 0.117407
H94   H     H_    0.688804 0.915920 0.396133 0.019751
H95   H     H_    0.720951 0.977909 0.440805 0.097150
H96   H     H_    0.643341 0.975388 0.396298 0.117512
H97   H     H_    0.720821 0.021464 0.940571 0.097241
H98   H     H_    0.688979 0.083610 0.896469 0.019418
H99   H     H_    0.643254 0.024342 0.896389 0.117786
H100  H     H_    0.106842 0.442228 0.161309 0.292592
H101  H     H_    0.610036 0.742437 0.748595 0.090985
H102  H     H_    0.107060 0.557347 0.662635 0.290412
H103  H     H_    0.607060 0.942312 0.161261 0.292441
H104  H     H_    0.606932 0.057641 0.661648 0.292174
H105  H     H_    0.022378 0.707759 0.280100 0.099411
H106  H     H_    0.608878 0.258468 0.246365 0.090373
H107  H     H_    0.194451 0.650155 0.228363 0.082392
H108  H     H_    0.191401 0.348282 0.729712 0.084282
H109  H     H_    0.692916 0.150996 0.227519 0.083059
H110  H     H_    0.691280 0.848241 0.729835 0.084322
H111  H     H_    0.837446 0.264649 0.409582 0.063991
H112  H     H_    0.830103 0.729315 0.918077 0.080324
H113  H     H_    0.339799 0.763223 0.408034 0.063496
H114  H     H_    0.336546 0.234328 0.911194 0.064075
H115  H     H_    0.824286 0.337374 0.961266 0.089826
H116  H     H_    0.536669 0.807937 0.761165 0.096596
H117  H     H_    0.817684 0.660025 0.467475 0.169756
H118  H     H_    0.326528 0.836393 0.960516 0.093113
H119  H     H_    0.314640 0.157686 0.467930 0.137240
H120  H     H_    0.057816 0.602816 0.870343 0.032050
H121  H     H_    0.058160 0.399189 0.366482 0.048649
H122  H     H_    0.558669 0.101057 0.866403 0.045987
H123  H     H_    0.558513 0.899451 0.365894 0.046477
H124  H     H_    0.049121 0.211050 0.813990 0.130750
H125  H     H_    0.037387 0.803175 0.067582 0.149722
H126  H     H_    0.550369 0.711705 0.815305 0.131697
H127  H     H_    0.535542 0.192816 0.262010 0.096441
H128  H     H_    0.548907 0.289198 0.311648 0.129273
H129  H     H_    0.950956 0.288713 0.059825 0.043527
H130  H     H_    0.970813 0.709687 0.681290 -0.017494
H131  H     H_    0.451409 0.787592 0.060740 0.043790
H132  H     H_    0.451172 0.209941 0.558833 0.042639
H133  H     H_    0.301949 0.500432 0.322232 0.107475
H134  H     H_    0.292681 0.517410 0.121088 0.132408
H135  H     H_    0.339064 0.463579 0.193391 0.111154
H136  H     H_    0.301651 0.498774 0.823101 0.107924
H137  H     H_    0.339283 0.536216 0.696301 0.111037
H138  H     H_    0.260833 0.412309 0.264064 0.055999
H139  H     H_    0.293250 0.482523 0.621519 0.131992
H140  H     H_    0.801819 0.000887 0.322710 0.107763
H141  H     H_    0.792888 0.017721 0.121420 0.132315
H142  H     H_    0.839255 0.963992 0.194640 0.111445
H143  H     H_    0.801666 0.999178 0.823137 0.107900
H144  H     H_    0.839174 0.036325 0.695477 0.111487
H145  H     H_    0.793054 0.982552 0.621831 0.132276
H146  H     H_    0.290258 0.398552 0.013290 0.078717
H147  H     H_    0.218426 0.377296 0.025168 0.153788
H148  H     H_    0.230178 0.436427 0.921832 0.155496
H149  H     H_    0.260583 0.587521 0.762993 0.055868
H150  H     H_    0.217397 0.620793 0.520206 0.153001
H151  H     H_    0.290142 0.601202 0.513361 0.078877
H152  H     H_    0.231856 0.561317 0.421907 0.154877
H153  H     H_    0.790525 0.899279 0.012689 0.079644
H154  H     H_    0.718543 0.878128 0.023234 0.154672
H155  H     H_    0.730708 0.937621 0.921892 0.155480
H156  H     H_    0.717885 0.121444 0.520991 0.155204
H157  H     H_    0.790217 0.100946 0.512265 0.078589
H158  H     H_    0.731080 0.061858 0.421641 0.155333
H159  H     H_    0.775483 0.577241 0.772902 0.144551
H160  H     H_    0.760933 0.912478 0.263533 0.056172
H161  H     H_    0.735574 0.564200 0.927755 0.114566
H162  H     H_    0.810518 0.577631 0.968251 0.077483
H163  H     H_    0.734833 0.451252 0.232692 0.141349
H164  H     H_    0.792100 0.425247 0.369847 0.092991
H165  H     H_    0.729432 0.450969 0.436692 0.174798
H166  H     H_    0.277459 0.074383 0.763452 0.031083
H167  H     H_    0.233813 0.063844 0.911420 0.175324
H168  H     H_    0.308354 0.077583 0.962169 0.117653
H169  H     H_    0.244830 0.943131 0.233881 0.158670
H170  H     H_    0.290733 0.924430 0.407853 0.096591
H171  H     H_    0.760576 0.087698 0.762736 0.056226
H172  H     H_    0.223102 0.956193 0.419730 0.154207
H173  H     H_    0.679812 0.517450 0.714755 0.324667
H174  H     H_    0.712944 0.606272 0.505711 0.306243
H175  H     H_    0.177054 0.012548 0.719728 0.303684
H176  H     H_    0.251198 0.125367 0.206032 0.306055
H177  H     H_    0.661698 0.453608 0.908986 0.300676
H178  H     H_    0.768466 0.594783 0.184773 0.278566
H179  H     H_    0.163180 0.950815 0.919917 0.299271
H180  H     H_    0.176825 0.018157 0.213706 0.296566
H181  H     H_    0.706835 0.389531 0.726753 0.098859
H182  H     H_    0.817668 0.492857 0.781762 0.043592
H183  H     H_    0.782964 0.401430 0.741876 0.084381
H184  H     H_    0.749424 0.386253 0.912359 0.073403
H185  H     H_    0.655067 0.582269 0.258506 0.116599
H186  H     H_    0.687132 0.534795 0.146357 0.134629
H187  H     H_    0.660452 0.514424 0.321037 0.126907
H188  H     H_    0.207469 0.886347 0.736168 0.103746
H189  H     H_    0.283359 0.898841 0.748586 0.085658
H190  H     H_    0.250548 0.884548 0.921069 0.068631
H191  H     H_    0.183909 0.108782 0.386780 0.097198
H192  H     H_    0.187659 0.044300 0.472977 0.119058
O1    O     O_2   0.888900 0.426190 0.854560 -0.486679
O2    O     O_3   0.037819 0.730570 0.563034 -0.651691
O3    O     O_3   0.536354 0.768512 0.052202 -0.649746
O4    O     O_3   0.535750 0.231320 0.552360 -0.650542
O5    O     O_3   0.064650 0.525760 0.074400 -0.496089
O6    O     O_3   0.064650 0.474240 0.574400 -0.495848
O7    O     O_3   0.564650 0.025760 0.074400 -0.496633
O8    O     O_3   0.564650 0.974240 0.574400 -0.496429
O9    O     O_3   0.935290 0.474120 0.115310 -0.494966
O10   O     O_3   0.935290 0.525880 0.615310 -0.497315
O11   O     O_3   0.435290 0.974120 0.115310 -0.492475
O12   O     O_2   0.888900 0.573810 0.354560 -0.461533
O13   O     O_3   0.435290 0.025880 0.615310 -0.497569
O14   O     O_3   0.980700 0.380570 0.633410 -0.507595
O15   O     O_3   0.980700 0.619430 0.133410 -0.511577
O16   O     O_3   0.480700 0.880570 0.633410 -0.508402
O17   O     O_3   0.480700 0.119430 0.133410 -0.512287
O18   O     O_2   0.891398 0.331869 0.723959 -0.499739
O19   O     O_2   0.888442 0.665445 0.226499 -0.470754
O20   O     O_2   0.391589 0.831640 0.723856 -0.500382
O21   O     O_2   0.391553 0.168258 0.223923 -0.470819
O22   O     O_3   0.820956 0.483422 0.021555 -0.671307
O23   O     O_2   0.388900 0.926190 0.854560 -0.487664
O24   O     O_3   0.826021 0.510370 0.510695 -0.624822
O25   O     O_3   0.321610 0.984187 0.020274 -0.657791
O26   O     O_3   0.322034 0.014837 0.511730 -0.672056
O27   O     O_3   0.967778 0.268320 0.628257 -0.606985
O28   O     O_3   0.956311 0.731402 0.109585 -0.625370
O29   O     O_3   0.468546 0.768240 0.629709 -0.606644
O30   O     O_3   0.467755 0.231650 0.126149 -0.611196
O31   O     O_2   0.110790 0.425640 0.834940 -0.408918
O32   O     O_2   0.110790 0.574360 0.334940 -0.404347
O33   O     O_2   0.610790 0.925640 0.834940 -0.408730
O34   O     O_2   0.388900 0.073810 0.354560 -0.435078
O35   O     O_2   0.610790 0.074360 0.334940 -0.408513
O36   O     O_3   0.018840 0.380480 0.055970 -0.461020
O37   O     O_3   0.018840 0.619520 0.555970 -0.473533
O38   O     O_3   0.518840 0.880480 0.055970 -0.461026
O39   O     O_3   0.518840 0.119520 0.555970 -0.465118
O40   O     O_2   0.113972 0.335770 0.994960 -0.483212
O41   O     O_2   0.113119 0.664115 0.487062 -0.479227
O42   O     O_2   0.614192 0.836170 0.994910 -0.483023
O43   O     O_2   0.613795 0.164234 0.492849 -0.483599
O44   O     O_3   0.703593 0.487032 0.689347 -0.747357
O45   O     O_3   0.184585 0.475917 0.678110 -0.661918
O46   O     O_3   0.733949 0.571878 0.510425 -0.716087
O47   O     O_3   0.202272 0.983230 0.694205 -0.792133
O48   O     O_3   0.278916 0.098787 0.258305 -0.724828
O49   O     O_3   0.699678 0.470127 0.947095 -0.785240
O50   O     O_3   0.764970 0.603472 0.293162 -0.763875
O51   O     O_3   0.200943 0.968324 0.953986 -0.722949
O52   O     O_3   0.207242 0.040229 0.177655 -0.711487
O53   O     O_3   0.993204 0.274265 0.276509 -0.798644
O54   O     O_3   0.033525 0.751028 0.819577 -0.803877
O55   O     O_3   0.494282 0.773580 0.276961 -0.798742
O56   O     O_3   0.184488 0.523668 0.179558 -0.663232
O57   O     O_3   0.492977 0.224962 0.775583 -0.798908
O58   O     O_3   0.142072 0.441438 0.111808 -0.693457
O59   O     O_3   0.142227 0.558372 0.612882 -0.697131
O60   O     O_3   0.642303 0.941549 0.111823 -0.693631
O61   O     O_3   0.642135 0.058499 0.612035 -0.693950
O62   O     O_3   0.684527 0.976106 0.678595 -0.661983
O63   O     O_3   0.684555 0.023867 0.179066 -0.662063
O64   O     O_3   0.035737 0.268530 0.052682 -0.650014
P1    P     P_3+3 0.883430 0.443490 0.026090 0.945102
P2    P     P_3+3 0.071269 0.668785 0.607041 0.952758
P3    P     P_3+3 0.569483 0.829902 0.106742 0.971777
P4    P     P_3+3 0.569517 0.170107 0.606011 0.969413
P5    P     P_3+3 0.925804 0.667682 0.095389 0.939944
P6    P     P_3+3 0.930110 0.329005 0.595881 0.956308
P7    P     P_3+3 0.430112 0.170957 0.095403 0.966808
P8    P     P_3+3 0.430522 0.828710 0.596309 0.955132
P9    P     P_3+3 0.883430 0.556510 0.526090 1.008805
P10   P     P_3+3 0.383430 0.943490 0.026090 0.945312
P11   P     P_3+3 0.383430 0.056510 0.526090 0.984014
P12   P     P_3+3 0.116320 0.442910 0.663460 0.985869
P13   P     P_3+3 0.116320 0.557090 0.163460 0.989921
P14   P     P_3+3 0.616320 0.942910 0.663460 0.985412
P15   P     P_3+3 0.616320 0.057090 0.163460 0.985509
P16   P     P_3+3 0.069279 0.329760 0.106957 0.971390

loop_
_geom_bond_atom_site_label_1
_geom_bond_atom_site_label_2
_ccdc_geom_bond_type
C95   C99   S    
C29   H72   S    
C51   C55   A    
O25   P10   S    
O27   P6    S    
H100  O58   S    
C70   C79   S    
C103  C125  S    
C11   H15   S    
C59   P14   S    
C100  C119  A    
O8    P14   S    
C121  H135  S    
C110  O51   S    
C74   H130  S    
O38   P3    S    
Ba4   O39   S    
C80   C82   T    
O28   P5    S    
O29   P8    S    
O62   P14   S    
C131  H165  S    
C108  O44   S    
Ba3   P14   S    
C76   O57   S    
C48   C118  A    
C37   H95   S    
C3    H170  S    
C74   C92   S    
C31   H78   S    
C63   C90   A    
C32   C93   S    
Ba2   O32   S    
C31   H80   S    
C18   C65   S    
C114  H105  S    
Ba1   O1    S    
C108  O49   S    
Ba2   O5    S    
H176  O48   S    
C69   C77   S    
C27   H64   S    
O39   P4    S    
C114  H46   S    
H179  O51   S    
C3    C107  S    
C1    C8    S    
C101  C127  S    
O5    P13   S    
Ba1   O36   S    
C16   H27   S    
C1    H124  S    
C17   H30   S    
C74   O2    S    
C122  H115  S    
C15   H26   S    
C34   H87   S    
C102  C128  S    
C107  H24   S    
C12   H19   S    
C132  H168  S    
C96   O59   S    
C65   C70   A    
C76   O4    S    
O42   P3    D    
C18   H34   S    
C30   H76   S    
C130  H161  S    
H174  O46   S    
C20   H42   S    
C47   C117  A    
C25   H53   S    
C43   H112  S    
C20   H40   S    
C111  P11   S    
C14   H20   S    
O14   P6    S    
O7    P15   S    
C67   H128  S    
C61   C87   A    
C86   H120  S    
C5    H186  S    
C75   C93   S    
C99   H138  S    
C123  H139  S    
C32   H81   S    
C36   C96   S    
C89   P9    S    
C43   C48   A    
C21   C117  S    
C4    H181  S    
Ba2   P13   S    
C33   H85   S    
C14   H21   S    
C62   C66   A    
C41   C46   A    
C28   H67   S    
C42   C47   A    
C22   H49   S    
C99   C126  S    
C77   C84   T    
C58   P15   S    
H177  O49   S    
O56   P13   S    
C121  H133  S    
C128  H153  S    
O15   P5    S    
C33   H84   S    
Ba4   P11   S    
C39   C43   A    
C63   P3    S    
O16   P8    S    
C40   C44   A    
C74   O54   S    
C98   O62   S    
C105  C131  S    
C106  C132  S    
C9    H9    S    
C15   C93   S    
C21   H44   S    
C54   C72   A    
C19   H38   S    
H175  O47   S    
C31   C92   S    
O24   P9    S    
C59   C90   A    
C17   H32   S    
C60   C64   A    
C71   C80   S    
C27   C92   S    
C1    H79   S    
C25   C120  S    
C8    H5    S    
C56   C115  S    
C63   C68   A    
C130  H162  S    
C9    H8    S    
C116  O30   S    
H180  O52   S    
C30   H74   S    
C95   O58   S    
C90   H123  S    
C8    H6    S    
C25   H55   S    
C104  O22   S    
C106  C110  S    
O21   P7    D    
H173  O44   S    
C76   C94   S    
C9    H7    S    
C52   H108  S    
C19   C66   S    
Ba4   O11   S    
C123  H137  S    
C32   H83   S    
C124  H142  S    
C33   C94   S    
O64   P16   S    
O31   P12   D    
O4    P4    S    
C44   C49   A    
C79   C85   T    
C13   H118  S    
C101  C123  S    
C4    H183  S    
C56   H126  S    
Ba3   P10   S    
Ba1   P12   S    
C62   C88   A    
O17   P7    S    
C10   H11   S    
C101  H149  S    
Ba4   O17   S    
C2    H117  S    
C105  H2    S    
C115  H57   S    
C36   H92   S    
C126  H147  S    
C131  H163  S    
Ba3   O13   S    
Ba1   O5    S    
C38   H99   S    
C116  H127  S    
Ba3   O7    S    
C128  H155  S    
C98   C103  S    
C129  H158  S    
Ba3   O33   S    
C26   H62   S    
C78   P1    S    
C17   C64   S    
C12   H18   S    
H60   O57   S    
C116  H68   S    
O30   P7    S    
C115  O29   S    
Ba3   Ba4   S    
H103  O60   S    
O10   P9    S    
C20   C68   S    
C97   C102  S    
C29   H71   S    
C52   C57   A    
H58   O54   S    
C67   H106  S    
C10   C56   S    
C121  H134  S    
C5    C109  S    
C53   C71   A    
C105  O24   S    
O1    P1    D    
C72   C81   S    
C55   P13   S    
C99   C121  S    
C55   C86   A    
C51   C69   A    
C16   C94   S    
C37   H94   S    
C3    H169  S    
Ba4   O7    S    
C66   C71   A    
C7    H192  S    
C113  O27   S    
C56   H101  S    
C36   H93   S    
C106  O25   S    
Ba2   O6    S    
C24   H119  S    
C60   C86   A    
O12   P9    D    
C46   C50   A    
C51   H107  S    
C13   C100  A    
C4    C108  S    
C127  H152  S    
C38   H97   S    
C132  H166  S    
C19   H39   S    
O26   P11   S    
C16   H28   S    
C102  C124  S    
C73   O53   S    
C125  H144  S    
C15   H25   S    
C34   H88   S    
C44   H113  S    
Ba4   P15   S    
C7    H3    S    
C78   C122  A    
C27   H66   S    
C8    H4    S    
C107  C112  S    
C6    H188  S    
C41   C85   S    
C6    C110  S    
O6    P12   S    
O35   P15   D    
C22   H47   S    
C61   P16   S    
H102  O59   S    
C35   C122  A    
C76   H132  S    
O23   P10   D    
C11   H16   S    
C5    H185  S    
H178  O50   S    
C52   C70   A    
C109  O46   S    
C6    H189  S    
C53   C58   A    
C30   C91   S    
C32   H82   S    
C45   H125  S    
Ba2   O9    S    
Ba3   O23   S    
C96   O45   S    
C103  H171  S    
O34   P11   D    
C104  C108  S    
C97   O60   S    
Ba2   O37   S    
C104  C130  S    
C26   C91   S    
C87   H121  S    
C24   C111  A    
C113  H35   S    
C37   H96   S    
C54   H110  S    
C2    C89   A    
C60   P2    S    
C89   C118  A    
C7    C112  S    
C31   H77   S    
C34   H89   S    
C57   P12   S    
C2    C39   A    
C128  H154  S    
Ba3   O38   S    
C50   C120  A    
C111  C120  A    
C114  O28   S    
C109  O50   S    
C34   C95   S    
C102  H160  S    
C42   H111  S    
C127  H150  S    
C88   H122  S    
C21   H43   S    
C19   H37   S    
C11   C67   S    
Ba1   O31   S    
C17   H31   S    
C15   H23   S    
C50   P7    S    
C13   C40   A    
C103  C129  S    
C61   C65   A    
C73   H129  S    
C75   O3    S    
C23   H52   S    
C97   O63   S    
Ba4   O35   S    
C18   H33   S    
C30   H75   S    
C20   H41   S    
O22   P1    S    
C25   H54   S    
C22   C118  S    
C35   C82   S    
C28   H69   S    
C115  H116  S    
C11   H14   S    
O19   P5    D    
C5    H187  S    
C14   C92   S    
C68   C72   A    
C106  H13   S    
Ba2   O15   S    
O9    P1    S    
O33   P14   D    
O2    P2    S    
C104  H182  S    
C96   C101  S    
C67   C116  S    
C4    H184  S    
O45   P12   S    
C14   H22   S    
C33   H86   S    
Ba1   Ba2   S    
C47   P6    S    
C10   H12   S    
Ba1   P1    S    
C28   C93   S    
C29   C94   S    
Ba1   O14   S    
C75   O55   S    
C130  H159  S    
C124  H140  S    
C126  H148  S    
Ba3   O16   S    
O36   P16   S    
C16   H29   S    
C29   H73   S    
C58   C88   A    
C75   H131  S    
O40   P16   D    
C95   O56   S    
C129  H157  S    
C112  O52   S    
C78   C117  A    
C48   P5    S    
C37   C97   S    
C105  C109  S    
C49   P8    S    
C26   H63   S    
C98   O61   S    
O20   P8    D    
C38   C98   S    
C21   H45   S    
C81   C83   T    
C24   C41   A    
C129  H156  S    
H56   O53   S    
C62   P4    S    
C53   H109  S    
C49   C119  A    
C23   C119  S    
C23   H51   S    
C64   C69   A    
C107  O26   S    
C73   C91   S    
C1    C113  S    
O37   P2    S    
C23   H50   S    
O32   P13   D    
O11   P10   S    
Ba2   O12   S    
C45   C114  S    
Ba2   P9    S    
C125  H145  S    
O18   P6    D    
C112  O48   S    
C35   C42   A    
C9    C45   S    
C3    H172  S    
Ba4   O8    S    
C123  H136  S    
C7    H191  S    
C124  H141  S    
C54   C59   A    
C12   C91   S    
C6    H190  S    
C113  H1    S    
O13   P11   S    
C46   H114  S    
C73   O64   S    
H59   O55   S    
C10   H10   S    
C110  O47   S    
H104  O61   S    
C39   C83   S    
C36   H91   S    
Ba1   O10   S    
C126  H146  S    
O3    P3    S    
C131  H164  S    
C127  H151  S    
Ba1   O6    S    
C38   H98   S    
Ba4   O34   S    
O63   P15   S    
Ba3   O8    S    
C125  H143  S    
C27   H65   S    
C132  H167  S    
C100  P10   S    
C26   H61   S    
O43   P4    D    
C12   H17   S    
O41   P2    D    
C45   H90   S    
C40   C84   S    
C28   H70   S    
C18   H36   S    
C57   C87   A    
C22   H48   S    
