data_mof_unit_43576.cif
_audit_creation_date              2012-12-10T16:54:57-0500
_audit_creation_method            fapswitch 2.2
_symmetry_space_group_name_H-M    P1
_symmetry_Int_Tables_number       1
_space_group_crystal_system       triclinic
_cell_length_a                    7.805994
_cell_length_b                    8.582279
_cell_length_c                    15.731673
_cell_angle_alpha                 91.557433
_cell_angle_beta                  85.298321
_cell_angle_gamma                 93.44825
_cell_volume                      1048.20506439

loop_
_atom_site_label
_atom_site_type_symbol
_atom_type_description
_atom_site_fract_x
_atom_site_fract_y
_atom_site_fract_z
_atom_type_partial_charge
C1    C     C_R   0.544537 0.794195 0.494454 0.967201
C2    C     C_3   0.355633 0.614196 0.056575 0.121325
C3    C     C_3   0.492553 0.501932 0.083427 -0.171912
C4    C     C_3   0.463565 0.330723 0.047706 0.161321
C5    C     C_3   0.445152 0.334137 0.950115 0.175229
C6    C     C_1   0.494450 0.500834 0.174805 0.160326
C7    C     C_1   0.499397 0.501855 0.825576 0.152580
C8    C     C_1   0.502551 0.500793 0.750195 -0.095054
C9    C     C_2   0.565144 0.957668 0.493241 -0.428981
C10   C     C_2   0.429616 0.043638 0.484311 0.224208
C11   C     C_R   0.501092 0.500223 0.661476 0.865035
C12   C     C_R   0.454348 0.205683 0.498066 0.875252
C13   C     C_R   0.498801 0.499701 0.338543 0.894904
C14   C     C_3   0.363682 0.624826 0.956765 0.689676
C15   C     C_3   0.675753 0.553129 0.944812 -0.503437
C16   C     C_3   0.673515 0.562756 0.043421 0.183087
C17   C     C_1   0.496179 0.500173 0.249945 -0.024059
C18   C     C_3   0.492566 0.503341 0.917382 -0.049776
H1    H     H_    0.390624 0.732321 0.082880 0.214703
H2    H     H_    0.583728 0.270553 0.055590 0.160051
H3    H     H_    0.690558 0.008282 0.508244 0.192435
H4    H     H_    0.986621 0.617590 0.564551 0.173243
H5    H     H_    0.768582 0.466072 0.919796 0.199550
H6    H     H_    0.723650 0.666432 0.916345 0.303239
H7    H     H_    0.773658 0.487433 0.063410 0.191219
H8    H     H_    0.541723 0.256009 0.918790 0.160913
N1    N     N_2   0.950340 0.457950 0.477370 0.106160
N2    N     N_2   0.049660 0.542050 0.522630 -0.093376
O1    O     O_R   0.389240 0.738570 0.505550 -0.568345
O2    O     O_R   0.678400 0.711630 0.491050 -0.623729
O3    O     O_R   0.355360 0.513470 0.630110 -0.602038
O4    O     O_R   0.644510 0.486530 0.615610 -0.643265
O5    O     O_R   0.321600 0.288370 0.508950 -0.550406
O6    O     O_R   0.610760 0.261430 0.494450 -0.625468
O7    O     O_R   0.355490 0.513470 0.384390 -0.553378
O8    O     O_R   0.644640 0.486530 0.369890 -0.583023
Zn1   Zn    Zn3+2 0.306930 0.517990 0.509680 1.104576
Zn2   Zn    Zn3+2 0.693070 0.482010 0.490320 1.072695
Cl1   Cl    Cl    0.155235 0.596753 0.913870 -0.553355
Cl2   Cl    Cl    0.143033 0.577526 0.108015 -0.525639
Cl3   Cl    Cl    0.227908 0.975349 0.447528 -0.478303
Cl4   Cl    Cl    0.039527 0.328124 0.403450 -0.353479
O9    O     O_3   0.429154 0.775517 0.932955 -0.735069
H9    H     H_    0.343342 0.850656 0.954993 0.391760
Cl5   Cl    Cl    0.736655 0.757114 0.079118 -0.453529
O10   O     O_3   0.284130 0.273083 0.926029 -0.662798
H10   H     H_    0.192247 0.314813 0.965662 0.397054
O11   O     O_3   0.333415 0.237319 0.092543 -0.658458
H11   H     H_    0.229267 0.296365 0.103106 0.399132

loop_
_geom_bond_atom_site_label_1
_geom_bond_atom_site_label_2
_ccdc_geom_bond_type
C16   Cl5   S    
C15   C18   S    
O9    H9    S    
O4    Zn2   S    
C9    C10   D    
C14   C18   S    
C13   C17   S    
C3    C6    S    
C15   H5    S    
C7    C18   S    
C1    O1    A    
C2    C3    S    
C14   Cl1   S    
C11   O3    A    
C7    C8    T    
H4    N2    S    
C10   Cl3   S    
N1    Cl4   S    
C9    H3    S    
C10   C12   S    
N2    Zn1   S    
C8    C11   S    
O8    Zn2   S    
O11   H11   S    
O7    Zn1   S    
C11   O4    A    
C13   O7    A    
C4    O11   S    
C2    C14   S    
C3    C16   S    
N1    Zn2   S    
C12   O6    A    
C5    H8    S    
C4    H2    S    
C2    Cl2   S    
N1    N2    D    
C1    C9    S    
O2    Zn2   S    
C13   O8    A    
C14   O9    S    
C5    O10   S    
O1    Zn1   S    
C16   H7    S    
C6    C17   T    
O10   H10   S    
C1    O2    A    
C5    C18   S    
C12   O5    A    
C2    H1    S    
C15   H6    S    
O5    Zn1   S    
C3    C4    S    
C15   C16   S    
O3    Zn1   S    
C4    C5    S    
O6    Zn2   S    
