data_mof_unit_19821.cif
_audit_creation_date              2012-10-26T19:03:29-0400
_audit_creation_method            fapswitch 2.2
_symmetry_space_group_name_H-M    P1
_symmetry_Int_Tables_number       1
_space_group_crystal_system       triclinic
_cell_length_a                    10.850718
_cell_length_b                    13.023601
_cell_length_c                    11.771673
_cell_angle_alpha                 99.424015
_cell_angle_beta                  92.634136
_cell_angle_gamma                 93.219883
_cell_volume                      1635.90577975

loop_
_atom_site_label
_atom_site_type_symbol
_atom_type_description
_atom_site_fract_x
_atom_site_fract_y
_atom_site_fract_z
_atom_type_partial_charge
C1    C     C_R   0.499854 0.299477 0.478991 0.571567
C2    C     C_R   0.498909 0.124562 0.358414 -0.046670
C3    C     C_R   0.504848 0.139623 0.566484 -0.089456
C4    C     C_R   0.263407 0.510907 0.502662 0.582900
C5    C     C_R   0.503278 0.031363 0.557140 0.016173
C6    C     C_R   0.493597 0.969089 0.445769 0.012482
C7    C     C_R   0.487680 0.860911 0.436291 -0.079097
C8    C     C_R   0.510127 0.875582 0.644034 -0.068098
C9    C     C_R   0.510948 0.983652 0.656283 0.251221
C10   C     C_R   0.395031 0.386186 0.024451 0.007977
C11   C     C_R   0.399665 0.403033 0.146450 0.169318
C12   C     C_R   0.066624 0.511858 0.608235 -0.051984
C13   C     C_R   0.550350 0.544826 0.154544 0.170664
C14   C     C_R   0.550218 0.530508 0.030993 0.008705
C15   C     C_R   0.464317 0.455219 0.965303 -0.034899
C16   C     C_R   0.500438 0.700595 0.521327 0.543405
C17   C     C_R   0.450322 0.453752 0.843064 0.359417
C18   C     C_R   0.615221 0.582184 0.850609 0.071553
C19   C     C_R   0.633719 0.587365 0.969635 0.241091
C20   C     C_R   0.736820 0.490172 0.497523 0.541827
C21   C     C_R   0.123083 0.538243 0.720983 -0.059091
C22   C     C_R   0.066496 0.508156 0.815684 0.318372
C23   C     C_R   0.128997 0.523075 0.507087 0.006633
C24   C     C_R   0.952783 0.450535 0.798901 0.293538
C25   C     C_R   0.890766 0.434422 0.690416 -0.093971
C26   C     C_R   0.941741 0.475014 0.597038 -0.048434
C27   C     C_2   0.326192 0.290050 0.962341 0.365029
C28   C     C_2   0.317168 0.336307 0.204659 0.369074
C29   C     C_2   0.617779 0.637152 0.223733 0.348317
C30   C     C_2   0.870298 0.479370 0.276934 0.320534
C31   C     C_R   0.059560 0.526408 0.403437 0.174705
C32   C     C_R   0.933113 0.497689 0.394051 -0.003506
C33   C     C_R   0.871670 0.480009 0.493644 -0.012088
C34   C     C_R   0.499062 0.813983 0.534282 -0.051382
C35   C     C_R   0.501255 0.186265 0.467602 -0.045523
C36   C     C_R   0.491838 0.016632 0.346477 0.255778
Cl1   Cl    Cl    0.127598 0.573860 0.285682 -0.496406
Cl2   Cl    Cl    0.524707 0.055402 0.797539 -0.519963
Cl3   Cl    Cl    0.335013 0.372654 0.755750 -0.551121
Cl4   Cl    Cl    0.774893 0.652830 0.029367 -0.465593
Cl5   Cl    Cl    0.141505 0.541429 0.953640 -0.400730
Cl6   Cl    Cl    0.883766 0.400989 0.912801 -0.417309
Cl7   Cl    Cl    0.483047 0.945269 0.205062 -0.408280
Cu1   Cu    Cu3+1 0.509250 0.507730 0.615930 1.030304
Cu2   Cu    Cu3+1 0.490750 0.492270 0.384070 1.052281
H1    H     H_    0.502731 0.159930 0.281701 0.224099
H2    H     H_    0.681391 0.630500 0.294818 0.123201
H3    H     H_    0.882899 0.535853 0.219526 0.201284
H4    H     H_    0.509020 0.188218 0.650586 0.214159
H5    H     H_    0.677905 0.626142 0.804861 0.170541
H6    H     H_    0.209127 0.585340 0.737930 0.184796
H7    H     H_    0.803269 0.388858 0.679715 0.174066
H8    H     H_    0.474441 0.812562 0.352612 0.236463
H9    H     H_    0.518181 0.839921 0.720761 0.190393
H10   H     H_    0.373874 0.234184 0.904245 0.186212
H11   H     H_    0.237823 0.367379 0.247016 0.175930
N1    N     N_R   0.523180 0.519350 0.790130 -0.261558
N2    N     N_R   0.476820 0.480650 0.209890 -0.285664
O1    O     O_R   0.506570 0.354460 0.582000 -0.464389
O2    O     O_2   0.330763 0.243110 0.196450 -0.480988
O3    O     O_2   0.601514 0.723834 0.201539 -0.420411
O4    O     O_2   0.808391 0.398176 0.241754 -0.425135
O5    O     O_R   0.490940 0.341410 0.386200 -0.493549
O6    O     O_R   0.327470 0.506530 0.597920 -0.467355
O7    O     O_R   0.311840 0.493480 0.402120 -0.486220
O8    O     O_R   0.509060 0.658590 0.613800 -0.515394
O9    O     O_R   0.493430 0.645540 0.418000 -0.510995
O10   O     O_R   0.688160 0.506520 0.597880 -0.530116
O11   O     O_R   0.672530 0.493470 0.402080 -0.511427
O12   O     O_2   0.215826 0.273925 0.973796 -0.367206

loop_
_geom_bond_atom_site_label_1
_geom_bond_atom_site_label_2
_ccdc_geom_bond_type
C2    C35   A    
Cu2   O9    S    
Cu1   Cu2   S    
C5    C9    A    
C6    C7    A    
C11   N2    A    
C24   Cl6   S    
C4    O6    A    
C26   C33   A    
Cu1   O8    S    
C31   C32   A    
C10   C27   S    
C3    C35   A    
Cu1   N1    S    
C32   C33   A    
C1    O1    A    
C3    H4    S    
C25   H7    S    
C16   O9    A    
C8    C34   A    
C21   C22   A    
C2    H1    S    
C30   C32   S    
C12   C23   A    
C1    C35   S    
C4    O7    A    
C27   O12   D    
C11   C28   S    
C29   H2    S    
C20   C33   S    
C1    O5    A    
C22   C24   A    
C13   C29   S    
C9    Cl2   S    
C12   C26   A    
C6    C36   A    
C27   H10   S    
C10   C15   A    
C28   O2    D    
C30   O4    D    
Cu2   O7    S    
C5    C6    A    
Cu2   N2    S    
C7    C34   A    
C29   O3    D    
C20   O11   A    
Cu1   O10   S    
C22   Cl5   S    
C16   O8    A    
C10   C11   A    
C7    H8    S    
Cu1   O1    S    
C8    H9    S    
C12   C21   A    
C20   O10   A    
C21   H6    S    
C2    C36   A    
C24   C25   A    
C18   H5    S    
C18   C19   A    
C19   Cl4   S    
C30   H3    S    
C15   C17   A    
C4    C23   S    
C17   Cl3   S    
C14   C15   A    
C36   Cl7   S    
C13   N2    A    
C18   N1    A    
C16   C34   S    
C25   C26   A    
C13   C14   A    
Cu2   O11   S    
C14   C19   A    
Cu2   O5    S    
Cu1   O6    S    
C28   H11   S    
C31   Cl1   S    
C17   N1    A    
C8    C9    A    
C3    C5    A    
C23   C31   A    
