data_mof_unit_5713.cif
_audit_creation_date              2012-12-11T16:07:14-0500
_audit_creation_method            fapswitch 2.2
_symmetry_space_group_name_H-M    P1
_symmetry_Int_Tables_number       1
_space_group_crystal_system       triclinic
_cell_length_a                    17.126557
_cell_length_b                    17.125701
_cell_length_c                    17.308977
_cell_angle_alpha                 89.999149
_cell_angle_beta                  89.99953
_cell_angle_gamma                 89.999857
_cell_volume                      5076.79728401

loop_
_atom_site_label
_atom_site_type_symbol
_atom_type_description
_atom_site_fract_x
_atom_site_fract_y
_atom_site_fract_z
_atom_type_partial_charge
C1    C     C_R   0.423949 0.667339 0.647339 -0.038849
C2    C     C_R   0.604900 0.698010 0.607364 -0.148230
C3    C     C_3   0.715936 0.251619 0.721676 0.794835
C4    C     C_3   0.775275 0.808536 0.365571 0.859780
C5    C     C_3   0.191241 0.224950 0.634448 0.859963
C6    C     C_3   0.748466 0.284158 0.278280 0.794788
C7    C     C_3   0.284061 0.748388 0.721676 0.794866
C8    C     C_3   0.751480 0.784203 0.778255 0.794842
C9    C     C_3   0.215951 0.248383 0.221662 0.794885
C10   C     C_3   0.724892 0.308713 0.865568 0.859828
C11   C     C_3   0.308773 0.724957 0.134445 0.859976
C12   C     C_3   0.248430 0.215890 0.778295 0.794851
C13   C     C_R   0.667343 0.423939 0.352663 -0.038798
C14   C     C_3   0.783844 0.751772 0.221525 0.795051
C15   C     C_3   0.275103 0.691279 0.865564 0.859899
C16   C     C_3   0.691213 0.274994 0.134464 0.859885
C17   C     C_R   0.330908 0.575512 0.646002 -0.085243
C18   C     C_R   0.606736 0.697809 0.393232 -0.137832
C19   C     C_R   0.395099 0.301994 0.607377 -0.148230
C20   C     C_R   0.332655 0.576060 0.352665 -0.038801
C21   C     C_R   0.669087 0.424489 0.646004 -0.085244
C22   C     C_R   0.895103 0.198006 0.107378 -0.148211
C23   C     C_R   0.106767 0.802179 0.893286 -0.137968
C24   C     C_R   0.169091 0.075512 0.146002 -0.085230
C25   C     C_R   0.575516 0.330898 0.354005 -0.085355
C26   C     C_R   0.832651 0.923931 0.852667 -0.038721
C27   C     C_R   0.104903 0.801991 0.107370 -0.148151
C28   C     C_R   0.893234 0.197820 0.893282 -0.137984
C29   C     C_R   0.830932 0.924497 0.146017 -0.085034
C30   C     C_R   0.167343 0.076057 0.852663 -0.038791
C31   C     C_R   0.924479 0.830887 0.854013 -0.085413
C32   C     C_R   0.076051 0.167341 0.147338 -0.038864
C33   C     C_R   0.197999 0.895099 0.892612 -0.148248
C34   C     C_R   0.802182 0.106774 0.106706 -0.138034
C35   C     C_R   0.075516 0.169100 0.854002 -0.085328
C36   C     C_R   0.697820 0.606778 0.606695 -0.138006
C37   C     C_R   0.923968 0.832668 0.147342 -0.038992
C38   C     C_R   0.802003 0.104898 0.892606 -0.148243
C39   C     C_R   0.197821 0.893225 0.106697 -0.138007
C40   C     C_3   0.264163 0.266797 0.335690 -0.162903
C41   C     C_3   0.733200 0.735865 0.664256 -0.162967
C42   C     C_3   0.327470 0.675934 0.249461 -0.155519
C43   C     C_3   0.675911 0.327472 0.750546 -0.155447
C44   C     C_3   0.735785 0.733196 0.335593 -0.162978
C45   C     C_3   0.266795 0.264140 0.664273 -0.162896
C46   C     C_3   0.672529 0.324059 0.249464 -0.155417
C47   C     C_R   0.302005 0.395102 0.392601 -0.148225
C48   C     C_3   0.324082 0.672530 0.750540 -0.155485
C49   C     C_3   0.827465 0.824039 0.749476 -0.155508
C50   C     C_3   0.175921 0.172533 0.250536 -0.155475
C51   C     C_3   0.764151 0.233205 0.835704 -0.162833
C52   C     C_3   0.233208 0.764136 0.164261 -0.162900
C53   C     C_3   0.172530 0.175932 0.749462 -0.155493
C54   C     C_3   0.824104 0.827453 0.250513 -0.155423
C55   C     C_3   0.235848 0.766792 0.835707 -0.162892
C56   C     C_3   0.766804 0.235862 0.164275 -0.162831
C57   C     C_R   0.365947 0.631935 0.690512 0.117015
C58   C     C_R   0.576047 0.332662 0.647341 -0.038860
C59   C     C_R   0.631945 0.365925 0.309498 0.117039
C60   C     C_R   0.680665 0.682434 0.626375 0.203382
C61   C     C_R   0.317596 0.319341 0.373565 0.203274
C62   C     C_R   0.634046 0.368067 0.690516 0.117005
C63   C     C_R   0.368053 0.634072 0.309498 0.117037
C64   C     C_R   0.319336 0.317575 0.626396 0.203315
C65   C     C_R   0.682363 0.680643 0.373472 0.203187
C66   C     C_R   0.819341 0.182426 0.126398 0.203314
C67   C     C_R   0.182413 0.819336 0.873582 0.203280
C68   C     C_R   0.134053 0.131936 0.190511 0.117019
C69   C     C_R   0.424479 0.669105 0.354005 -0.085338
C70   C     C_R   0.868044 0.865906 0.809510 0.117025
C71   C     C_R   0.180667 0.817571 0.126384 0.203320
C72   C     C_R   0.817589 0.180661 0.873575 0.203264
C73   C     C_R   0.865989 0.868083 0.190532 0.117008
C74   C     C_R   0.131942 0.134067 0.809495 0.117022
C75   C     C_3   0.776331 0.709204 0.737589 -0.135989
C76   C     C_3   0.188045 0.290437 0.294440 -0.195914
C77   C     C_3   0.648671 0.284406 0.823513 -0.137760
C78   C     C_3   0.351091 0.752085 0.208450 -0.215003
C79   C     C_3   0.223537 0.290819 0.737527 -0.135994
C80   C     C_R   0.302180 0.393227 0.606703 -0.137992
C81   C     C_3   0.811774 0.709477 0.294156 -0.196064
C82   C     C_3   0.351324 0.715587 0.823510 -0.137790
C83   C     C_3   0.648930 0.247878 0.208494 -0.214925
C84   C     C_3   0.715469 0.351289 0.176422 -0.137692
C85   C     C_3   0.247974 0.648878 0.791605 -0.214943
C86   C     C_3   0.709084 0.776768 0.262528 -0.135965
C87   C     C_3   0.290406 0.187983 0.705475 -0.195892
C88   C     C_3   0.284496 0.648691 0.176444 -0.137729
C89   C     C_3   0.752018 0.351123 0.791611 -0.214903
C90   C     C_3   0.290840 0.223461 0.262479 -0.135979
C91   C     C_R   0.697977 0.604894 0.392554 -0.148339
C92   C     C_3   0.709631 0.812091 0.705356 -0.195913
C93   C     C_3   0.252026 0.148878 0.291602 -0.214931
C94   C     C_3   0.784603 0.851264 0.676389 -0.137775
C95   C     C_3   0.209601 0.687972 0.205455 -0.195889
C96   C     C_3   0.790827 0.276538 0.762491 -0.135999
C97   C     C_3   0.748126 0.851191 0.291759 -0.214968
C98   C     C_3   0.215521 0.148690 0.676455 -0.137757
C99   C     C_3   0.790391 0.312053 0.205425 -0.195874
C100  C     C_3   0.209169 0.723469 0.762491 -0.135963
C101  C     C_3   0.311968 0.790430 0.794459 -0.195905
C102  C     C_R   0.393238 0.302182 0.393278 -0.137946
C103  C     C_3   0.723597 0.209195 0.237563 -0.136049
C104  C     C_3   0.148906 0.252078 0.708444 -0.214937
C105  C     C_3   0.851362 0.784145 0.323331 -0.137790
C106  C     C_3   0.688031 0.209568 0.794457 -0.195903
C107  C     C_3   0.276450 0.790815 0.237524 -0.135963
C108  C     C_3   0.851045 0.747823 0.708559 -0.214985
C109  C     C_3   0.148682 0.215602 0.323500 -0.137789
C110  C     C_3   0.224900 0.191292 0.365556 0.859906
C111  C     C_3   0.808841 0.774932 0.634486 0.860197
C112  C     C_3   0.251560 0.715879 0.278284 0.794876
F1    F     F_    0.230880 0.161496 0.439467 -0.664310
F2    F     F_    0.212754 0.278794 0.147631 -0.691685
F3    F     F_    0.730866 0.338501 0.939482 -0.664423
F4    F     F_    0.338627 0.730997 0.060562 -0.664280
F5    F     F_    0.278892 0.212639 0.852302 -0.691692
F6    F     F_    0.786854 0.721555 0.147409 -0.691582
F7    F     F_    0.269123 0.661480 0.939474 -0.664340
F8    F     F_    0.661346 0.268913 0.060590 -0.664341
F9    F     F_    0.838786 0.768779 0.560650 -0.664029
F10   F     F_    0.221084 0.712622 0.352286 -0.691661
F11   F     F_    0.712738 0.221205 0.647647 -0.691739
F12   F     F_    0.769486 0.838166 0.439561 -0.664238
F13   F     F_    0.161395 0.230984 0.560562 -0.664271
F14   F     F_    0.778964 0.287459 0.352271 -0.691739
F15   F     F_    0.287260 0.778807 0.647647 -0.691681
F16   F     F_    0.720929 0.787557 0.852223 -0.691683
H1    H     H_    0.458363 0.717556 0.663596 0.090185
H2    H     H_    0.576821 0.754393 0.604661 0.119582
H3    H     H_    0.717561 0.458348 0.336401 0.090269
H4    H     H_    0.280442 0.540696 0.660108 0.109391
H5    H     H_    0.580013 0.754992 0.394973 0.102678
H6    H     H_    0.423173 0.245607 0.604677 0.119644
H7    H     H_    0.282440 0.541648 0.336405 0.090247
H8    H     H_    0.719551 0.459307 0.660112 0.109379
H9    H     H_    0.923178 0.254391 0.104677 0.119629
H10   H     H_    0.080042 0.744996 0.895019 0.102765
H11   H     H_    0.219557 0.040695 0.160108 0.109392
H12   H     H_    0.540695 0.280433 0.339904 0.109468
H13   H     H_    0.782437 0.958344 0.836402 0.090312
H14   H     H_    0.076831 0.745605 0.104667 0.119579
H15   H     H_    0.919957 0.255004 0.895016 0.102778
H16   H     H_    0.780456 0.959301 0.160132 0.109315
H17   H     H_    0.217559 0.041645 0.836404 0.090230
H18   H     H_    0.959303 0.780422 0.839920 0.109450
H19   H     H_    0.041640 0.217559 0.163594 0.090186
H20   H     H_    0.254385 0.923169 0.895312 0.119706
H21   H     H_    0.745001 0.080047 0.104983 0.102854
H22   H     H_    0.040697 0.219567 0.839899 0.109421
H23   H     H_    0.755001 0.580049 0.604974 0.102872
H24   H     H_    0.958372 0.782442 0.163586 0.090018
H25   H     H_    0.745617 0.076826 0.895301 0.119760
H26   H     H_    0.255001 0.919952 0.104966 0.102825
H27   H     H_    0.802220 0.634764 0.825176 0.157700
H28   H     H_    0.802615 0.593445 0.737638 0.098371
H29   H     H_    0.099372 0.362346 0.262893 0.124567
H30   H     H_    0.187520 0.404672 0.262989 0.133179
H31   H     H_    0.569094 0.252316 0.904240 0.190610
H32   H     H_    0.531567 0.267660 0.815982 0.108394
H33   H     H_    0.426132 0.836782 0.173602 0.128414
H34   H     H_    0.245618 0.423173 0.395293 0.119727
H35   H     H_    0.466663 0.748183 0.183537 0.152185
H36   H     H_    0.197490 0.365297 0.825038 0.157658
H37   H     H_    0.197071 0.406539 0.737465 0.098385
H38   H     H_    0.900045 0.637378 0.261996 0.124765
H39   H     H_    0.811802 0.595259 0.262659 0.133064
H40   H     H_    0.430904 0.747662 0.904236 0.190633
H41   H     H_    0.468429 0.732327 0.815976 0.108495
H42   H     H_    0.573990 0.162988 0.173897 0.128230
H43   H     H_    0.533397 0.251606 0.183388 0.152149
H44   H     H_    0.747339 0.430837 0.095579 0.190648
H45   H     H_    0.541634 0.282445 0.663599 0.090189
H46   H     H_    0.732086 0.468424 0.183828 0.108233
H47   H     H_    0.163386 0.573776 0.826573 0.128434
H48   H     H_    0.252005 0.533319 0.816573 0.152040
H49   H     H_    0.634521 0.803301 0.175241 0.157533
H50   H     H_    0.593465 0.803640 0.262899 0.098394
H51   H     H_    0.362278 0.099284 0.737021 0.124616
H52   H     H_    0.404678 0.187396 0.736769 0.133097
H53   H     H_    0.252540 0.569112 0.095667 0.190597
H54   H     H_    0.267865 0.531561 0.183919 0.108387
H55   H     H_    0.836632 0.426215 0.826543 0.128386
H56   H     H_    0.459289 0.719578 0.339904 0.109449
H57   H     H_    0.748000 0.466668 0.816640 0.151991
H58   H     H_    0.365336 0.197277 0.175024 0.157634
H59   H     H_    0.406536 0.196904 0.262614 0.098365
H60   H     H_    0.637841 0.900923 0.736709 0.124597
H61   H     H_    0.595328 0.812866 0.736535 0.133090
H62   H     H_    0.336626 0.073775 0.326553 0.128404
H63   H     H_    0.247996 0.033328 0.316619 0.152073
H64   H     H_    0.752811 0.930812 0.595518 0.190536
H65   H     H_    0.768106 0.968418 0.683753 0.108462
H66   H     H_    0.137738 0.599261 0.236982 0.124609
H67   H     H_    0.245000 0.419954 0.604974 0.102825
H68   H     H_    0.095324 0.687367 0.236733 0.133091
H69   H     H_    0.865319 0.302717 0.675032 0.157635
H70   H     H_    0.906523 0.303086 0.762620 0.098367
H71   H     H_    0.663817 0.926444 0.327056 0.128474
H72   H     H_    0.752529 0.966683 0.316968 0.152160
H73   H     H_    0.247495 0.069112 0.595682 0.190585
H74   H     H_    0.232175 0.031563 0.683935 0.108399
H75   H     H_    0.862224 0.400814 0.236880 0.124588
H76   H     H_    0.904673 0.312724 0.236680 0.133091
H77   H     H_    0.134678 0.697315 0.675026 0.157692
H78   H     H_    0.754374 0.576839 0.395244 0.119790
H79   H     H_    0.093475 0.696915 0.762616 0.098330
H80   H     H_    0.400584 0.862352 0.762803 0.124642
H81   H     H_    0.312445 0.904695 0.763114 0.133091
H82   H     H_    0.697603 0.134737 0.325106 0.157608
H83   H     H_    0.697241 0.093448 0.237555 0.098410
H84   H     H_    0.073861 0.336769 0.673589 0.128416
H85   H     H_    0.033343 0.248164 0.683499 0.152057
H86   H     H_    0.930973 0.751699 0.403879 0.190387
H87   H     H_    0.968406 0.767069 0.315586 0.108300
H88   H     H_    0.599370 0.137660 0.762888 0.124583
H89   H     H_    0.419963 0.244998 0.395010 0.102767
H90   H     H_    0.687515 0.095326 0.763033 0.133155
H91   H     H_    0.302488 0.865292 0.325037 0.157652
H92   H     H_    0.302889 0.906541 0.237467 0.098379
H93   H     H_    0.926006 0.662986 0.673879 0.128405
H94   H     H_    0.966634 0.751549 0.683709 0.152019
H95   H     H_    0.069103 0.247701 0.404221 0.190563
H96   H     H_    0.031578 0.232352 0.315965 0.108411
N1    N     N_R   0.424590 0.632770 0.578330 -0.043732
N2    N     N_R   0.575410 0.632770 0.578330 -0.055286
N3    N     N_R   0.632770 0.424590 0.421670 -0.043723
N4    N     N_R   0.367230 0.575410 0.578330 -0.046570
N5    N     N_R   0.575410 0.632770 0.421670 -0.052936
N6    N     N_R   0.424590 0.367230 0.578330 -0.055283
N7    N     N_R   0.367230 0.575410 0.421670 -0.043728
N8    N     N_R   0.632770 0.424590 0.578330 -0.046568
N9    N     N_R   0.924590 0.132770 0.078330 -0.055287
N10   N     N_R   0.075410 0.867230 0.921670 -0.052935
N11   N     N_R   0.132770 0.075410 0.078330 -0.046571
N12   N     N_R   0.575410 0.367230 0.421670 -0.046614
N13   N     N_R   0.867230 0.924590 0.921670 -0.043722
N14   N     N_R   0.075410 0.867230 0.078330 -0.055280
N15   N     N_R   0.924590 0.132770 0.921670 -0.052939
N16   N     N_R   0.867230 0.924590 0.078330 -0.046517
N17   N     N_R   0.132770 0.075410 0.921670 -0.043726
N18   N     N_R   0.924590 0.867230 0.921670 -0.046615
N19   N     N_R   0.075410 0.132770 0.078330 -0.043728
N20   N     N_R   0.132770 0.924590 0.921670 -0.055279
N21   N     N_R   0.867230 0.075410 0.078330 -0.052953
N22   N     N_R   0.075410 0.132770 0.921670 -0.046591
N23   N     N_R   0.632770 0.575410 0.578330 -0.052941
N24   N     N_R   0.924590 0.867230 0.078330 -0.043698
N25   N     N_R   0.867230 0.075410 0.921670 -0.055292
N26   N     N_R   0.132770 0.924590 0.078330 -0.052938
N27   N     N_3   0.771763 0.632105 0.772930 -0.182200
N28   N     N_3   0.151269 0.367131 0.294295 -0.203141
N29   N     N_3   0.570772 0.289867 0.856685 -0.157191
N30   N     N_3   0.428246 0.787710 0.209416 -0.214779
N31   N     N_3   0.227967 0.367957 0.772803 -0.182275
N32   N     N_3   0.848354 0.632695 0.293739 -0.203246
N33   N     N_3   0.429223 0.710118 0.856679 -0.157171
N34   N     N_R   0.367230 0.424590 0.421670 -0.055283
N35   N     N_3   0.571792 0.212215 0.209494 -0.214791
N36   N     N_3   0.709864 0.429156 0.143190 -0.157228
N37   N     N_3   0.212420 0.571686 0.790715 -0.214809
N38   N     N_3   0.631862 0.772697 0.227405 -0.182402
N39   N     N_3   0.367065 0.151141 0.705551 -0.203115
N40   N     N_3   0.290056 0.570808 0.143244 -0.157190
N41   N     N_3   0.787566 0.428317 0.790726 -0.214817
N42   N     N_3   0.367995 0.227801 0.227232 -0.182255
N43   N     N_3   0.633019 0.849030 0.705305 -0.203071
N44   N     N_3   0.287571 0.071681 0.290721 -0.214809
N45   N     N_R   0.575410 0.367230 0.578330 -0.043732
N46   N     N_3   0.790285 0.929112 0.643128 -0.157216
N47   N     N_3   0.132947 0.651120 0.205516 -0.203134
N48   N     N_3   0.867979 0.272192 0.727240 -0.182289
N49   N     N_3   0.712786 0.928481 0.291104 -0.214821
N50   N     N_3   0.209977 0.070803 0.643259 -0.157189
N51   N     N_3   0.867029 0.348937 0.205446 -0.203103
N52   N     N_3   0.132017 0.727823 0.727244 -0.182251
N53   N     N_3   0.348754 0.867118 0.794316 -0.203107
N54   N     N_3   0.728093 0.132078 0.272879 -0.182264
N55   N     N_3   0.071745 0.287692 0.709395 -0.214795
N56   N     N_R   0.424590 0.632770 0.421670 -0.046602
N57   N     N_3   0.929330 0.789327 0.356383 -0.157166
N58   N     N_3   0.651252 0.132877 0.794317 -0.203114
N59   N     N_3   0.272004 0.867949 0.272807 -0.182237
N60   N     N_3   0.928156 0.712106 0.709624 -0.214794
N61   N     N_3   0.070781 0.210146 0.356671 -0.157185
N62   N     N_R   0.367230 0.424590 0.578330 -0.052940
N63   N     N_R   0.632770 0.575410 0.421670 -0.055267
N64   N     N_R   0.424590 0.367230 0.421670 -0.052936
Ni1   Ni    Ni4+2 0.500000 0.631570 0.500000 0.234750
Ni2   Ni    Ni4+2 0.500000 0.368430 0.500000 0.234753
Ni3   Ni    Ni4+2 0.631570 0.500000 0.500000 0.234867
Ni4   Ni    Ni4+2 0.368430 0.500000 0.500000 0.234835
Ni5   Ni    Ni4+2 0.000000 0.131570 0.000000 0.234769
Ni6   Ni    Ni4+2 0.000000 0.868430 0.000000 0.234720
Ni7   Ni    Ni4+2 0.131570 0.000000 0.000000 0.234827
Ni8   Ni    Ni4+2 0.868430 0.000000 0.000000 0.234913

loop_
_geom_bond_atom_site_label_1
_geom_bond_atom_site_label_2
_ccdc_geom_bond_type
N15   N25   A    
C107  C112  S    
C91   N63   A    
N2    N23   A    
C18   C65   A    
C43   C89   S    
N13   N18   A    
C9    F2    S    
N10   Ni6   S    
C45   C87   S    
C1    H1    S    
N19   Ni5   S    
C17   N4    A    
C38   N25   A    
C94   C111  S    
C16   C84   S    
N1    N4    A    
C18   H5    S    
C102  H89   S    
H95   N61   S    
C23   N10   A    
H51   N39   S    
C31   C70   A    
H76   N51   S    
C30   N17   A    
C55   C100  S    
C105  N57   S    
H87   N57   S    
C8    C92   S    
C49   C108  S    
C108  N60   S    
C93   C110  S    
C15   C85   S    
C88   C95   S    
C10   C51   S    
C34   H21   S    
C3    F11   S    
C81   C105  S    
C39   H26   S    
C25   H12   S    
C44   C81   S    
H27   N27   S    
C40   C110  S    
C29   H16   S    
C40   C76   S    
H32   N29   S    
H35   N30   S    
H40   N33   S    
N17   Ni7   S    
C92   C94   S    
N11   N19   A    
N7    Ni4   S    
C46   C84   S    
C103  N54   S    
H36   N31   S    
C76   N28   S    
C91   H78   S    
C27   C71   A    
C2    N2    A    
C90   C93   S    
C65   C91   A    
N25   Ni8   S    
N26   Ni7   S    
C54   C105  S    
H93   N60   S    
C56   C103  S    
C9    C90   S    
C13   N3    A    
H79   N52   S    
C80   N62   A    
N56   Ni1   S    
H55   N41   S    
C108  C111  S    
H83   N54   S    
C7    C48   S    
C89   C96   S    
N5    Ni1   S    
N14   Ni6   S    
C26   N13   A    
N9    N21   A    
C56   C66   S    
C12   F5    S    
C39   C71   A    
N8    N45   A    
C14   C81   S    
C86   N38   S    
C27   N14   A    
N64   Ni2   S    
C31   N18   A    
N6    Ni2   S    
C34   C66   A    
H28   N27   S    
H57   N41   S    
C48   C57   S    
C93   N44   S    
C19   H6    S    
C22   H9    S    
C83   C103  S    
N3    Ni3   S    
C77   C106  S    
C16   F8    S    
C28   N15   A    
H46   N36   S    
C30   C74   A    
H81   N53   S    
C47   N34   A    
H72   N49   S    
C4    F12   S    
H68   N47   S    
C102  N64   A    
C86   C97   S    
C42   C112  S    
C98   N50   S    
C47   H34   S    
C8    F16   S    
C63   C69   A    
C10   C89   S    
C48   C82   S    
C76   C109  S    
C35   H22   S    
H70   N48   S    
C12   C53   S    
H96   N61   S    
C20   N7    A    
C4    C97   S    
N14   N26   A    
C44   C65   S    
H33   N30   S    
C15   C82   S    
H80   N53   S    
C38   C72   A    
C77   N29   S    
C14   C86   S    
H94   N60   S    
H50   N38   S    
C21   N8    A    
C40   C61   S    
C106  N58   S    
C15   C55   S    
C16   C56   S    
C1    C57   A    
H71   N49   S    
H86   N57   S    
N1    Ni1   S    
C37   H24   S    
C87   N39   S    
C88   N40   S    
C30   H17   S    
N34   Ni4   S    
C41   C60   S    
C52   C107  S    
N10   N20   A    
C13   C59   A    
C53   C98   S    
H90   N58   S    
C45   C64   S    
N62   Ni4   S    
C20   C63   A    
H43   N35   S    
H47   N37   S    
C39   N26   A    
C50   C68   S    
C8    C49   S    
C15   F7    S    
C89   N41   S    
C41   C111  S    
C5    F13   S    
C36   N23   A    
H61   N43   S    
C25   C59   A    
C56   C99   S    
H62   N44   S    
C58   C62   A    
C35   C74   A    
C23   H10   S    
C53   C74   S    
N3    N12   A    
C100  N52   S    
C101  N53   S    
H30   N28   S    
C95   C112  S    
C2    C60   A    
N21   Ni8   S    
C94   N46   S    
C12   C79   S    
N2    Ni1   S    
C52   C95   S    
C11   C52   S    
H74   N50   S    
C25   N12   A    
C54   C97   S    
C83   N35   S    
H42   N35   S    
C9    C76   S    
C26   H13   S    
C29   N16   A    
C87   C98   S    
H58   N42   S    
C75   C108  S    
C24   H11   S    
C17   H4    S    
C64   C80   A    
C28   C72   A    
H64   N46   S    
C75   N27   S    
C104  N55   S    
C3    C106  S    
C7    C100  S    
H60   N43   S    
N17   N22   A    
C6    F14   S    
C32   H19   S    
H52   N39   S    
C99   N51   S    
C4    C44   S    
H59   N42   S    
C69   N56   A    
C5    C45   S    
C16   C83   S    
C78   C107  S    
H37   N31   S    
H49   N38   S    
C33   H20   S    
C41   C75   S    
C22   N9    A    
H77   N52   S    
C19   C64   A    
C34   N21   A    
C13   H3    S    
N24   Ni6   S    
C45   C79   S    
C28   H15   S    
C6    C103  S    
C11   F4    S    
C50   C93   S    
H88   N58   S    
C49   C70   S    
C26   C70   A    
C58   H45   S    
C43   C77   S    
C51   C72   S    
H31   N29   S    
C1    N1    A    
C80   H67   S    
C55   C101  S    
C35   N22   A    
H39   N32   S    
C84   C99   S    
C107  N59   S    
C18   N5    A    
C47   C61   A    
N20   Ni7   S    
C95   N47   S    
N22   Ni5   S    
C52   C71   S    
C109  C110  S    
C2    H2    S    
N9    Ni5   S    
H92   N59   S    
C50   C109  S    
C19   N6    A    
C24   C68   A    
C46   C83   S    
H84   N55   S    
H48   N37   S    
N16   N24   A    
C53   C104  S    
C40   C90   S    
N12   Ni2   S    
C42   C63   S    
C43   C62   S    
C17   C57   A    
N16   Ni8   S    
H85   N55   S    
H91   N59   S    
C46   C59   S    
C111  F9    S    
H63   N44   S    
N8    Ni3   S    
H53   N40   S    
C58   N45   A    
C3    C43   S    
H82   N54   S    
C37   N24   A    
N7    N56   A    
C90   N42   S    
C29   C73   A    
C23   C67   A    
C54   C73   S    
C27   H14   S    
N34   N64   A    
C22   C66   A    
C31   H18   S    
C14   F6    S    
H38   N32   S    
C3    C96   S    
C49   C94   S    
H44   N36   S    
C21   H8    S    
H73   N50   S    
C32   C68   A    
C109  N61   S    
C5    C104  S    
C81   N32   S    
C82   N33   S    
H41   N33   S    
H65   N46   S    
C92   N43   S    
C44   C86   S    
C10   C77   S    
N18   Ni6   S    
C78   N30   S    
N13   Ni8   S    
H75   N51   S    
C8    C75   S    
C112  F10   S    
C11   C78   S    
C11   C88   S    
H54   N40   S    
N6    N62   A    
C21   C62   A    
N4    Ni4   S    
H69   N48   S    
C110  F1    S    
C14   C54   S    
C42   C78   S    
C32   N19   A    
C7    C101  S    
N63   Ni3   S    
C79   C104  S    
C42   C88   S    
N23   Ni3   S    
H29   N28   S    
C33   C67   A    
C37   C73   A    
C6    C46   S    
C12   C87   S    
C84   N36   S    
C9    C50   S    
C85   N37   S    
C36   C60   A    
C55   C67   S    
C36   H23   S    
N15   Ni5   S    
C96   N48   S    
C4    C105  S    
C51   C96   S    
C38   H25   S    
C7    F15   S    
C6    C99   S    
C61   C102  A    
N45   Ni2   S    
C24   N11   A    
C51   C106  S    
C85   C100  S    
C82   C101  S    
C20   H7    S    
N11   Ni7   S    
C69   H56   S    
C41   C92   S    
C5    C98   S    
N5    N63   A    
C79   N31   S    
C48   C85   S    
C33   N20   A    
H66   N47   S    
C97   N49   S    
C10   F3    S    
