data_mof_unit_48057.cif
_audit_creation_date              2012-12-10T19:05:52-0500
_audit_creation_method            fapswitch 2.2
_symmetry_space_group_name_H-M    P1
_symmetry_Int_Tables_number       1
_space_group_crystal_system       triclinic
_cell_length_a                    19.335756
_cell_length_b                    10.81998
_cell_length_c                    9.538544
_cell_angle_alpha                 89.996194
_cell_angle_beta                  89.960856
_cell_angle_gamma                 90.288036
_cell_volume                      1995.55688457

loop_
_atom_site_label
_atom_site_type_symbol
_atom_type_description
_atom_site_fract_x
_atom_site_fract_y
_atom_site_fract_z
_atom_type_partial_charge
C1    C     C_R   0.498763 0.262351 0.499994 0.802728
C2    C     C_R   0.291364 0.491993 0.498913 -0.025444
C3    C     C_R   0.930232 0.493279 0.504224 0.413855
C4    C     C_R   0.070156 0.481138 0.498225 0.461359
C5    C     C_R   0.816417 0.455748 0.621860 -0.138125
C6    C     C_R   0.744310 0.457460 0.620576 -0.166400
C7    C     C_R   0.708597 0.499033 0.501615 -0.047881
C8    C     C_R   0.746167 0.540110 0.384780 -0.161175
C9    C     C_R   0.818168 0.539320 0.386216 -0.128675
C10   C     C_R   0.854048 0.496591 0.504519 0.045831
C11   C     C_R   0.495258 0.063394 0.625922 0.026872
C12   C     C_R   0.367390 0.498526 0.499962 0.784938
C13   C     C_R   0.492229 0.129267 0.500179 -0.112468
C14   C     C_R   0.479572 0.064356 0.374985 -0.186771
C15   C     C_R   0.479422 0.935420 0.375057 -0.175621
C16   C     C_R   0.492032 0.870671 0.500253 -0.079287
C17   C     C_R   0.494675 0.936340 0.625978 0.093713
C18   C     C_3   0.544278 0.928702 0.745800 -0.511339
C19   C     C_3   0.544637 0.069600 0.746918 -0.172927
C20   C     C_R   0.533913 0.591026 0.073453 0.238832
C21   C     C_R   0.461304 0.417375 0.074533 -0.076480
C22   C     C_R   0.461304 0.417361 0.925599 -0.055256
C23   C     C_R   0.498802 0.737677 0.499993 0.820132
C24   C     C_R   0.534030 0.590621 0.925897 0.211385
C25   C     C_3   0.609446 0.618082 0.918884 -0.496322
C26   C     C_3   0.609585 0.618627 0.077779 -0.072848
C27   C     C_R   0.632582 0.499903 0.500168 0.810792
C28   C     C_R   0.253659 0.505174 0.623399 -0.180818
C29   C     C_R   0.181766 0.497834 0.621606 -0.183698
C30   C     C_R   0.146122 0.476123 0.495754 0.042082
C31   C     C_R   0.184001 0.457279 0.370153 0.012776
C32   C     C_R   0.256142 0.468374 0.373060 -0.266889
Cu1   Cu    Cu3+1 0.500000 0.499980 0.640670 0.965251
Cu2   Cu    Cu3+1 0.500000 0.500020 0.359330 0.961341
H1    H     H_    0.279620 0.522809 0.722028 0.152285
H2    H     H_    0.472606 0.887147 0.276526 0.177370
H3    H     H_    0.519811 0.887970 0.840771 0.208690
H4    H     H_    0.594172 0.885682 0.714885 0.191887
H5    H     H_    0.520466 0.109644 0.842492 0.177524
H6    H     H_    0.431034 0.348997 0.130489 0.133126
H7    H     H_    0.431059 0.348931 0.869764 0.133172
H8    H     H_    0.639798 0.540500 0.874487 0.211082
H9    H     H_    0.620326 0.709459 0.870645 0.211851
H10   H     H_    0.639829 0.541000 0.122032 0.165704
H11   H     H_    0.153750 0.512139 0.718633 0.157475
H12   H     H_    0.285105 0.454453 0.277015 0.141193
H13   H     H_    0.842572 0.422460 0.714723 0.165899
H14   H     H_    0.716563 0.424691 0.712006 0.182594
H15   H     H_    0.720122 0.574373 0.292839 0.165419
H16   H     H_    0.845609 0.571479 0.294075 0.165569
H17   H     H_    0.472888 0.112516 0.276399 0.162968
N1    N     N_R   0.035239 0.541191 0.395755 -0.185976
N2    N     N_R   0.966583 0.546547 0.398306 -0.219069
N3    N     N_R   0.965346 0.435544 0.608429 -0.225307
N4    N     N_R   0.034070 0.429886 0.605724 -0.223620
N5    N     N_R   0.500440 0.500930 0.147930 -0.196351
N6    N     N_R   0.500440 0.500890 0.852020 -0.175012
O1    O     O_R   0.500000 0.319640 0.618810 -0.570431
O2    O     O_R   0.500010 0.319680 0.381230 -0.585422
O3    O     O_R   0.400140 0.499970 0.618830 -0.589735
O4    O     O_R   0.400150 0.500010 0.381250 -0.586000
O5    O     O_R   0.499990 0.680320 0.618770 -0.579854
O6    O     O_R   0.500000 0.680360 0.381190 -0.567231
O7    O     O_R   0.599850 0.499990 0.618750 -0.571592
O8    O     O_R   0.599860 0.500030 0.381170 -0.575572
C33   C     C_2   0.613830 0.124980 0.709934 0.442124
H18   H     H_    0.641625 0.093785 0.617623 0.075450
O9    O     O_2   0.638989 0.205816 0.783381 -0.547213
I1    I     I_    0.630996 0.797523 0.164266 -0.403881
C34   C     C_2   0.151795 0.420025 0.235300 0.375254
H19   H     H_    0.178891 0.437727 0.137545 0.058087
O10   O     O_2   0.096984 0.363653 0.231604 -0.505918

loop_
_geom_bond_atom_site_label_1
_geom_bond_atom_site_label_2
_ccdc_geom_bond_type
C25   H8    S    
C21   N5    A    
C33   O9    D    
Cu2   N5    S    
C29   C30   A    
C27   O8    A    
Cu1   N6    S    
C16   C23   S    
C3    N2    A    
C9    C10   A    
C6    C7    A    
C31   C32   A    
C30   C31   A    
C20   N5    A    
C2    C12   S    
C25   H9    S    
C22   N6    A    
C23   O6    A    
C33   H18   S    
C18   H4    S    
C26   H10   S    
C5    C10   A    
C3    C10   S    
C13   C14   A    
N1    N2    A    
C12   O4    A    
C5    H13   S    
C11   C19   S    
Cu1   O1    S    
C21   H6    S    
C6    H14   S    
C4    N1    A    
Cu1   O7    S    
C19   H5    S    
Cu2   O8    S    
C2    C32   A    
C28   C29   A    
C18   H3    S    
Cu1   Cu2   S    
Cu1   O3    S    
C1    O2    A    
C4    N4    A    
C5    C6    A    
C3    N3    A    
C4    C30   S    
Cu1   O5    S    
C22   H7    S    
C1    C13   S    
C27   O7    A    
C15   C16   A    
C12   O3    A    
C1    O1    A    
C15   H2    S    
C11   C13   A    
C34   H19   S    
C7    C27   S    
C24   C25   S    
C28   H1    S    
C19   C33   S    
C17   C18   S    
C7    C8    A    
C24   N6    A    
N3    N4    A    
C26   I1    S    
C18   C19   S    
C20   C24   A    
C14   C15   A    
Cu2   O6    S    
C2    C28   A    
C23   O5    A    
C25   C26   S    
C21   C22   A    
Cu2   O2    S    
C32   H12   S    
C8    H15   S    
C34   O10   D    
C31   C34   S    
C11   C17   A    
C9    H16   S    
C14   H17   S    
C16   C17   A    
C29   H11   S    
C8    C9    A    
C20   C26   S    
Cu2   O4    S    
