data_mof_unit_36339.cif
_audit_creation_date              2012-12-11T14:03:50-0500
_audit_creation_method            fapswitch 2.2
_symmetry_space_group_name_H-M    P1
_symmetry_Int_Tables_number       1
_space_group_crystal_system       triclinic
_cell_length_a                    19.151059
_cell_length_b                    11.082755
_cell_length_c                    18.833478
_cell_angle_alpha                 89.902731
_cell_angle_beta                  89.339511
_cell_angle_gamma                 89.630749
_cell_volume                      3996.98582214

loop_
_atom_site_label
_atom_site_type_symbol
_atom_type_description
_atom_site_fract_x
_atom_site_fract_y
_atom_site_fract_z
_atom_type_partial_charge
C1    C     C_R   0.238821 0.470442 0.646175 0.527765
C2    C     C_R   0.761773 0.472508 0.354913 0.537858
C3    C     C_R   0.738821 0.970442 0.646176 0.527765
C4    C     C_R   0.261773 0.972509 0.354913 0.537858
C5    C     C_2   0.293713 0.852546 0.535405 -0.024566
C6    C     C_2   0.705613 0.872367 0.462542 -0.022656
C7    C     C_2   0.793713 0.352545 0.535405 -0.024566
C8    C     C_2   0.205613 0.372367 0.462542 -0.022656
C9    C     C_R   0.009394 0.657337 0.422349 -0.026638
C10   C     C_R   0.999654 0.670986 0.571906 -0.039028
C11   C     C_R   0.509394 0.157337 0.422349 -0.026638
C12   C     C_R   0.499655 0.170986 0.571905 -0.039028
C13   C     C_R   0.045804 0.867816 0.414386 0.167439
C14   C     C_R   0.010531 0.898986 0.558867 0.173811
C15   C     C_R   0.545805 0.367817 0.414386 0.167439
C16   C     C_R   0.510531 0.398986 0.558867 0.173812
C17   C     C_R   0.044656 0.982077 0.444370 -0.140264
C18   C     C_R   0.025034 0.997372 0.514737 -0.155772
C19   C     C_R   0.544656 0.482077 0.444369 -0.140264
C20   C     C_R   0.525034 0.497372 0.514737 -0.155772
C21   C     C_R   0.010935 0.779306 0.530353 0.002265
C22   C     C_R   0.021672 0.768201 0.455285 -0.004484
C23   C     C_R   0.510935 0.279306 0.530353 0.002265
C24   C     C_R   0.521673 0.268201 0.455285 -0.004484
C25   C     C_R   0.987979 0.561478 0.535690 -0.008727
C26   C     C_R   0.007636 0.552341 0.464148 -0.005024
C27   C     C_R   0.487980 0.061478 0.535690 -0.008727
C28   C     C_R   0.507637 0.052341 0.464148 -0.005024
C29   C     C_R   0.964252 0.456453 0.570790 -0.069612
C30   C     C_R   0.022720 0.437421 0.435615 -0.077374
C31   C     C_R   0.464253 0.956453 0.570789 -0.069612
C32   C     C_R   0.522721 0.937421 0.435614 -0.077374
C33   C     C_R   0.977025 0.343442 0.541498 -0.126674
C34   C     C_R   0.007875 0.334045 0.474408 -0.141773
C35   C     C_R   0.477025 0.843442 0.541498 -0.126675
C36   C     C_R   0.507876 0.834045 0.474407 -0.141772
C37   C     C_2   0.238091 0.914527 0.926814 0.120778
C38   C     C_2   0.751563 0.909805 0.073796 0.122538
C39   C     C_2   0.738090 0.414524 0.926815 0.120778
C40   C     C_2   0.251562 0.409812 0.073797 0.122543
C41   C     C_2   0.254373 0.909143 0.082363 -0.098190
C42   C     C_2   0.752869 0.891544 0.911636 -0.107646
C43   C     C_2   0.754373 0.409140 0.082364 -0.098189
C44   C     C_2   0.252870 0.391544 0.911637 -0.107650
C45   C     C_R   0.227763 0.873018 0.647801 0.546723
C46   C     C_R   0.771295 0.876088 0.350432 0.544243
C47   C     C_R   0.727763 0.373018 0.647801 0.546724
C48   C     C_R   0.271295 0.376088 0.350432 0.544244
C49   C     C_2   0.192465 0.893881 0.051820 0.004205
C50   C     C_2   0.808949 0.914321 0.951619 0.019916
C51   C     C_2   0.692464 0.393876 0.051822 0.004205
C52   C     C_2   0.308949 0.414323 0.951620 0.019914
C53   C     C_2   0.183451 0.924112 0.975083 0.027624
C54   C     C_2   0.800118 0.956548 0.027529 0.032078
C55   C     C_2   0.683450 0.424105 0.975085 0.027621
C56   C     C_2   0.300118 0.456551 0.027529 0.032078
C57   C     C_2   0.998609 0.658758 0.920905 -0.121359
C58   C     C_2   0.948981 0.656061 0.067721 -0.114974
C59   C     C_2   0.498609 0.158758 0.920905 -0.121359
C60   C     C_2   0.448982 0.156061 0.067721 -0.114972
C61   C     C_2   0.953539 0.556636 0.027797 -0.166059
C62   C     C_2   0.973495 0.559665 0.952859 -0.170554
C63   C     C_2   0.453541 0.056636 0.027798 -0.166058
C64   C     C_2   0.473498 0.059663 0.952860 -0.170550
C65   C     C_R   0.029076 0.656876 0.644952 0.545693
C66   C     C_R   0.972481 0.653632 0.353370 0.569482
C67   C     C_R   0.529076 0.156876 0.644951 0.545694
C68   C     C_R   0.472482 0.153632 0.353370 0.569481
C69   C     C_R   0.239395 0.463205 0.848848 0.538998
C70   C     C_R   0.761007 0.462964 0.151250 0.534175
C71   C     C_R   0.739395 0.963205 0.848847 0.539000
C72   C     C_R   0.261007 0.962964 0.151250 0.534177
C73   C     C_R   0.224081 0.869491 0.855292 0.558477
C74   C     C_R   0.773262 0.872041 0.145778 0.539865
C75   C     C_R   0.724081 0.369490 0.855293 0.558479
C76   C     C_R   0.273262 0.372042 0.145778 0.539864
C77   C     C_R   0.030834 0.651626 0.851508 0.543915
C78   C     C_R   0.936454 0.647669 0.143033 0.571533
C79   C     C_R   0.530834 0.151626 0.851508 0.543917
C80   C     C_R   0.436454 0.147669 0.143033 0.571534
C81   C     C_2   0.257599 0.921381 0.582699 -0.113540
C82   C     C_2   0.739237 0.934563 0.411363 -0.116408
C83   C     C_2   0.757599 0.421381 0.582699 -0.113540
C84   C     C_2   0.239237 0.434563 0.411363 -0.116408
C85   C     C_2   0.250603 0.920700 0.424012 -0.144896
C86   C     C_2   0.748713 0.919654 0.576791 -0.133840
C87   C     C_2   0.750602 0.420699 0.424012 -0.144896
C88   C     C_2   0.248713 0.419654 0.576791 -0.133840
C89   C     C_2   0.305381 0.904793 0.466098 -0.147460
C90   C     C_2   0.697572 0.933020 0.529932 -0.133803
C91   C     C_2   0.805381 0.404793 0.466098 -0.147460
C92   C     C_2   0.197572 0.433020 0.529932 -0.133803
Cr1   Cr    Cr6+3 0.113970 0.508630 0.747920 1.003743
Cr2   Cr    Cr6+3 0.886030 0.508630 0.252080 0.992766
Cr3   Cr    Cr6+3 0.613970 0.008630 0.747920 1.003744
Cr4   Cr    Cr6+3 0.386030 0.008630 0.252080 0.992765
Cr5   Cr    Cr6+3 0.269200 0.666740 0.749850 0.975105
Cr6   Cr    Cr6+3 0.730800 0.666740 0.250150 0.978263
Cr7   Cr    Cr6+3 0.769200 0.166740 0.749850 0.975105
Cr8   Cr    Cr6+3 0.230800 0.166740 0.250150 0.978263
Cr9   Cr    Cr6+3 0.112300 0.820070 0.749800 1.001234
Cr10  Cr    Cr6+3 0.887700 0.820070 0.250200 1.011143
Cr11  Cr    Cr6+3 0.612300 0.320070 0.749800 1.001233
Cr12  Cr    Cr6+3 0.387700 0.320070 0.250200 1.011143
H1    H     H_    0.358617 0.921309 0.448274 0.179025
H2    H     H_    0.649541 0.982092 0.541995 0.156986
H3    H     H_    0.858617 0.421309 0.448274 0.179025
H4    H     H_    0.149541 0.482092 0.541995 0.156986
H5    H     H_    0.302264 0.912779 0.052374 0.139018
H6    H     H_    0.707094 0.847049 0.931541 0.140630
H7    H     H_    0.802264 0.412777 0.052374 0.139018
H8    H     H_    0.207097 0.347043 0.931542 0.140626
H9    H     H_    0.944471 0.468199 0.051040 0.149139
H10   H     H_    0.971938 0.474139 0.924839 0.148777
H11   H     H_    0.444472 0.968198 0.051041 0.149136
H12   H     H_    0.471943 0.974136 0.924841 0.148779
H13   H     H_    0.952970 0.746046 0.045889 0.086320
H14   H     H_    0.003392 0.743989 0.947739 0.083553
H15   H     H_    0.452971 0.246045 0.045889 0.086319
H16   H     H_    0.503389 0.243990 0.947738 0.083551
H17   H     H_    0.197713 0.905638 0.443453 0.123812
H18   H     H_    0.796976 0.873453 0.562541 0.089179
H19   H     H_    0.697713 0.405637 0.443453 0.123812
H20   H     H_    0.296976 0.373454 0.562541 0.089178
H21   H     H_    0.247186 0.014360 0.570484 0.083909
H22   H     H_    0.747823 0.029734 0.417862 0.080918
H23   H     H_    0.747186 0.514360 0.570484 0.083909
H24   H     H_    0.247823 0.529734 0.417862 0.080918
H25   H     H_    0.059935 0.059581 0.413036 0.103639
H26   H     H_    0.022339 0.087318 0.536225 0.097039
H27   H     H_    0.559935 0.559582 0.413036 0.103639
H28   H     H_    0.522339 0.587318 0.536225 0.097039
H29   H     H_    0.046373 0.427383 0.383418 0.132644
H30   H     H_    0.939649 0.461161 0.622807 0.128870
H31   H     H_    0.546373 0.927383 0.383417 0.132643
H32   H     H_    0.439649 0.961161 0.622807 0.128870
H33   H     H_    0.964055 0.263500 0.571647 0.095039
H34   H     H_    0.018850 0.246911 0.451404 0.095717
H35   H     H_    0.464055 0.763500 0.571646 0.095040
H36   H     H_    0.518851 0.746911 0.451404 0.095717
O1    O     O_R   0.043230 0.549300 0.667990 -0.528436
O2    O     O_R   0.956770 0.549300 0.332010 -0.535346
O3    O     O_R   0.543230 0.049300 0.667990 -0.528436
O4    O     O_R   0.456770 0.049300 0.332010 -0.535347
O5    O     O_R   0.262920 0.788600 0.824420 -0.503428
O6    O     O_R   0.737080 0.788600 0.175580 -0.504035
O7    O     O_R   0.762920 0.288600 0.824420 -0.503427
O8    O     O_R   0.237080 0.288600 0.175580 -0.504039
O9    O     O_R   0.167530 0.905110 0.830340 -0.545361
O10   O     O_R   0.832470 0.905110 0.169660 -0.547427
O11   O     O_R   0.667530 0.405110 0.830340 -0.545361
O12   O     O_R   0.332470 0.405110 0.169660 -0.547425
O13   O     O_R   0.054010 0.748440 0.822860 -0.519800
O14   O     O_R   0.945990 0.748440 0.177140 -0.506313
O15   O     O_R   0.554010 0.248440 0.822860 -0.519802
O16   O     O_R   0.445990 0.248440 0.177140 -0.506312
O17   O     O_3   0.165160 0.665150 0.749190 -0.246175
O18   O     O_3   0.834840 0.665150 0.250810 -0.268545
O19   O     O_3   0.665160 0.165150 0.749190 -0.246175
O20   O     O_3   0.334840 0.165150 0.250810 -0.268545
O21   O     O_R   0.178620 0.457600 0.674100 -0.488976
O22   O     O_R   0.821380 0.457600 0.325900 -0.496824
O23   O     O_R   0.678620 0.957600 0.674100 -0.488977
O24   O     O_R   0.321380 0.957600 0.325900 -0.496824
O25   O     O_R   0.284680 0.542100 0.669460 -0.558043
O26   O     O_R   0.715320 0.542100 0.330540 -0.535165
O27   O     O_R   0.784680 0.042100 0.669460 -0.558044
O28   O     O_R   0.215320 0.042100 0.330540 -0.535166
O29   O     O_R   0.262860 0.790390 0.676650 -0.510966
O30   O     O_R   0.737140 0.790390 0.323350 -0.509189
O31   O     O_R   0.762860 0.290390 0.676650 -0.510966
O32   O     O_R   0.237140 0.290390 0.323350 -0.509189
O33   O     O_R   0.167460 0.907030 0.670940 -0.508261
O34   O     O_R   0.832540 0.907030 0.329060 -0.509252
O35   O     O_R   0.667460 0.407030 0.670940 -0.508260
O36   O     O_R   0.332540 0.407030 0.329060 -0.509252
O37   O     O_R   0.053950 0.750220 0.675100 -0.454429
O38   O     O_R   0.946050 0.750220 0.324900 -0.457294
O39   O     O_R   0.553950 0.250220 0.675100 -0.454429
O40   O     O_R   0.446050 0.250220 0.324900 -0.457294
O41   O     O_R   0.043300 0.547370 0.827390 -0.516117
O42   O     O_R   0.956700 0.547370 0.172610 -0.525270
O43   O     O_R   0.543300 0.047370 0.827390 -0.516116
O44   O     O_R   0.456700 0.047370 0.172610 -0.525273
O45   O     O_R   0.178690 0.455820 0.821860 -0.505484
O46   O     O_R   0.821310 0.455820 0.178140 -0.523800
O47   O     O_R   0.678690 0.955820 0.821860 -0.505485
O48   O     O_R   0.321310 0.955820 0.178140 -0.523800
O49   O     O_R   0.284750 0.540170 0.828860 -0.518399
O50   O     O_R   0.715250 0.540170 0.171140 -0.520451
O51   O     O_R   0.784750 0.040170 0.828860 -0.518399
O52   O     O_R   0.215250 0.040170 0.171140 -0.520448
C93   C     C_3   0.114289 0.984573 0.953044 -0.257772
C94   C     C_3   0.078980 0.064547 0.009580 -0.465670
H37   H     H_    0.042285 0.011769 0.043090 0.130531
H38   H     H_    0.118306 0.108329 0.043417 0.169743
H39   H     H_    0.047518 0.136311 0.983544 0.129879
H40   H     H_    0.124821 0.048036 0.908516 0.174260
H41   H     H_    0.076937 0.915359 0.934950 0.154048
C95   C     C_3   0.847740 0.058165 0.051778 -0.276998
C96   C     C_3   0.834897 0.173513 0.009439 -0.442621
H42   H     H_    0.847071 0.164613 0.952365 0.169746
H43   H     H_    0.779125 0.199366 0.014330 0.161040
H44   H     H_    0.868457 0.246026 0.030535 0.129286
H45   H     H_    0.837165 0.084565 0.107633 0.172101
H46   H     H_    0.903451 0.030707 0.047524 0.135884
C97   C     C_3   0.614286 0.484562 0.953045 -0.257773
C98   C     C_3   0.578971 0.564525 0.009583 -0.465674
H47   H     H_    0.542276 0.511740 0.043088 0.130529
H48   H     H_    0.618293 0.608308 0.043424 0.169739
H49   H     H_    0.547508 0.636288 0.983547 0.129878
H50   H     H_    0.624819 0.548031 0.908520 0.174258
H51   H     H_    0.576939 0.415346 0.934946 0.154056
C99   C     C_3   0.347740 0.558168 0.051778 -0.276998
C100  C     C_3   0.334895 0.673516 0.009440 -0.442626
H52   H     H_    0.347065 0.664615 0.952365 0.169750
H53   H     H_    0.279125 0.699370 0.014335 0.161035
H54   H     H_    0.368459 0.746028 0.030533 0.129287
H55   H     H_    0.337166 0.584567 0.107634 0.172101
H56   H     H_    0.403452 0.530711 0.047524 0.135884
N1    N     N_2   0.301706 0.977636 0.937102 -0.566465
H57   H     H_    0.340369 0.957137 0.900423 0.251559
C101  C     C_3   0.291956 0.106306 0.946584 -0.317610
H58   H     H_    0.255657 0.125991 0.991561 0.171163
H59   H     H_    0.271130 0.146588 0.897066 0.141467
H60   H     H_    0.342004 0.149204 0.959371 0.165884
N2    N     N_2   0.687015 0.862849 0.049041 -0.569292
H61   H     H_    0.669273 0.785463 0.073246 0.267974
C102  C     C_3   0.632052 0.951028 0.039324 -0.323785
H62   H     H_    0.587936 0.908074 0.011470 0.151366
H63   H     H_    0.650754 0.027666 0.006216 0.164127
H64   H     H_    0.612798 0.983888 0.091686 0.159764
N3    N     N_2   0.801704 0.477636 0.937103 -0.566465
H65   H     H_    0.840367 0.457139 0.900424 0.251559
C103  C     C_3   0.791953 0.606305 0.946586 -0.317610
H66   H     H_    0.755654 0.625987 0.991564 0.171158
H67   H     H_    0.771126 0.646587 0.897069 0.141469
H68   H     H_    0.842000 0.649205 0.959373 0.165885
N4    N     N_2   0.187010 0.362867 0.049042 -0.569292
H69   H     H_    0.169255 0.285502 0.073259 0.267976
C104  C     C_3   0.132059 0.451062 0.039303 -0.323797
H70   H     H_    0.087949 0.408116 0.011435 0.151381
H71   H     H_    0.150778 0.527691 0.006199 0.164125
H72   H     H_    0.112790 0.483933 0.091657 0.159763
C105  C     C_3   0.309815 0.718875 0.545282 -0.229156
C106  C     C_3   0.345747 0.657282 0.481601 -0.451337
H73   H     H_    0.318206 0.677586 0.431565 0.160664
H74   H     H_    0.399852 0.687569 0.474662 0.154120
H75   H     H_    0.347684 0.558320 0.490203 0.145053
H76   H     H_    0.344605 0.706675 0.591427 0.179109
H77   H     H_    0.259593 0.672229 0.555215 0.169482
C107  C     C_3   0.691507 0.737560 0.459236 -0.226826
C108  C     C_3   0.661567 0.685451 0.528258 -0.452066
H78   H     H_    0.699001 0.695415 0.572240 0.154736
H79   H     H_    0.612607 0.731933 0.544027 0.166484
H80   H     H_    0.651157 0.588490 0.520691 0.143720
H81   H     H_    0.653395 0.720071 0.416547 0.169832
H82   H     H_    0.741116 0.688841 0.447223 0.167043
C109  C     C_3   0.809815 0.218874 0.545282 -0.229156
C110  C     C_3   0.845747 0.157281 0.481601 -0.451337
H83   H     H_    0.818206 0.177586 0.431565 0.160663
H84   H     H_    0.899852 0.187568 0.474662 0.154119
H85   H     H_    0.847684 0.058320 0.490203 0.145053
H86   H     H_    0.844605 0.206675 0.591427 0.179110
H87   H     H_    0.759593 0.172229 0.555214 0.169482
C111  C     C_3   0.191507 0.237560 0.459236 -0.226826
C112  C     C_3   0.161567 0.185451 0.528258 -0.452066
H88   H     H_    0.199001 0.195415 0.572240 0.154736
H89   H     H_    0.112606 0.231934 0.544027 0.166484
H90   H     H_    0.151156 0.088490 0.520691 0.143720
H91   H     H_    0.153395 0.220071 0.416547 0.169831
H92   H     H_    0.241116 0.188841 0.447223 0.167043
N5    N     N_2   0.071985 0.854149 0.343300 -0.490040
H93   H     H_    0.077158 0.932201 0.313804 0.253082
C113  C     C_3   0.126780 0.765214 0.330798 -0.299582
H94   H     H_    0.106858 0.692835 0.296017 0.149965
H95   H     H_    0.145749 0.724159 0.380980 0.129316
H96   H     H_    0.171760 0.807608 0.303227 0.141694
N6    N     N_2   0.990132 0.925450 0.629892 -0.478754
H97   H     H_    0.011441 0.003358 0.650112 0.237927
C114  C     C_3   0.916398 0.918338 0.642976 -0.299236
H98   H     H_    0.905048 0.942747 0.699006 0.153011
H99   H     H_    0.897460 0.825318 0.633602 0.137162
H100  H     H_    0.889897 0.983067 0.607275 0.157464
N7    N     N_2   0.571985 0.354150 0.343300 -0.490040
H101  H     H_    0.577156 0.432202 0.313804 0.253082
C115  C     C_3   0.626779 0.265215 0.330796 -0.299581
H102  H     H_    0.606857 0.192837 0.296015 0.149964
H103  H     H_    0.645749 0.224161 0.380978 0.129315
H104  H     H_    0.671758 0.307610 0.303225 0.141696
N8    N     N_2   0.490132 0.425451 0.629892 -0.478754
H105  H     H_    0.511441 0.503358 0.650111 0.237927
C116  C     C_3   0.416398 0.418339 0.642976 -0.299235
H106  H     H_    0.405048 0.442747 0.699005 0.153011
H107  H     H_    0.397460 0.325318 0.633601 0.137162
H108  H     H_    0.389897 0.483068 0.607274 0.157463
C117  C     C_3   0.131367 0.844523 0.095348 -0.253994
C118  C     C_3   0.151438 0.730026 0.135820 -0.443668
H109  H     H_    0.178948 0.665928 0.099997 0.146943
H110  H     H_    0.186632 0.751590 0.180286 0.143511
H111  H     H_    0.103792 0.686654 0.157899 0.162460
H112  H     H_    0.111671 0.913017 0.133703 0.173282
H113  H     H_    0.087914 0.820150 0.059674 0.142315
C119  C     C_3   0.881459 0.921535 0.916361 -0.249249
C120  C     C_3   0.891596 0.842519 0.849950 -0.428213
H114  H     H_    0.885376 0.745931 0.862558 0.139145
H115  H     H_    0.855045 0.863843 0.806834 0.160782
H116  H     H_    0.944341 0.858879 0.827761 0.158230
H117  H     H_    0.894725 0.014922 0.901150 0.161081
H118  H     H_    0.920753 0.892611 0.955619 0.113165
C121  C     C_3   0.631369 0.344512 0.095350 -0.253994
C122  C     C_3   0.651442 0.230014 0.135819 -0.443671
H119  H     H_    0.678950 0.165916 0.099993 0.146943
H120  H     H_    0.686639 0.251575 0.180283 0.143511
H121  H     H_    0.603798 0.186641 0.157900 0.162456
H122  H     H_    0.611672 0.413003 0.133707 0.173281
H123  H     H_    0.587916 0.320138 0.059676 0.142320
C123  C     C_3   0.381460 0.421539 0.916362 -0.249248
C124  C     C_3   0.391598 0.342525 0.849951 -0.428212
H124  H     H_    0.385379 0.245936 0.862558 0.139143
H125  H     H_    0.355047 0.363849 0.806834 0.160785
H126  H     H_    0.444344 0.358886 0.827762 0.158229
H127  H     H_    0.394725 0.514927 0.901152 0.161081
H128  H     H_    0.420753 0.392615 0.955620 0.113166

loop_
_geom_bond_atom_site_label_1
_geom_bond_atom_site_label_2
_ccdc_geom_bond_type
C94   H38   S    
C105  H76   S    
C87   C91   D    
C7    C109  S    
C19   C20   A    
Cr6   O50   S    
C67   O3    A    
C101  H60   S    
C107  H82   S    
C114  H100  S    
C119  H118  S    
C12   C23   A    
C123  H127  S    
C14   C21   A    
C62   H10   S    
C40   N4    S    
C94   H39   S    
C29   C33   A    
C35   H35   S    
Cr1   O41   S    
C101  H58   S    
C33   H33   S    
C77   O41   A    
C117  H112  S    
C46   O34   A    
C85   H17   S    
C8    C92   S    
C47   C83   S    
C13   N5    S    
C63   H11   S    
C58   C61   D    
C105  C106  S    
C20   H28   S    
C41   C49   D    
C9    C26   A    
Cr7   O27   S    
C10   C21   A    
C25   C29   A    
C12   C27   A    
C27   C31   A    
C91   H3    S    
C28   C32   A    
C86   C90   D    
C39   N3    S    
C93   H41   S    
C4    O28   A    
C35   C36   A    
C100  H52   S    
C102  H62   S    
C45   O33   A    
Cr4   O4    S    
N2    H61   S    
Cr1   O21   S    
C16   C20   A    
C49   C117  S    
C44   H8    S    
C18   H26   S    
C118  H109  S    
C69   O45   A    
C70   O50   A    
Cr7   O7    S    
Cr5   O5    S    
C45   C81   S    
C71   O47   A    
C31   H32   S    
C32   H31   S    
C47   O31   A    
Cr12  O12   S    
C37   N1    S    
N7    C115  S    
C99   H56   S    
Cr3   O43   S    
C49   C53   S    
C15   N7    S    
C51   C55   S    
C36   H36   S    
C79   O15   A    
C46   O30   A    
C76   O8    A    
C93   C94   S    
C67   O39   A    
C5    C89   S    
C107  C108  S    
C84   H24   S    
C7    C83   D    
C124  H125  S    
C59   H16   S    
Cr7   O19   S    
Cr8   O32   S    
Cr9   O33   S    
C88   H20   S    
Cr10  O18   S    
C3    O27   A    
Cr12  O36   S    
N1    H57   S    
Cr3   O19   S    
C32   C36   A    
N8    C116  S    
C102  H64   S    
C111  H91   S    
C108  H78   S    
C112  H90   S    
C122  H119  S    
C60   H15   S    
C104  H70   S    
C77   O13   A    
C46   C82   S    
C92   H4    S    
C75   O11   A    
C120  H115  S    
C23   C24   A    
C39   C75   S    
N3    H65   S    
C56   C99   S    
C37   C53   D    
C30   H29   S    
Cr5   O49   S    
C41   H5    S    
C96   H43   S    
Cr8   O52   S    
C43   H7    S    
N5    H93   S    
C30   C34   A    
Cr2   O2    S    
C113  H96   S    
C50   C119  S    
C100  H54   S    
C25   C26   A    
C6    C90   S    
C34   H34   S    
C58   H13   S    
Cr4   O24   S    
C73   O5    A    
C78   O42   A    
C116  H106  S    
C65   O1    A    
C103  H66   S    
C115  H103  S    
C17   C18   A    
C2    C87   S    
N4    C104  S    
Cr6   O26   S    
C42   C50   D    
C10   C25   A    
C15   C24   A    
N2    C102  S    
C26   C30   A    
C16   C23   A    
C16   N8    S    
Cr10  O38   S    
C103  H68   S    
C11   C68   S    
C38   C74   S    
Cr10  O14   S    
C106  H73   S    
C60   C80   S    
C81   H21   S    
Cr2   O46   S    
C83   H23   S    
C110  H83   S    
C45   O29   A    
C108  H80   S    
C112  H88   S    
C101  H59   S    
C3    O23   A    
C114  H99   S    
C55   C97   S    
C122  H121  S    
C13   C17   A    
C104  H72   S    
C42   H6    S    
C87   H19   S    
C65   O37   A    
N5    C113  S    
C79   O43   A    
C29   H30   S    
C80   O44   A    
C61   C62   S    
C70   O46   A    
Cr9   O17   S    
C63   C64   S    
Cr6   O30   S    
C89   H1    S    
C57   H14   S    
C71   O51   A    
C21   C22   A    
C72   O52   A    
C47   O35   A    
C38   N2    S    
C48   O36   A    
C106  H75   S    
C14   N6    S    
Cr3   O3    S    
C95   H45   S    
C64   H12   S    
C53   C93   S    
N4    H69   S    
Cr3   O47   S    
C15   C19   A    
C50   C54   S    
C116  H108  S    
C76   O12   A    
C93   H40   S    
C96   H42   S    
C14   C18   A    
C82   H22   S    
C39   C55   D    
Cr6   O18   S    
C98   H47   S    
C40   C56   D    
C86   H18   S    
N6    H97   S    
C2    O26   A    
Cr11  O11   S    
C1    C88   S    
C94   H37   S    
C105  H77   S    
C1    O21   A    
Cr2   O18   S    
C3    C86   S    
C2    O22   A    
C118  H110  S    
Cr12  O20   S    
C110  H85   S    
C107  H81   S    
C51   C121  S    
C119  H117  S    
C97   C98   S    
C57   C77   S    
C90   H2    S    
C8    C111  S    
C109  H86   S    
C59   C79   S    
C85   C89   D    
C78   O14   A    
C75   O7    A    
C118  H111  S    
N7    H101  S    
C5    C81   D    
C115  H102  S    
C38   C54   D    
C7    C91   S    
Cr11  O35   S    
C117  H113  S    
C115  H104  S    
C44   C69   S    
Cr10  O10   S    
Cr11  O15   S    
C31   C35   A    
Cr1   O1    S    
C73   O9    A    
C1    O25   A    
C8    C84   D    
C74   O6    A    
C5    C105  S    
C66   O2    A    
C123  H128  S    
C102  H63   S    
C111  H92   S    
N6    C114  S    
Cr7   O51   S    
C112  H89   S    
C43   C51   D    
C11   C28   A    
C98   H49   S    
Cr5   O25   S    
C121  H123  S    
C42   C71   S    
C122  H120  S    
C13   C22   A    
Cr11  O39   S    
Cr9   O37   S    
C58   C78   S    
C124  H124  S    
C40   C76   S    
C116  H107  S    
C120  H114  S    
Cr2   O42   S    
Cr1   O45   S    
C121  C122  S    
C6    C82   D    
C117  C118  S    
Cr4   O48   S    
Cr5   O29   S    
C57   C62   D    
C66   O38   A    
C59   C64   D    
C60   C63   D    
C113  H95   S    
Cr3   O23   S    
C99   H55   S    
C100  H53   S    
C9    C22   A    
Cr7   O31   S    
C11   C24   A    
C97   H51   S    
C54   C95   S    
C9    C66   S    
C72   O48   A    
C48   O32   A    
C88   C92   D    
C95   C96   S    
C4    O24   A    
C68   O4    A    
Cr2   O22   S    
N8    H105  S    
C124  H126  S    
C52   C123  S    
C121  H122  S    
C103  H67   S    
Cr4   O44   S    
C80   O16   A    
C19   H27   S    
C12   C67   S    
C106  H74   S    
C17   H25   S    
C110  H84   S    
C69   O49   A    
C108  H79   S    
C99   C100  S    
C4    C85   S    
Cr6   O6    S    
C114  H98   S    
C68   O40   A    
C48   C84   S    
C104  H71   S    
Cr5   O17   S    
C123  C124  S    
C109  H87   S    
Cr8   O20   S    
Cr9   O13   S    
C120  H116  S    
C33   C34   A    
Cr12  O16   S    
Cr1   O17   S    
N3    C103  S    
C41   C72   S    
C119  C120  S    
Cr4   O20   S    
C113  H94   S    
C43   C70   S    
C61   H9    S    
C97   H50   S    
C96   H44   S    
C109  C110  S    
C10   C65   S    
C37   C73   S    
C95   H46   S    
C44   C52   D    
Cr10  O34   S    
C6    C107  S    
Cr8   O28   S    
N1    C101  S    
Cr11  O19   S    
Cr12  O40   S    
Cr8   O8    S    
Cr9   O9    S    
C111  C112  S    
C98   H48   S    
C27   C28   A    
C74   O10   A    
C52   C56   S    
