data_mof_unit_43156.cif
_audit_creation_date              2012-12-10T17:03:25-0500
_audit_creation_method            fapswitch 2.2
_symmetry_space_group_name_H-M    P1
_symmetry_Int_Tables_number       1
_space_group_crystal_system       triclinic
_cell_length_a                    15.033257
_cell_length_b                    11.066259
_cell_length_c                    9.888372
_cell_angle_alpha                 112.271837
_cell_angle_beta                  98.53516
_cell_angle_gamma                 90.974657
_cell_volume                      1500.63016464

loop_
_atom_site_label
_atom_site_type_symbol
_atom_type_description
_atom_site_fract_x
_atom_site_fract_y
_atom_site_fract_z
_atom_type_partial_charge
C1    C     C_R   0.494328 0.253249 0.438808 0.901837
C2    C     C_R   0.504718 0.746806 0.561210 0.900962
C3    C     C_R   0.056278 0.374209 0.660414 0.189194
C4    C     C_R   0.943745 0.625941 0.339544 0.189189
C5    C     C_2   0.491186 0.111569 0.401128 0.004118
C6    C     C_2   0.504115 0.888473 0.598717 0.008901
C7    C     C_2   0.486014 0.068565 0.510125 -0.116145
C8    C     C_2   0.486204 0.929862 0.486778 -0.131176
C9    C     C_2   0.506633 0.510522 0.081539 -0.003589
C10   C     C_2   0.493336 0.489508 0.918458 -0.002807
C11   C     C_R   0.328858 0.497179 0.499994 0.911828
C12   C     C_R   0.671141 0.502869 0.500012 0.914531
C13   C     C_R   0.810816 0.590491 0.448230 0.361051
C14   C     C_R   0.189135 0.409555 0.551578 0.362553
C15   C     C_R   0.767874 0.506172 0.499906 -0.164048
C16   C     C_R   0.232126 0.493974 0.500112 -0.162536
C17   C     C_R   0.818074 0.429345 0.561613 -0.293299
C18   C     C_R   0.181965 0.570938 0.438555 -0.293934
C19   C     C_R   0.911093 0.432513 0.569195 0.090181
C20   C     C_R   0.088937 0.567764 0.430925 0.090390
C21   C     C_R   0.953164 0.501461 0.498882 -0.002205
C22   C     C_R   0.046845 0.498764 0.501157 -0.002458
C23   C     C_R   0.901627 0.573324 0.427050 -0.008894
C24   C     C_R   0.098364 0.426816 0.572883 -0.009124
C25   C     C_R   0.962496 0.370935 0.650131 -0.175836
C26   C     C_R   0.037543 0.629340 0.349986 -0.175814
Cu1   Cu    Cu3+1 0.515770 0.521810 0.644910 0.987019
Cu2   Cu    Cu3+1 0.484230 0.478190 0.355090 0.986941
H1    H     H_    0.784728 0.370862 0.609004 0.163478
H2    H     H_    0.215339 0.629477 0.391264 0.162411
H3    H     H_    0.929985 0.326379 0.712705 0.154118
H4    H     H_    0.070073 0.673924 0.287457 0.153891
H5    H     H_    0.472763 0.858708 0.373360 0.171795
H6    H     H_    0.482745 0.138599 0.620970 0.183518
H7    H     H_    0.442358 0.415668 0.841855 0.188600
H8    H     H_    0.557619 0.584337 0.158123 0.191066
N1    N     N_2   0.460520 0.445420 0.137370 -0.159952
N2    N     N_2   0.539480 0.554580 0.862630 -0.158612
O1    O     O_R   0.508410 0.332340 0.577400 -0.595252
O2    O     O_R   0.491590 0.667660 0.422600 -0.593793
O3    O     O_R   0.481780 0.295500 0.332650 -0.571344
O4    O     O_R   0.518220 0.704500 0.667350 -0.572268
O5    O     O_R   0.383570 0.518390 0.622380 -0.572043
O6    O     O_R   0.616430 0.481610 0.377620 -0.571549
O7    O     O_R   0.356940 0.481550 0.377630 -0.572954
O8    O     O_R   0.643060 0.518450 0.622370 -0.571764
S1    S     S_3+6 0.763395 0.741972 0.468402 -0.025670
O9    O     O_2   0.835659 0.846350 0.490186 -0.288384
O10   O     O_2   0.694726 0.725249 0.334595 -0.353690
O11   O     O_3   0.712711 0.791294 0.618870 -0.555430
H9    H     H_    0.703247 0.884662 0.640328 0.372157
S2    S     S_3+6 0.236352 0.257826 0.530628 -0.028713
O12   O     O_2   0.305503 0.274218 0.663762 -0.358420
O13   O     O_2   0.164072 0.153679 0.509504 -0.288665
O14   O     O_3   0.286304 0.208543 0.379360 -0.557269
H10   H     H_    0.293683 0.114244 0.355185 0.370618
C27   C     C_3   0.108049 0.339290 0.781729 -0.727807
H11   H     H_    0.080739 0.387775 0.886084 0.194379
H12   H     H_    0.100837 0.231911 0.751741 0.273487
H13   H     H_    0.180182 0.375052 0.807268 0.245685
C28   C     C_3   0.892008 0.660628 0.218020 -0.728024
H14   H     H_    0.919646 0.612544 0.113919 0.194486
H15   H     H_    0.819990 0.624219 0.191950 0.245355
H16   H     H_    0.898817 0.768034 0.248095 0.273578
C29   C     C_3   0.523910 0.983123 0.759428 -0.865579
H17   H     H_    0.540644 0.932506 0.836551 0.252464
H18   H     H_    0.582458 0.052957 0.776707 0.236420
H19   H     H_    0.463933 0.038034 0.789593 0.238198
C30   C     C_3   0.495349 0.019066 0.243734 -0.867776
H20   H     H_    0.503252 0.072092 0.170356 0.249263
H21   H     H_    0.554114 0.959469 0.242848 0.249158
H22   H     H_    0.432247 0.953509 0.196229 0.235562
C31   C     C_3   0.608877 0.655959 0.957581 -0.485077
H23   H     H_    0.639681 0.700068 0.890139 0.238193
H24   H     H_    0.579298 0.734993 0.042440 0.174672
H25   H     H_    0.663088 0.613706 0.011037 0.186195
C32   C     C_3   0.390944 0.344304 0.042460 -0.482954
H26   H     H_    0.360195 0.300089 0.109859 0.240148
H27   H     H_    0.336742 0.386850 0.989365 0.185142
H28   H     H_    0.420318 0.265286 0.957265 0.172124

loop_
_geom_bond_atom_site_label_1
_geom_bond_atom_site_label_2
_ccdc_geom_bond_type
C25   H3    S    
O14   H10   S    
C26   H4    S    
C28   H16   S    
C17   H1    S    
C31   H23   S    
C7    C8    S    
S1    O10   D    
C32   H26   S    
C1    C5    S    
C19   C21   A    
C30   H20   S    
C27   H12   S    
Cu2   O2    S    
Cu1   N2    S    
Cu2   O3    S    
C13   C23   A    
C30   H21   S    
C14   C24   A    
C28   H15   S    
C5    C30   S    
C17   C19   A    
C6    C29   S    
C14   S2    S    
Cu1   O1    S    
C29   H18   S    
C9    H8    S    
C11   O5    A    
C10   H7    S    
C18   H2    S    
C9    C10   S    
C18   C20   A    
S2    O14   S    
C21   C22   A    
C31   H24   S    
C3    C24   A    
C2    C6    S    
S2    O13   D    
S1    O11   S    
C32   H27   S    
Cu2   O7    S    
C3    C25   A    
C12   O8    A    
C13   S1    S    
C4    C23   A    
C27   H13   S    
C6    C8    D    
N1    C32   S    
C4    C28   S    
Cu2   O6    S    
C30   H22   S    
C2    O2    A    
C11   C16   S    
S1    O9    D    
C12   C15   S    
C29   H19   S    
C9    N1    D    
O11   H9    S    
C3    C27   S    
Cu1   O8    S    
C1    O3    A    
C20   C22   A    
C13   C15   A    
C31   H25   S    
C22   C24   A    
C11   O7    A    
S2    O12   D    
C5    C7    D    
C32   H28   S    
C15   C17   A    
C4    C26   A    
C10   N2    D    
C21   C23   A    
C12   O6    A    
Cu1   O4    S    
C27   H11   S    
C20   C26   A    
Cu2   N1    S    
C2    O4    A    
C7    H6    S    
C14   C16   A    
C8    H5    S    
C28   H14   S    
C19   C25   A    
C1    O1    A    
Cu1   O5    S    
C16   C18   A    
C29   H17   S    
Cu1   Cu2   S    
N2    C31   S    
