data_mof_unit_39635.cif
_audit_creation_date              2012-12-10T17:51:25-0500
_audit_creation_method            fapswitch 2.2
_symmetry_space_group_name_H-M    P1
_symmetry_Int_Tables_number       1
_space_group_crystal_system       triclinic
_cell_length_a                    9.930848
_cell_length_b                    10.688434
_cell_length_c                    16.747598
_cell_angle_alpha                 93.7865
_cell_angle_beta                  87.144046
_cell_angle_gamma                 90.573072
_cell_volume                      1771.5534846

loop_
_atom_site_label
_atom_site_type_symbol
_atom_type_description
_atom_site_fract_x
_atom_site_fract_y
_atom_site_fract_z
_atom_type_partial_charge
C1    C     C_R   0.501126 0.736158 0.486350 0.913193
C2    C     C_R   0.348302 0.433018 0.773216 -0.286852
C3    C     C_R   0.409370 0.411009 0.139364 -0.154433
C4    C     C_R   0.403629 0.450425 0.219963 -0.216327
C5    C     C_R   0.648181 0.457249 0.218550 -0.208295
C6    C     C_R   0.653887 0.417260 0.138038 -0.202860
C7    C     C_R   0.534869 0.392506 0.098205 0.211926
C8    C     C_2   0.445830 0.318940 0.967434 -0.212556
C9    C     C_2   0.546567 0.364851 0.011662 -0.234454
C10   C     C_R   0.522971 0.472395 0.260217 -0.023552
C11   C     C_R   0.258467 0.869994 0.440353 -0.110739
C12   C     C_R   0.483371 0.490340 0.652526 0.895007
C13   C     C_R   0.134005 0.924678 0.459254 -0.129097
C14   C     C_R   0.127171 0.039760 0.501973 -0.181443
C15   C     C_R   0.244705 0.104732 0.521297 -0.137206
C16   C     C_R   0.373099 0.054687 0.496648 0.052895
C17   C     C_R   0.377843 0.929693 0.466248 0.055166
C18   C     C_R   0.500985 0.866172 0.466021 -0.375455
C19   C     C_R   0.623135 0.932908 0.464261 0.356358
C20   C     C_R   0.621583 0.058603 0.490374 0.390913
C21   C     C_R   0.496794 0.122283 0.502461 -0.349363
C22   C     C_R   0.862745 0.695021 0.598264 0.599951
C23   C     C_R   0.498780 0.258923 0.504030 0.916872
C24   C     C_R   0.945808 0.794226 0.629448 -0.324772
C25   C     C_R   0.082266 0.782152 0.630555 -0.260351
C26   C     C_R   0.142053 0.676867 0.595184 -0.113870
C27   C     C_R   0.071321 0.589140 0.547278 0.076307
C28   C     C_R   0.926331 0.592962 0.547876 -0.035006
C29   C     C_R   0.929613 0.415669 0.451972 0.522418
C30   C     C_R   0.074771 0.415899 0.453410 -0.302859
C31   C     C_R   0.516606 0.496563 0.346807 0.818183
C32   C     C_R   0.475958 0.449240 0.734688 -0.143559
C33   C     C_R   0.593173 0.410596 0.770956 0.477147
C34   C     C_R   0.576009 0.341788 0.839213 -0.307773
C35   C     C_R   0.451298 0.338857 0.881549 0.161350
C36   C     C_R   0.336551 0.381510 0.847329 -0.180518
H1    H     H_    0.260544 0.779967 0.406673 0.153793
H2    H     H_    0.030190 0.078119 0.519488 0.176717
H3    H     H_    0.232277 0.190474 0.558609 0.166197
H4    H     H_    0.907593 0.877984 0.661651 0.117678
H5    H     H_    0.141968 0.853156 0.662029 0.174161
H6    H     H_    0.245384 0.669233 0.606028 0.220391
H7    H     H_    0.741680 0.473708 0.248370 0.169486
H8    H     H_    0.351468 0.287881 0.995256 0.138360
H9    H     H_    0.661584 0.298703 0.863560 0.119347
N1    N     N_R   0.857140 0.501200 0.500750 -0.144364
N2    N     N_R   0.142740 0.501280 0.500770 -0.117670
O1    O     O_R   0.385310 0.683220 0.500000 -0.653455
O2    O     O_R   0.614640 0.683250 0.500010 -0.527642
O3    O     O_R   0.371780 0.500010 0.615800 -0.665933
O4    O     O_R   0.601110 0.500030 0.615800 -0.504658
O5    O     O_R   0.385360 0.316750 0.499990 -0.636048
O6    O     O_R   0.614690 0.316780 0.500000 -0.524963
O7    O     O_R   0.398890 0.499970 0.384200 -0.629257
O8    O     O_R   0.628220 0.499990 0.384200 -0.592194
Zn1   Zn    Zn3+2 0.346870 0.499980 0.499990 0.908967
Zn2   Zn    Zn3+2 0.653130 0.500020 0.500010 1.053656
O9    O     O_3   0.720485 0.438103 0.736973 -0.601647
C37   C     C_3   0.820987 0.452665 0.794126 0.081097
H10   H     H_    0.858220 0.359237 0.808102 0.128990
H11   H     H_    0.783142 0.505873 0.850160 0.133945
C38   C     C_3   0.940347 0.524836 0.759703 -0.817027
H12   H     H_    0.909782 0.622177 0.750939 0.258876
H13   H     H_    0.022899 0.528325 0.802141 0.193527
H14   H     H_    0.977897 0.478292 0.701742 0.254373
H15   H     H_    0.751543 0.406268 0.106601 0.121232
O10   O     O_3   0.745263 0.876049 0.440732 -0.584857
C39   C     C_3   0.739668 0.828324 0.359789 0.156371
H16   H     H_    0.713910 0.903440 0.320233 0.115561
H17   H     H_    0.663679 0.751824 0.353212 0.130317
C40   C     C_3   0.875129 0.773824 0.329848 -0.859407
H18   H     H_    0.910673 0.707437 0.372468 0.255022
H19   H     H_    0.864830 0.722404 0.270615 0.204932
H20   H     H_    0.950036 0.850399 0.322354 0.237287
H21   H     H_    0.042531 0.875055 0.444801 0.184769
O11   O     O_3   0.743233 0.119312 0.503237 -0.547727
C41   C     C_3   0.768848 0.119640 0.585728 0.093057
H22   H     H_    0.830682 0.037021 0.595109 0.138897
H23   H     H_    0.675800 0.117035 0.626043 0.101454
C42   C     C_3   0.847360 0.237089 0.611861 -0.755898
H24   H     H_    0.939838 0.249180 0.573599 0.217982
H25   H     H_    0.784207 0.320682 0.608076 0.309458
H26   H     H_    0.876334 0.231248 0.674631 0.199776
O12   O     O_3   0.854680 0.332655 0.403600 -0.548714
C43   C     C_3   0.932240 0.249974 0.351172 0.105235
H27   H     H_    0.989967 0.185243 0.385778 0.161752
H28   H     H_    0.000904 0.302773 0.310690 0.107202
C44   C     C_3   0.838055 0.171123 0.299201 -0.782314
H29   H     H_    0.785151 0.231556 0.259606 0.241450
H30   H     H_    0.896622 0.099326 0.261557 0.191825
H31   H     H_    0.761932 0.123490 0.337497 0.276436
O13   O     O_3   0.727144 0.689088 0.624160 -0.537347
C45   C     C_3   0.678002 0.794232 0.673422 0.115764
H32   H     H_    0.684380 0.879684 0.639217 0.116887
H33   H     H_    0.734031 0.806264 0.729387 0.125205
C46   C     C_3   0.530774 0.777924 0.700333 -0.840829
H34   H     H_    0.520767 0.705355 0.744578 0.238695
H35   H     H_    0.492408 0.867421 0.730051 0.197572
H36   H     H_    0.468527 0.752883 0.648675 0.249476
H37   H     H_    0.305636 0.461870 0.250866 0.153549
H38   H     H_    0.135226 0.348500 0.417015 0.148896
H39   H     H_    0.639047 0.398495 0.982775 0.139583
H40   H     H_    0.238954 0.379293 0.879174 0.130087
H41   H     H_    0.315537 0.398510 0.109692 0.118604
H42   H     H_    0.257494 0.462539 0.746804 0.181709

loop_
_geom_bond_atom_site_label_1
_geom_bond_atom_site_label_2
_ccdc_geom_bond_type
C3    H41   S    
C8    C9    D    
C24   C25   A    
C45   H32   S    
C35   C36   A    
C41   H22   S    
C28   N1    A    
C1    C18   S    
C33   O9    S    
C36   H40   S    
C18   C19   A    
C3    C7    A    
C5    C6    A    
C41   C42   S    
C2    C36   A    
C15   C16   A    
C46   H36   S    
O2    Zn2   S    
C20   O11   S    
C2    C32   A    
C34   C35   A    
C11   H1    S    
C38   H13   S    
C39   H16   S    
C10   C31   S    
C13   H21   S    
C9    H39   S    
C46   H35   S    
C19   O10   S    
O4    Zn2   S    
C43   H28   S    
C5    H7    S    
C37   H10   S    
C45   H33   S    
C22   C28   A    
C13   C14   A    
C12   C32   S    
C42   H26   S    
C23   O6    A    
C41   H23   S    
O7    Zn1   S    
C37   H11   S    
O10   C39   S    
C30   N2    A    
O12   C43   S    
C29   O12   S    
C42   H25   S    
C25   H5    S    
C40   H19   S    
O6    Zn2   S    
C16   C17   A    
C25   C26   A    
C43   H27   S    
O3    Zn1   S    
C8    C35   S    
C29   C30   A    
C14   H2    S    
C44   H31   S    
C46   H34   S    
C20   C21   A    
C38   H12   S    
C17   C18   A    
C26   C27   A    
C1    O1    A    
C34   H9    S    
O11   C41   S    
C15   H3    S    
C44   H30   S    
C45   C46   S    
O8    Zn2   S    
N1    Zn2   S    
C22   C24   A    
C4    C10   A    
C3    C4    A    
C12   O4    A    
C26   H6    S    
C43   C44   S    
C27   N2    A    
O1    Zn1   S    
C11   C17   A    
C37   C38   S    
C38   H14   S    
C8    H8    S    
C42   H24   S    
C40   H20   S    
C12   O3    A    
C16   C21   A    
C6    C7    A    
C2    H42   S    
C4    H37   S    
C29   N1    A    
C32   C33   A    
C19   C20   A    
C21   C23   S    
O9    C37   S    
C5    C10   A    
C11   C13   A    
C23   O5    A    
C39   C40   S    
C30   H38   S    
O13   C45   S    
C24   H4    S    
C33   C34   A    
C31   O7    A    
C7    C9    S    
C6    H15   S    
C40   H18   S    
C44   H29   S    
C39   H17   S    
C27   C28   A    
C22   O13   S    
C14   C15   A    
C31   O8    A    
C1    O2    A    
O5    Zn1   S    
N2    Zn1   S    
