data_mof_unit_66203.cif
_audit_creation_date              2012-12-10T20:13:18-0500
_audit_creation_method            fapswitch 2.2
_symmetry_space_group_name_H-M    P1
_symmetry_Int_Tables_number       1
_space_group_crystal_system       triclinic
_cell_length_a                    19.01573
_cell_length_b                    18.655391
_cell_length_c                    15.751526
_cell_angle_alpha                 88.648248
_cell_angle_beta                  91.307711
_cell_angle_gamma                 90.07205
_cell_volume                      5584.77749867

loop_
_atom_site_label
_atom_site_type_symbol
_atom_type_description
_atom_site_fract_x
_atom_site_fract_y
_atom_site_fract_z
_atom_type_partial_charge
C1    C     C_R   0.365809 0.499932 0.500844 0.972493
C2    C     C_3   0.562283 0.462358 0.954801 0.729125
C3    C     C_3   0.564773 0.470651 0.054865 0.590919
C4    C     C_1   0.493329 0.494956 0.825603 0.109222
C5    C     C_1   0.493146 0.504220 0.174427 0.177519
C6    C     C_1   0.495831 0.503227 0.249679 -0.141306
C7    C     C_R   0.754330 0.507018 0.448608 0.387270
C8    C     C_R   0.736333 0.490739 0.601813 0.310909
C9    C     C_R   0.826965 0.504820 0.464191 -0.239988
C10   C     C_R   0.808552 0.489756 0.615539 -0.134293
C11   C     C_R   0.853411 0.496086 0.547276 0.114757
C12   C     C_R   0.709227 0.499505 0.517474 -0.179839
C13   C     C_R   0.965140 0.548445 0.599086 0.391779
C14   C     C_R   0.964418 0.430334 0.534964 0.304412
C15   C     C_R   0.499179 0.500886 0.338429 0.893200
C16   C     C_R   0.038352 0.546401 0.606430 0.294672
C17   C     C_R   0.038192 0.430243 0.535833 0.356322
C18   C     C_R   0.074598 0.488932 0.569989 -0.053425
C19   C     C_R   0.928820 0.491148 0.562190 -0.252911
C20   C     C_R   0.198856 0.474300 0.617046 0.313260
C21   C     C_R   0.170444 0.518516 0.472901 0.470947
C22   C     C_R   0.270851 0.479367 0.599611 0.296776
C23   C     C_R   0.241502 0.519154 0.453052 0.264323
C24   C     C_R   0.291436 0.499231 0.517026 -0.297654
C25   C     C_R   0.149534 0.494700 0.553776 -0.149915
C26   C     C_R   0.559154 0.726377 0.524057 0.562268
C27   C     C_R   0.524958 0.272291 0.569251 0.523126
C28   C     C_R   0.560235 0.802101 0.516685 -0.483437
C29   C     C_R   0.518481 0.197055 0.573047 -0.464710
C30   C     C_R   0.497557 0.841175 0.505069 -0.013782
C31   C     C_R   0.501931 0.158683 0.499553 -0.024514
C32   C     C_R   0.634260 0.499994 0.501153 0.948318
C33   C     C_R   0.434923 0.801481 0.493616 0.378586
C34   C     C_R   0.486975 0.199156 0.424351 0.383400
C35   C     C_R   0.439186 0.726659 0.480350 0.332821
C36   C     C_R   0.477915 0.274485 0.429055 0.344423
C37   C     C_R   0.454864 0.963759 0.446880 0.443008
C38   C     C_R   0.448595 0.038250 0.455533 0.441647
C39   C     C_R   0.500709 0.077132 0.501792 -0.231842
C40   C     C_R   0.498350 0.922722 0.504539 -0.231136
C41   C     C_R   0.551031 0.036291 0.550777 0.380090
C42   C     C_R   0.543578 0.961415 0.560540 0.377604
C43   C     C_R   0.500081 0.499104 0.661723 0.907450
C44   C     C_3   0.481155 0.580561 0.044226 0.593283
C45   C     C_3   0.429813 0.449911 0.052821 0.573297
C46   C     C_3   0.424410 0.447037 0.951401 0.776600
C47   C     C_3   0.472562 0.578406 0.943369 0.696224
C48   C     C_1   0.497467 0.496602 0.750472 -0.202971
C49   C     C_3   0.491762 0.501868 0.082434 -0.195896
C50   C     C_3   0.488673 0.496290 0.917005 -0.364198
H1    H     H_    0.609767 0.830112 0.523869 0.225015
H2    H     H_    0.530555 0.169084 0.632569 0.235770
H3    H     H_    0.862995 0.509723 0.412017 0.155183
H4    H     H_    0.829862 0.482851 0.679636 0.173034
N1    N     N_R   0.499980 0.689440 0.500010 -0.185919
N2    N     N_R   0.499980 0.310560 0.500010 -0.190226
O1    O     O_R   0.398180 0.560840 0.500000 -0.599523
O2    O     O_R   0.398180 0.439160 0.500000 -0.620778
O3    O     O_R   0.500010 0.560840 0.377160 -0.631729
O4    O     O_R   0.500010 0.439160 0.377160 -0.588675
O5    O     O_R   0.601820 0.560790 0.500040 -0.538613
O6    O     O_R   0.601820 0.439210 0.500040 -0.634764
O7    O     O_R   0.500000 0.560790 0.622880 -0.619204
O8    O     O_R   0.500000 0.439210 0.622880 -0.553218
Zn1   Zn    Zn3+2 0.500000 0.581210 0.500030 1.009139
Zn2   Zn    Zn3+2 0.500000 0.418790 0.500030 1.000981
O9    O     O_3   0.401920 0.599953 0.919827 -0.605948
C51   C     C_3   0.387345 0.609987 0.831213 0.177394
H5    H     H_    0.367270 0.559667 0.803567 0.195379
H6    H     H_    0.433217 0.627327 0.793629 0.148418
C52   C     C_3   0.329613 0.665807 0.818604 -0.823161
H7    H     H_    0.317154 0.673601 0.749772 0.220715
H8    H     H_    0.281375 0.647627 0.851269 0.273525
H9    H     H_    0.346927 0.717737 0.845028 0.245050
O10   O     O_3   0.358380 0.476173 0.921078 -0.632963
C53   C     C_3   0.297793 0.433754 0.937147 0.159166
H10   H     H_    0.305909 0.391725 0.987565 0.162504
H11   H     H_    0.280842 0.407207 0.877903 0.109033
C54   C     C_3   0.237246 0.482446 0.960293 -0.698744
H12   H     H_    0.225047 0.520498 0.906673 0.250259
H13   H     H_    0.189738 0.449688 0.973305 0.191782
H14   H     H_    0.250856 0.513587 0.017474 0.291816
O11   O     O_3   0.071977 0.603565 0.644357 -0.730555
H15   H     H_    0.122916 0.593859 0.650817 0.348050
O12   O     O_3   0.076384 0.375511 0.501047 -0.754016
H16   H     H_    0.044060 0.339428 0.476625 0.373812
O13   O     O_3   0.176046 0.453232 0.696665 -0.606859
C55   C     C_3   0.175406 0.377542 0.702528 0.111114
H17   H     H_    0.229901 0.356553 0.711083 0.144518
H18   H     H_    0.150571 0.353130 0.645297 0.187712
C56   C     C_3   0.133004 0.353993 0.778968 -0.836342
H19   H     H_    0.077851 0.372952 0.770839 0.259860
H20   H     H_    0.133060 0.294579 0.785167 0.213068
H21   H     H_    0.156267 0.376586 0.837793 0.254332
O14   O     O_3   0.120206 0.535357 0.410731 -0.547087
C57   C     C_3   0.108593 0.610138 0.409488 0.127827
H22   H     H_    0.151953 0.638169 0.375989 0.202006
H23   H     H_    0.104674 0.631941 0.474540 0.124488
C58   C     C_3   0.039601 0.626255 0.362200 -0.820957
H24   H     H_    0.995616 0.598490 0.394629 0.232769
H25   H     H_    0.029542 0.684894 0.361010 0.210607
H26   H     H_    0.042087 0.607583 0.295910 0.279409
O15   O     O_3   0.322303 0.465761 0.661399 -0.790856
H27   H     H_    0.300567 0.463058 0.717884 0.347191
O16   O     O_3   0.259166 0.538655 0.370931 -0.710302
H28   H     H_    0.310457 0.534190 0.363586 0.322776
O17   O     O_3   0.618160 0.688717 0.552542 -0.564833
C59   C     C_3   0.644702 0.716718 0.629779 0.061762
H29   H     H_    0.602325 0.737268 0.670722 0.131503
H30   H     H_    0.682710 0.760586 0.616094 0.164679
C60   C     C_3   0.683040 0.657944 0.680351 -0.761039
H31   H     H_    0.726304 0.636179 0.642601 0.269996
H32   H     H_    0.705511 0.679818 0.740055 0.202309
H33   H     H_    0.645537 0.614413 0.696527 0.265991
O18   O     O_3   0.555905 0.307182 0.636461 -0.594842
C61   C     C_3   0.629565 0.297131 0.633744 0.099608
H34   H     H_    0.652196 0.332814 0.583960 0.175723
H35   H     H_    0.644823 0.240744 0.620949 0.133784
C62   C     C_3   0.662336 0.315786 0.718924 -0.804041
H36   H     H_    0.646903 0.274973 0.767462 0.237646
H37   H     H_    0.720567 0.316674 0.714880 0.220681
H38   H     H_    0.643572 0.369183 0.737841 0.294382
O19   O     O_3   0.371011 0.836739 0.492976 -0.704076
H39   H     H_    0.332247 0.801265 0.491096 0.380470
O20   O     O_3   0.479862 0.164231 0.348182 -0.698531
H40   H     H_    0.475042 0.199898 0.300850 0.389678
O21   O     O_3   0.382338 0.693075 0.443628 -0.744828
H41   H     H_    0.401626 0.658583 0.403383 0.369794
O22   O     O_3   0.444525 0.309934 0.362277 -0.737771
H42   H     H_    0.414957 0.347242 0.387167 0.368821
O23   O     O_3   0.416913 0.933446 0.381170 -0.629425
H43   H     H_    0.442553 0.890528 0.362781 0.341549
O24   O     O_3   0.390855 0.070819 0.416561 -0.631936
H44   H     H_    0.378922 0.113884 0.448877 0.337651
O25   O     O_3   0.607876 0.067339 0.591663 -0.702556
H45   H     H_    0.623086 0.109262 0.556930 0.329943
O26   O     O_3   0.582931 0.928150 0.624714 -0.706719
H46   H     H_    0.556301 0.885928 0.645771 0.328452
O27   O     O_3   0.423247 0.614959 0.081439 -0.745896
H47   H     H_    0.378240 0.594518 0.061172 0.405790
O28   O     O_3   0.365951 0.474263 0.085856 -0.816631
H48   H     H_    0.364246 0.460040 0.146919 0.360160
O29   O     O_3   0.443058 0.380171 0.086773 -0.670623
H49   H     H_    0.399295 0.351544 0.080291 0.355891
O30   O     O_3   0.540916 0.621879 0.065343 -0.731802
H50   H     H_    0.539469 0.633261 0.126557 0.381942
O31   O     O_3   0.431500 0.373412 0.927193 -0.581120
C63   C     C_3   0.407563 0.356759 0.843840 0.099571
H51   H     H_    0.393721 0.403966 0.802888 0.163782
H52   H     H_    0.359926 0.322624 0.848900 0.126023
C64   C     C_3   0.462236 0.312326 0.799922 -0.665181
H53   H     H_    0.472665 0.262003 0.836977 0.238869
H54   H     H_    0.442032 0.298253 0.735760 0.219786
H55   H     H_    0.511871 0.342922 0.793241 0.290599
O32   O     O_3   0.520558 0.627149 0.903956 -0.683994
C65   C     C_3   0.505776 0.701033 0.915760 0.208257
H56   H     H_    0.474212 0.711506 0.972704 0.216989
H57   H     H_    0.476530 0.723375 0.859527 0.130870
C66   C     C_3   0.574693 0.742352 0.922437 -0.850539
H58   H     H_    0.606044 0.734181 0.864789 0.240907
H59   H     H_    0.563706 0.800477 0.927995 0.224960
H60   H     H_    0.605836 0.723813 0.979182 0.288487
O33   O     O_3   0.620755 0.515299 0.080957 -0.775717
H61   H     H_    0.665263 0.488998 0.072132 0.344577
O34   O     O_3   0.574617 0.402778 0.095984 -0.712461
H62   H     H_    0.592650 0.409946 0.154846 0.360746
O35   O     O_3   0.624935 0.485708 0.911666 -0.663259
C67   C     C_3   0.644087 0.558398 0.906684 0.129141
H63   H     H_    0.628834 0.589360 0.961787 0.264479
H64   H     H_    0.622570 0.582045 0.846334 0.211242
C68   C     C_3   0.723713 0.563354 0.901407 -0.835550
H65   H     H_    0.741924 0.534666 0.844927 0.291330
H66   H     H_    0.739892 0.620462 0.895690 0.220288
H67   H     H_    0.748936 0.539044 0.959471 0.256898
O36   O     O_3   0.558575 0.386904 0.939881 -0.542687
C69   C     C_3   0.624580 0.350788 0.944740 0.265448
H68   H     H_    0.661018 0.372213 0.994221 0.156783
H69   H     H_    0.651236 0.356552 0.883370 0.146862
C70   C     C_3   0.612848 0.271507 0.964133 -0.783674
H70   H     H_    0.581805 0.246963 0.911941 0.240383
H71   H     H_    0.664321 0.243631 0.970483 0.196220
H72   H     H_    0.584255 0.264477 0.024451 0.304634
O37   O     O_3   0.726263 0.515558 0.367299 -0.756806
H73   H     H_    0.765210 0.519922 0.326670 0.342107
O38   O     O_3   0.695063 0.483695 0.672526 -0.789170
H74   H     H_    0.644805 0.485699 0.655726 0.324169
O39   O     O_3   0.928696 0.606477 0.629018 -0.558653
C71   C     C_3   0.925768 0.660588 0.564750 0.141134
H75   H     H_    0.897767 0.641270 0.506768 0.122379
H76   H     H_    0.979499 0.678878 0.547571 0.170201
C72   C     C_3   0.885809 0.724693 0.596835 -0.773540
H77   H     H_    0.912858 0.745835 0.654253 0.269193
H78   H     H_    0.883337 0.767653 0.546856 0.207038
H79   H     H_    0.831432 0.708671 0.612997 0.249124
O40   O     O_3   0.926774 0.374198 0.500287 -0.588254
C73   C     C_3   0.908990 0.325561 0.566479 0.095848
H80   H     H_    0.885086 0.353046 0.620916 0.134619
H81   H     H_    0.956577 0.295727 0.589725 0.145002
C74   C     C_3   0.855333 0.272153 0.532861 -0.784824
H82   H     H_    0.841315 0.233223 0.584169 0.204586
H83   H     H_    0.877513 0.242535 0.479319 0.265242
H84   H     H_    0.806967 0.300831 0.510410 0.252503

loop_
_geom_bond_atom_site_label_1
_geom_bond_atom_site_label_2
_ccdc_geom_bond_type
C44   C49   S    
C68   H65   S    
O7    Zn1   S    
O34   H62   S    
C13   O39   S    
C27   C29   A    
C41   C42   A    
O16   H28   S    
O14   C57   S    
C53   C54   S    
C41   O25   S    
C14   O40   S    
C26   N1    A    
C54   H14   S    
O30   H50   S    
C3    C49   S    
C43   O7    A    
O25   H45   S    
C39   C41   A    
C45   C46   S    
C61   H34   S    
C68   H66   S    
C11   C19   S    
C71   C72   S    
C17   O12   S    
C65   H56   S    
C63   H52   S    
C32   O5    A    
C37   C40   A    
C34   O20   S    
C66   H58   S    
C5    C6    T    
C28   H1    S    
C67   H64   S    
C38   O24   S    
C56   H20   S    
C20   C25   A    
O29   H49   S    
C23   O16   S    
C20   O13   S    
C36   O22   S    
C59   H29   S    
C71   H76   S    
C15   O4    A    
C64   H55   S    
C2    C50   S    
C6    C15   S    
O2    Zn2   S    
C67   C68   S    
O31   C63   S    
C61   H35   S    
C51   H5    S    
C57   H23   S    
C74   H84   S    
O17   C59   S    
C66   H59   S    
O15   H27   S    
C43   C48   S    
C30   C33   A    
C44   C47   S    
C3    O33   S    
C70   H72   S    
C40   C42   A    
C64   H53   S    
O4    Zn2   S    
C74   H82   S    
C12   C32   S    
C42   O26   S    
C45   O28   S    
C14   C17   A    
C5    C49   S    
C18   C25   S    
C73   C74   S    
C47   O9    S    
C46   O10   S    
N1    Zn1   S    
C43   O8    A    
C17   C18   A    
C47   C50   S    
C62   H37   S    
C7    C12   A    
C68   H67   S    
C31   C34   A    
O6    Zn2   S    
C35   N1    A    
C72   H77   S    
C61   C62   S    
O19   H39   S    
C63   C64   S    
C38   C39   A    
C63   H51   S    
C73   H81   S    
O1    Zn1   S    
O35   C67   S    
C54   H13   S    
C13   C19   A    
C27   N2    A    
O40   C73   S    
C21   O14   S    
O12   H16   S    
C16   O11   S    
C22   O15   S    
O9    C51   S    
C4    C50   S    
C71   H75   S    
O8    Zn2   S    
O10   C53   S    
C72   H78   S    
O37   H73   S    
C37   C38   A    
C36   N2    A    
C1    O1    A    
C2    O36   S    
C57   C58   S    
C46   O31   S    
C31   C39   S    
C55   C56   S    
C45   C49   S    
C8    C12   A    
C57   H22   S    
C44   O30   S    
C66   H60   S    
C30   C40   S    
C60   H32   S    
C16   C18   A    
C53   H10   S    
C62   H36   S    
C35   O21   S    
C9    C11   A    
C1    C24   S    
C51   H6    S    
C69   H68   S    
C58   H25   S    
C55   H18   S    
C44   O27   S    
C21   C23   A    
O24   H44   S    
C22   C24   A    
C54   H12   S    
O11   H15   S    
C9    H3    S    
C20   C22   A    
O21   H41   S    
C56   H19   S    
C33   O19   S    
C3    O34   S    
C74   H83   S    
O22   H42   S    
C4    C48   T    
C62   H38   S    
C7    C9    A    
C21   C25   A    
C67   H63   S    
C60   H31   S    
C15   O3    A    
C14   C19   A    
C65   C66   S    
C53   H11   S    
C73   H80   S    
C26   O17   S    
C52   H9    S    
O27   H47   S    
C59   C60   S    
C8    O38   S    
O26   H46   S    
C46   C50   S    
C26   C28   A    
C58   H24   S    
C7    O37   S    
C69   C70   S    
C65   H57   S    
C2    C3    S    
C72   H79   S    
C32   O6    A    
C52   H7    S    
C29   C31   A    
O36   C69   S    
O28   H48   S    
O3    Zn1   S    
C56   H21   S    
O38   H74   S    
O20   H40   S    
C47   O32   S    
C51   C52   S    
N2    Zn2   S    
C28   C30   A    
C33   C35   A    
C59   H30   S    
C60   H33   S    
C34   C36   A    
C64   H54   S    
O23   H43   S    
C10   H4    S    
O33   H61   S    
C10   C11   A    
C23   C24   A    
C70   H70   S    
O5    Zn1   S    
O39   C71   S    
C58   H26   S    
C55   H17   S    
C37   O23   S    
O13   C55   S    
C8    C10   A    
C13   C16   A    
C52   H8    S    
O32   C65   S    
C45   O29   S    
C1    O2    A    
C2    O35   S    
O18   C61   S    
C69   H69   S    
C70   H71   S    
C29   H2    S    
C27   O18   S    
