data_mof_unit_8442.cif
_audit_creation_date              2012-12-11T15:50:43-0500
_audit_creation_method            fapswitch 2.2
_symmetry_space_group_name_H-M    P1
_symmetry_Int_Tables_number       1
_space_group_crystal_system       triclinic
_cell_length_a                    19.139615
_cell_length_b                    11.037319
_cell_length_c                    18.815401
_cell_angle_alpha                 90.030404
_cell_angle_beta                  91.345411
_cell_angle_gamma                 89.786549
_cell_volume                      3973.63039481

loop_
_atom_site_label
_atom_site_type_symbol
_atom_type_description
_atom_site_fract_x
_atom_site_fract_y
_atom_site_fract_z
_atom_type_partial_charge
C1    C     C_R   0.274195 0.039101 0.854755 0.588665
C2    C     C_R   0.760330 0.574276 0.927837 0.044176
C3    C     C_R   0.228700 0.547388 0.352931 0.541114
C4    C     C_R   0.468233 0.823739 0.646406 0.568383
C5    C     C_R   0.531470 0.823200 0.353541 0.552099
C6    C     C_R   0.967274 0.323666 0.645978 0.561140
C7    C     C_R   0.030709 0.323202 0.353031 0.551021
C8    C     C_R   0.262039 0.644292 0.641188 0.590066
C9    C     C_R   0.740801 0.636996 0.355645 0.543875
C10   C     C_R   0.774021 0.189450 0.637030 0.567309
C11   C     C_R   0.241444 0.135094 0.354810 0.542411
C12   C     C_3   0.480322 0.928441 0.034724 0.292380
C13   C     C_R   0.740055 0.074464 0.072272 0.040393
C14   C     C_3   0.519738 0.924448 0.964715 0.296784
C15   C     C_3   0.980320 0.428504 0.034709 0.292574
C16   C     C_3   0.019741 0.424364 0.964706 0.296530
C17   C     C_3   0.427846 0.832991 0.005921 -0.155628
C18   C     C_3   0.568961 0.824784 0.994814 -0.153506
C19   C     C_3   0.927785 0.333132 0.005929 -0.155681
C20   C     C_3   0.068894 0.324630 0.994833 -0.153635
C21   C     C_3   0.469279 0.827249 0.936733 0.031236
C22   C     C_3   0.527624 0.827209 0.063997 0.029522
C23   C     C_3   0.969221 0.327242 0.936745 0.030765
C24   C     C_R   0.260325 0.074308 0.927831 0.044153
C25   C     C_3   0.027557 0.327209 0.064012 0.029830
C26   C     C_R   0.306259 0.562669 0.042385 -0.014036
C27   C     C_R   0.694039 0.564771 0.957488 -0.007071
C28   C     C_R   0.806248 0.062637 0.042375 -0.013871
C29   C     C_R   0.194032 0.064828 0.957481 -0.007371
C30   C     C_R   0.315223 0.580998 0.969437 -0.091830
C31   C     C_R   0.684947 0.583363 0.030413 -0.092024
C32   C     C_R   0.815209 0.080957 0.969426 -0.093164
C33   C     C_R   0.725878 0.039162 0.145234 0.583412
C34   C     C_R   0.184941 0.083412 0.030406 -0.091974
C35   C     C_R   0.191692 0.609214 0.954489 -0.094972
C36   C     C_R   0.808825 0.605663 0.045950 -0.100587
C37   C     C_R   0.691673 0.109132 0.954473 -0.094733
C38   C     C_R   0.308816 0.105710 0.045943 -0.100427
C39   C     C_R   0.182778 0.604969 0.027051 0.233697
C40   C     C_R   0.817839 0.601923 0.973297 0.229428
C41   C     C_R   0.682762 0.104897 0.027038 0.233621
C42   C     C_R   0.317831 0.101968 0.973290 0.229776
C43   C     C_3   0.352397 0.452968 0.040795 0.462902
C44   C     C_R   0.774198 0.539092 0.854757 0.590023
C45   C     C_3   0.647671 0.456147 0.958884 0.462340
C46   C     C_3   0.852395 0.952944 0.040791 0.462801
C47   C     C_3   0.147642 0.956237 0.958866 0.462347
C48   C     C_3   0.368577 0.482674 0.963779 0.135872
C49   C     C_3   0.630930 0.486705 0.035689 0.136006
C50   C     C_3   0.868559 0.982625 0.963769 0.135738
C51   C     C_3   0.130907 0.986785 0.035676 0.135952
C52   C     C_R   0.256407 0.597648 0.924703 0.006408
C53   C     C_R   0.743773 0.597458 0.075370 0.005141
C54   C     C_R   0.756395 0.097602 0.924691 0.005112
C55   C     C_R   0.225881 0.539170 0.145238 0.583428
C56   C     C_R   0.243768 0.097484 0.075365 0.005201
C57   C     C_R   0.512898 0.828758 0.427785 0.003217
C58   C     C_R   0.496783 0.835868 0.575955 0.063196
C59   C     C_R   0.011043 0.328439 0.426874 0.004626
C60   C     C_R   0.992974 0.336128 0.574618 0.066767
C61   C     C_R   0.441526 0.817883 0.862939 0.558468
C62   C     C_R   0.557097 0.817820 0.136953 0.554936
C63   C     C_R   0.941502 0.317880 0.862935 0.558706
C64   C     C_R   0.057066 0.317823 0.136951 0.555019
C65   C     C_R   0.537514 0.735240 0.471836 0.029459
C66   C     C_3   0.517467 0.727399 0.966671 -0.186320
C67   C     C_R   0.531146 0.738993 0.544313 0.039093
C68   C     C_R   0.040453 0.241160 0.472383 0.028342
C69   C     C_R   0.034044 0.246212 0.544698 0.043209
C70   C     C_R   0.478071 0.937029 0.533247 -0.090079
C71   C     C_R   0.487317 0.934225 0.459545 -0.153779
C72   C     C_R   0.967386 0.431206 0.530390 -0.090487
C73   C     C_R   0.978338 0.429180 0.456932 -0.149143
C74   C     C_3   0.523398 0.602487 0.468298 -0.244307
C75   C     C_3   0.519425 0.605202 0.548475 -0.264362
C76   C     C_3   0.035521 0.106377 0.470961 -0.252997
C77   C     C_3   0.476062 0.731538 0.035828 -0.189691
C78   C     C_3   0.033420 0.111102 0.551373 -0.270961
C79   C     C_R   0.249975 0.602194 0.419168 0.027078
C80   C     C_R   0.757379 0.572704 0.572299 0.018418
C81   C     C_R   0.751516 0.111026 0.417217 0.026533
C82   C     C_R   0.263360 0.058446 0.568639 0.014691
C83   C     C_R   0.201114 0.672272 0.455477 -0.029287
C84   C     C_R   0.809562 0.634040 0.537572 -0.021764
C85   C     C_R   0.702339 0.182661 0.452220 -0.019179
C86   C     C_R   0.316682 0.116717 0.533812 -0.021048
C87   C     C_R   0.206287 0.683885 0.527421 0.023072
C88   C     C_3   0.017337 0.227324 0.966722 -0.186390
C89   C     C_R   0.809955 0.640785 0.465541 0.064495
C90   C     C_R   0.710721 0.207473 0.523077 0.013315
C91   C     C_R   0.315601 0.126462 0.461704 0.070604
C92   C     C_R   0.313972 0.570203 0.529499 -0.172661
C93   C     C_R   0.709107 0.510096 0.457665 -0.168884
C94   C     C_R   0.825957 0.119606 0.522993 -0.162203
C95   C     C_R   0.214301 0.997228 0.454047 -0.171364
C96   C     C_R   0.310780 0.563164 0.455455 -0.172852
C97   C     C_R   0.708956 0.504391 0.531747 -0.166215
C98   C     C_R   0.816473 0.088980 0.451024 -0.162388
C99   C     C_3   0.975930 0.231616 0.035876 -0.189696
C100  C     C_R   0.215257 0.989354 0.528209 -0.166353
C101  C     C_3   0.122440 0.666998 0.457613 -0.193302
C102  C     C_3   0.836190 0.759075 0.549321 -0.226606
C103  C     C_3   0.624857 0.166281 0.458874 -0.197275
C104  C     C_3   0.345731 0.239754 0.546776 -0.235187
C105  C     C_3   0.129145 0.683419 0.537201 0.112423
C106  C     C_3   0.836642 0.768932 0.469186 0.112363
C107  C     C_3   0.634787 0.188455 0.537559 0.117942
C108  C     C_3   0.343501 0.253613 0.466983 0.107897
C109  C     C_R   0.262560 0.639496 0.852353 0.595325
C110  C     C_R   0.240067 0.574503 0.072283 0.040441
C111  C     C_R   0.737506 0.639600 0.147678 0.582681
C112  C     C_R   0.762555 0.139482 0.852348 0.603541
C113  C     C_R   0.237504 0.139607 0.147676 0.582654
C114  C     C_R   0.258437 0.623207 0.565995 0.063029
C115  C     C_R   0.756017 0.587718 0.424748 0.008773
C116  C     C_R   0.770391 0.170372 0.560807 0.040943
C117  C     C_R   0.259574 0.078278 0.421569 0.009730
C118  C     C_R   0.273612 0.039525 0.643635 0.545489
C119  C     C_R   0.728771 0.047874 0.353156 0.534870
C120  C     C_R   0.771977 0.543578 0.645362 0.540069
Cl1   Cl    Cl    0.101834 0.556236 0.587655 -0.604084
Cl2   Cl    Cl    0.652135 0.374637 0.101580 -0.557013
Cl3   Cl    Cl    0.846013 0.870836 0.898228 -0.554471
Cl4   Cl    Cl    0.152096 0.874701 0.101560 -0.557494
Cl5   Cl    Cl    0.922772 0.781100 0.435356 -0.656460
Cl6   Cl    Cl    0.619296 0.054311 0.588259 -0.584322
Cl7   Cl    Cl    0.428211 0.267487 0.430095 -0.668905
Cl8   Cl    Cl    0.472504 0.063021 0.085852 -0.561845
Cl9   Cl    Cl    0.531963 0.055664 0.912178 -0.556008
Cl10  Cl    Cl    0.972562 0.563116 0.085817 -0.563048
Cl11  Cl    Cl    0.032069 0.555488 0.912132 -0.555874
Cl12  Cl    Cl    0.346048 0.370902 0.898222 -0.559078
Cr1   Cr    Cr6+3 0.229640 0.835880 0.747370 1.103376
Cr2   Cr    Cr6+3 0.614230 0.677220 0.250660 1.083554
Cr3   Cr    Cr6+3 0.885770 0.177220 0.749340 1.073934
Cr4   Cr    Cr6+3 0.114230 0.177220 0.250660 1.082613
Cr5   Cr    Cr6+3 0.770360 0.835880 0.252630 1.120375
Cr6   Cr    Cr6+3 0.729640 0.335880 0.747370 1.098142
Cr7   Cr    Cr6+3 0.270360 0.335880 0.252630 1.120945
Cr8   Cr    Cr6+3 0.387390 0.989720 0.750850 1.142706
Cr9   Cr    Cr6+3 0.612610 0.989720 0.249150 1.139372
Cr10  Cr    Cr6+3 0.887390 0.489720 0.750850 1.144036
Cr11  Cr    Cr6+3 0.112610 0.489720 0.249150 1.136756
Cr12  Cr    Cr6+3 0.385770 0.677220 0.749340 1.072254
H1    H     H_    0.370056 0.837001 0.009268 0.117813
H2    H     H_    0.985156 0.072450 0.572894 0.160930
H3    H     H_    0.568136 0.549864 0.448779 0.158941
H4    H     H_    0.467400 0.579906 0.567563 0.160057
H5    H     H_    0.472600 0.581706 0.441290 0.166442
H6    H     H_    0.563671 0.557772 0.575815 0.146825
H7    H     H_    0.985846 0.074247 0.445748 0.171378
H8    H     H_    0.082051 0.076858 0.577819 0.150604
H9    H     H_    0.357132 0.528314 0.558112 0.134584
H10   H     H_    0.670303 0.460794 0.426676 0.132761
H11   H     H_    0.873821 0.094437 0.550240 0.135507
H12   H     H_    0.626770 0.823144 0.991340 0.120233
H13   H     H_    0.174741 0.949502 0.423140 0.131992
H14   H     H_    0.351298 0.514698 0.427996 0.167850
H15   H     H_    0.671432 0.447172 0.557176 0.122607
H16   H     H_    0.856887 0.038961 0.424297 0.167251
H17   H     H_    0.177502 0.933179 0.553851 0.125484
H18   H     H_    0.100726 0.577364 0.442016 0.202570
H19   H     H_    0.888942 0.759358 0.575358 0.195293
H20   H     H_    0.607029 0.073138 0.445729 0.198290
H21   H     H_    0.399313 0.236303 0.570839 0.188030
H22   H     H_    0.097302 0.745795 0.430397 0.151033
H23   H     H_    0.869997 0.337246 0.009272 0.117711
H24   H     H_    0.797062 0.819554 0.574176 0.144470
H25   H     H_    0.594803 0.239583 0.431382 0.156710
H26   H     H_    0.308530 0.300577 0.574196 0.127598
H27   H     H_    0.107723 0.770890 0.556090 0.139674
H28   H     H_    0.798646 0.836756 0.447930 0.152471
H29   H     H_    0.607291 0.270593 0.556597 0.132014
H30   H     H_    0.304818 0.322213 0.448429 0.151441
H31   H     H_    0.530925 0.644751 0.937402 0.206151
H32   H     H_    0.459184 0.653055 0.066926 0.210134
H33   H     H_    0.030729 0.144613 0.937486 0.206052
H34   H     H_    0.126701 0.322890 0.991359 0.120018
H35   H     H_    0.958985 0.153234 0.067018 0.210201
H36   H     H_    0.149160 0.638058 0.921096 0.241031
H37   H     H_    0.851616 0.630484 0.079933 0.238180
H38   H     H_    0.649137 0.137934 0.921074 0.240977
H39   H     H_    0.351603 0.130569 0.079921 0.238313
H40   H     H_    0.421722 0.520015 0.956610 0.126282
H41   H     H_    0.577944 0.525698 0.042438 0.129535
H42   H     H_    0.921703 0.019957 0.956585 0.126077
H43   H     H_    0.077928 0.025805 0.042432 0.129595
H44   H     H_    0.090575 0.678960 0.019807 0.395265
H45   H     H_    0.453078 0.015536 0.556075 0.171759
H46   H     H_    0.909281 0.676682 0.979359 0.396767
H47   H     H_    0.590577 0.178945 0.019819 0.395238
H48   H     H_    0.409281 0.176703 0.979374 0.396791
H49   H     H_    0.771074 0.849195 0.021057 0.313804
H50   H     H_    0.228507 0.851043 0.979888 0.312498
H51   H     H_    0.271070 0.349247 0.021026 0.313817
H52   H     H_    0.728555 0.351001 0.979919 0.312386
H53   H     H_    0.441202 0.392094 0.075703 0.361889
H54   H     H_    0.559189 0.396690 0.923016 0.357310
H55   H     H_    0.941214 0.892108 0.075686 0.361799
H56   H     H_    0.472342 0.011762 0.427428 0.188777
H57   H     H_    0.059151 0.896849 0.922983 0.357406
H58   H     H_    0.936913 0.504573 0.552116 0.171913
H59   H     H_    0.958972 0.502693 0.423775 0.179588
H60   H     H_    0.082939 0.063671 0.450439 0.160255
O1    O     O_R   0.214300 0.709080 0.827500 -0.461882
O2    O     O_R   0.543340 0.717710 0.330180 -0.506064
O3    O     O_R   0.956660 0.217710 0.669820 -0.537013
O4    O     O_R   0.043340 0.217710 0.330180 -0.506358
O5    O     O_R   0.320590 0.625770 0.672930 -0.520062
O6    O     O_R   0.679410 0.625770 0.327070 -0.506964
O7    O     O_R   0.820590 0.125770 0.672930 -0.495490
O8    O     O_R   0.179410 0.125770 0.327070 -0.507654
O9    O     O_3   0.334270 0.834280 0.749190 -0.338481
O10   O     O_3   0.665730 0.834280 0.250810 -0.330049
O11   O     O_3   0.834270 0.334280 0.749190 -0.360126
O12   O     O_R   0.785700 0.709080 0.172500 -0.465754
O13   O     O_3   0.165730 0.334280 0.250810 -0.328864
O14   O     O_R   0.236190 0.958390 0.823150 -0.467045
O15   O     O_R   0.763810 0.958390 0.176850 -0.467714
O16   O     O_R   0.736190 0.458390 0.823150 -0.467538
O17   O     O_R   0.263810 0.458390 0.176850 -0.467749
O18   O     O_R   0.332090 0.075280 0.831290 -0.409170
O19   O     O_R   0.667910 0.075280 0.168710 -0.408626
O20   O     O_R   0.832090 0.575280 0.831290 -0.407482
O21   O     O_R   0.167910 0.575280 0.168710 -0.409040
O22   O     O_R   0.446280 0.918040 0.826620 -0.407088
O23   O     O_R   0.714300 0.209080 0.827500 -0.459144
O24   O     O_R   0.553720 0.918040 0.173380 -0.415225
O25   O     O_R   0.946280 0.418040 0.826620 -0.405060
O26   O     O_R   0.053720 0.418040 0.173380 -0.416089
O27   O     O_R   0.457080 0.716270 0.831760 -0.499478
O28   O     O_R   0.542920 0.716270 0.168240 -0.501690
O29   O     O_R   0.957080 0.216270 0.831760 -0.499044
O30   O     O_R   0.042920 0.216270 0.168240 -0.502013
O31   O     O_R   0.320980 0.624440 0.823040 -0.480511
O32   O     O_R   0.679020 0.624440 0.176960 -0.480463
O33   O     O_R   0.820980 0.124440 0.823040 -0.476206
O34   O     O_R   0.285700 0.209080 0.172500 -0.465086
O35   O     O_R   0.179020 0.124440 0.176960 -0.480681
O36   O     O_R   0.213880 0.710510 0.665560 -0.477660
O37   O     O_R   0.786120 0.710510 0.334440 -0.480986
O38   O     O_R   0.713880 0.210510 0.665560 -0.449478
O39   O     O_R   0.286120 0.210510 0.334440 -0.481593
O40   O     O_R   0.235800 0.959720 0.673040 -0.518238
O41   O     O_R   0.764200 0.959720 0.326960 -0.503862
O42   O     O_R   0.735800 0.459720 0.673040 -0.534954
O43   O     O_R   0.264200 0.459720 0.326960 -0.505116
O44   O     O_R   0.331670 0.076720 0.669350 -0.516212
O45   O     O_R   0.445900 0.919370 0.676500 -0.487412
O46   O     O_R   0.668330 0.076720 0.330650 -0.519458
O47   O     O_R   0.831670 0.576720 0.669350 -0.513035
O48   O     O_R   0.168330 0.576720 0.330650 -0.521186
O49   O     O_3   0.117486 0.627040 0.053642 -0.566345
O50   O     O_3   0.883390 0.621313 0.946849 -0.575131
O51   O     O_3   0.617470 0.126956 0.053632 -0.566495
O52   O     O_3   0.383379 0.121381 0.946843 -0.575024
O53   O     O_3   0.814755 0.846313 0.050686 -0.653623
O54   O     O_3   0.185314 0.849051 0.949498 -0.658950
O55   O     O_3   0.314742 0.346347 0.050669 -0.653553
O56   O     O_R   0.554100 0.919370 0.323500 -0.497270
O57   O     O_3   0.685366 0.348980 0.949525 -0.659473
O58   O     O_3   0.409961 0.460701 0.087763 -0.670148
O59   O     O_3   0.590722 0.464588 0.911188 -0.671262
O60   O     O_3   0.909969 0.960710 0.087744 -0.670477
O61   O     O_3   0.090700 0.964730 0.911166 -0.670974
O62   O     O_R   0.945900 0.419370 0.676500 -0.479094
O63   O     O_R   0.054100 0.419370 0.323500 -0.498008
O64   O     O_R   0.456660 0.717710 0.669820 -0.525668

loop_
_geom_bond_atom_site_label_1
_geom_bond_atom_site_label_2
_ccdc_geom_bond_type
Cr3   O7    S    
H46   O50   S    
C80   C120  S    
C34   C56   A    
Cr2   O6    S    
Cr5   O10   S    
C109  O31   A    
C84   C102  S    
C14   C18   S    
Cr12  O27   S    
C96   H14   S    
C10   O38   A    
C120  O47   A    
C80   C84   A    
C111  O12   A    
Cr7   O43   S    
C43   O55   S    
C78   H8    S    
C88   H33   S    
C90   C107  S    
C95   C117  A    
C15   C19   S    
C89   C115  A    
C73   H59   S    
C106  Cl5   S    
C28   C46   S    
C34   C51   S    
C19   H23   S    
C29   C47   S    
C97   H15   S    
C14   C21   S    
C30   C48   S    
C93   H10   S    
Cr11  O21   S    
Cr10  O11   S    
C38   C42   A    
C86   C91   A    
Cr1   O40   S    
Cr12  O9    S    
C80   C97   A    
C118  O44   A    
C45   O59   S    
C43   O58   S    
C22   C62   S    
C81   C98   A    
C94   C98   A    
C47   O54   S    
Cr1   O1    S    
C15   C16   S    
C12   C22   S    
C92   C96   A    
C24   C42   A    
C93   C115  A    
Cr8   O18   S    
C32   C54   A    
C16   Cl11  S    
C24   C29   A    
C87   C114  A    
C36   C53   A    
C5    O2    A    
Cr4   O8    S    
C63   O25   A    
C25   C99   S    
C39   C110  A    
Cr3   O11   S    
C100  H17   S    
C2    C44   S    
C94   H11   S    
H48   O52   S    
C108  H30   S    
C12   C17   S    
C6    O62   A    
H49   O53   S    
C56   C113  S    
C91   C117  A    
C74   H5    S    
C92   H9    S    
C44   O20   A    
Cr1   O36   S    
Cr2   O28   S    
Cr7   O39   S    
C43   C48   S    
C59   C73   A    
C51   Cl4   S    
C85   C103  S    
C8    C114  S    
C55   O17   A    
C40   O50   S    
C53   C111  S    
C46   O53   S    
C23   C63   S    
C7    C59   S    
C104  H21   S    
C3    C79   S    
C108  Cl7   S    
C112  O23   A    
C95   H13   S    
C13   C33   S    
Cr7   O34   S    
C37   C41   A    
Cr9   O46   S    
C69   C78   S    
Cr12  O64   S    
C120  O42   A    
C31   C49   S    
Cr10  O20   S    
Cr12  O5    S    
C118  O40   A    
C26   C43   S    
C111  O32   A    
C33   O15   A    
C11   O8    A    
C101  C105  S    
C1    O14   A    
H51   O55   S    
Cr6   O11   S    
C74   C75   S    
C102  H19   S    
Cr2   O32   S    
C27   C31   A    
C9    C115  S    
C109  O1    A    
C6    C60   S    
C74   H3    S    
C36   C40   A    
C26   C110  A    
C3    O48   A    
C22   C77   S    
C72   C73   A    
Cr11  O48   S    
C119  O46   A    
C57   C65   A    
H55   O60   S    
C48   H40   S    
C94   C116  A    
C95   C100  A    
C68   C69   A    
Cr10  O25   S    
C47   C51   S    
Cr4   O13   S    
C107  H29   S    
C76   H7    S    
C65   C67   A    
C82   C86   A    
C41   O51   S    
C29   C34   A    
C5    O56   A    
C17   C21   S    
C38   H39   S    
Cr3   O33   S    
Cr4   O30   S    
C1    O18   A    
H50   O54   S    
C21   C66   S    
C89   C106  S    
Cr3   O3    S    
C35   C39   A    
C101  H22   S    
C99   H35   S    
H53   O58   S    
Cr6   O42   S    
C2    C40   A    
C59   C68   A    
Cr11  O13   S    
Cr5   O41   S    
Cr7   O13   S    
C45   O57   S    
C87   C105  S    
C28   C32   A    
C9    O6    A    
C16   C20   S    
C44   O16   A    
Cr5   O15   S    
C27   C45   S    
C17   C77   S    
C45   C49   S    
C103  H20   S    
C86   C104  S    
C105  Cl1   S    
C13   C28   A    
C57   C71   A    
C7    O63   A    
Cr2   O2    S    
C32   C50   S    
C6    O3    A    
C2    C27   A    
C8    O36   A    
Cr8   O9    S    
Cr9   O19   S    
C39   O49   S    
C37   C54   A    
C33   O19   A    
Cr1   O14   S    
C60   C69   A    
C113  O34   A    
C98   H16   S    
C9    O37   A    
C26   C30   A    
C16   C23   S    
C90   C116  A    
C23   C88   S    
C55   C110  S    
C17   H1    S    
C66   H31   S    
C31   C53   A    
C67   C75   S    
C84   C89   A    
C82   C118  S    
C78   H2    S    
C83   C101  S    
C8    O5    A    
C50   H42   S    
C93   C97   A    
C104  C108  S    
C70   C71   A    
C18   H12   S    
C19   C23   S    
C104  H26   S    
Cr4   O4    S    
Cr9   O10   S    
C35   H36   S    
C3    O43   A    
C66   C77   S    
C30   C52   A    
C18   C66   S    
C101  H18   S    
C19   C99   S    
Cr10  O47   S    
C105  H27   S    
Cr12  O31   S    
H52   O57   S    
C64   O30   A    
Cr8   O44   S    
C106  H28   S    
C91   C108  S    
C10   O7    A    
C58   C70   A    
Cr8   O45   S    
C50   Cl3   S    
C107  Cl6   S    
C76   C78   S    
C7    O4    A    
Cr6   O38   S    
C83   C87   A    
C4    O45   A    
C72   H58   S    
C20   H34   S    
C85   C90   A    
C76   H60   S    
C13   C41   A    
C12   Cl8   S    
C75   H4    S    
C68   C76   S    
C38   C56   A    
C46   C50   S    
C62   O28   A    
C61   O22   A    
Cr2   O10   S    
C5    C57   S    
C11   O39   A    
Cr1   O9    S    
C55   O21   A    
C18   C22   S    
C4    O64   A    
C12   C14   S    
Cr5   O37   S    
C79   C96   A    
Cr3   O29   S    
C81   C119  S    
C1    C24   S    
C64   O26   A    
C71   H56   S    
C47   O61   S    
C42   O52   S    
H54   O59   S    
C15   Cl10  S    
C92   C114  A    
C52   C109  S    
Cr9   O24   S    
Cr5   O12   S    
C62   O24   A    
C37   H38   S    
C20   C88   S    
C82   C100  A    
C61   O27   A    
Cr9   O56   S    
H44   O49   S    
Cr7   O17   S    
C102  C106  S    
Cr11  O63   S    
H57   O61   S    
Cr11  O26   S    
C119  O41   A    
Cr6   O23   S    
C10   C116  S    
H47   O51   S    
Cr8   O22   S    
C88   C99   S    
C51   H43   S    
C54   C112  S    
C65   C74   S    
C63   O29   A    
Cr6   O16   S    
C102  H24   S    
C79   C83   A    
Cr10  O62   S    
C58   C67   A    
C113  O35   A    
C49   H41   S    
C21   C61   S    
C15   C25   S    
C112  O33   A    
C20   C25   S    
Cr4   O35   S    
C4    C58   S    
C35   C52   A    
C103  H25   S    
C60   C72   A    
C48   Cl12  S    
C103  C107  S    
C36   H37   S    
C75   H6    S    
C77   H32   S    
C46   O60   S    
C25   C64   S    
C81   C85   A    
C49   Cl2   S    
C70   H45   S    
C14   Cl9   S    
C11   C117  S    
