data_mof_unit_57377.cif
_audit_creation_date              2013-03-05T15:52:31-0500
_audit_creation_method            fapswitch 2.2
_symmetry_space_group_name_H-M    P1
_symmetry_Int_Tables_number       1
_space_group_crystal_system       triclinic
_cell_length_a                    6.966158
_cell_length_b                    20.445287
_cell_length_c                    24.3933
_cell_angle_alpha                 89.798099
_cell_angle_beta                  90.766488
_cell_angle_gamma                 89.152081
_cell_volume                      3473.50283708

loop_
_atom_site_label
_atom_site_type_symbol
_atom_site_description
_atom_site_fract_x
_atom_site_fract_y
_atom_site_fract_z
_atom_type_partial_charge
O1    O     O_R   0.507310 0.423620 0.460450 -0.587982
O2    O     O_R   0.170760 0.556060 0.437190 -0.588862
O3    O     O_R   0.004040 0.576380 0.539550 -0.590437
C1    C     C_R   0.338072 0.576360 0.421339 0.969195
O4    O     O_R   0.177350 0.422870 0.454070 -0.591459
O5    O     O_R   0.010680 0.442240 0.556560 -0.588740
C2    C     C_R   0.346188 0.398657 0.443751 0.929250
O6    O     O_R   0.500670 0.557760 0.443440 -0.591741
O7    O     O_3   0.340380 0.506510 0.533610 -0.266572
V1    V     V_3+5 0.064130 0.498790 0.493770 1.169993
O8    O     O_R   0.681170 0.443940 0.562810 -0.571156
C3    C     C_R   0.851649 0.424002 0.578650 0.966236
O9    O     O_R   0.674570 0.577130 0.545930 -0.590827
C4    C     C_R   0.842315 0.601072 0.556720 0.920465
V2    V     V_3+5 0.564560 0.501210 0.506230 1.180676
O10   O     O_3   0.838170 0.493490 0.466390 -0.275646
C5    C     C_R   0.977597 0.836168 0.913229 -0.305677
C6    C     C_R   0.843353 0.661682 0.589543 -0.104658
C7    C     C_R   0.064668 0.721357 0.906111 -0.267420
C8    C     C_R   0.047274 0.777876 0.938065 0.371605
C9    C     C_R   0.920865 0.835853 0.857585 -0.161153
C10   C     C_R   0.923801 0.777486 0.825947 0.160735
C11   C     C_R   0.007768 0.721056 0.850727 0.129215
C12   C     C_R   0.858297 0.774093 0.769683 -0.096164
C13   C     C_R   0.907685 0.717535 0.737430 0.040207
C14   C     C_R   0.997708 0.663734 0.764137 -0.161805
C15   C     C_R   0.040458 0.664872 0.819830 -0.172370
C16   C     C_R   0.742831 0.824152 0.744496 0.330455
C17   C     C_R   0.714245 0.824451 0.687749 -0.326811
C18   C     C_R   0.772607 0.771899 0.655431 0.120244
C19   C     C_R   0.862456 0.716139 0.679775 0.112993
C20   C     C_R   0.727826 0.773101 0.599151 -0.131074
C21   C     C_R   0.761314 0.718396 0.566740 -0.166498
C22   C     C_R   0.897523 0.660868 0.645397 -0.226272
H1    H     H_    0.106955 0.621837 0.838519 0.134554
H2    H     H_    0.956910 0.615480 0.661046 0.102543
H3    H     H_    0.716613 0.719495 0.524015 0.108009
H4    H     H_    0.630920 0.864080 0.669115 0.182395
H5    H     H_    0.123787 0.677051 0.924631 0.171627
H6    H     H_    0.885913 0.882601 0.839097 0.152335
H7    H     H_    0.036539 0.619330 0.743192 0.124354
H8    H     H_    0.658949 0.815719 0.580514 0.118733
C23   C     C_3   0.720344 0.246836 0.794814 0.030317
C24   C     C_3   0.085430 0.256704 0.792982 -0.316043
C25   C     C_3   0.055676 0.309628 0.747872 -0.459473
H9    H     H_    0.221761 0.229375 0.785671 0.201738
H10   H     H_    0.104693 0.279851 0.833691 0.216034
H11   H     H_    0.034879 0.358421 0.767088 0.212813
H12   H     H_    0.185971 0.312278 0.722981 0.218263
C26   C     C_1   0.865992 0.378780 0.624448 -0.233930
C27   C     C_3   0.916572 0.208276 0.792247 0.151120
C28   C     C_3   0.695056 0.296265 0.743804 0.616715
C29   C     C_3   0.884396 0.293279 0.709480 0.174107
C30   C     C_3   0.918021 0.222409 0.688104 -0.426208
C31   C     C_3   0.922458 0.172410 0.736295 -0.429673
C32   C     C_1   0.876841 0.340510 0.662602 0.115960
C33   C     C_1   0.938818 0.160296 0.838126 0.047206
C34   C     C_1   0.956572 0.121610 0.875820 -0.221361
H13   H     H_    0.798170 0.139104 0.732394 0.207388
H14   H     H_    0.054835 0.141455 0.733747 0.213299
H15   H     H_    0.805037 0.208932 0.657763 0.212788
H16   H     H_    0.607289 0.209184 0.792610 0.110186
H17   H     H_    0.057088 0.219634 0.666212 0.226366
C35   C     C_3   0.595886 0.707712 0.272113 -0.514559
C36   C     C_3   0.252879 0.692924 0.242583 -0.381743
C37   C     C_3   0.279758 0.742687 0.194969 -0.317784
H18   H     H_    0.667349 0.726311 0.186034 0.202963
H19   H     H_    0.636462 0.657079 0.259742 0.196074
H20   H     H_    0.099730 0.693080 0.254976 0.201700
H21   H     H_    0.287388 0.642703 0.227863 0.159221
H22   H     H_    0.323714 0.715594 0.157565 0.186312
H23   H     H_    0.140376 0.766821 0.184463 0.216617
C38   C     C_1   0.477601 0.878580 0.124911 -0.179469
C39   C     C_3   0.384704 0.709564 0.292276 0.251979
C40   C     C_3   0.623312 0.754929 0.222625 -0.444291
C41   C     C_3   0.434968 0.793936 0.209820 0.136243
C42   C     C_3   0.379298 0.830658 0.263725 0.142191
C43   C     C_3   0.335430 0.780664 0.311194 0.360677
C44   C     C_1   0.462102 0.840555 0.163145 0.076334
C45   C     C_1   0.360521 0.661463 0.338080 -0.008485
C46   C     C_1   0.346229 0.622480 0.375719 -0.297789
H24   H     H_    0.434137 0.791273 0.346569 -0.049842
H25   H     H_    0.508653 0.858171 0.277190 0.051808
H26   H     H_    0.694784 0.721614 0.306177 0.197030
H27   H     H_    0.741816 0.789048 0.232159 0.230384
C47   C     C_R   0.472663 0.161799 0.088852 -0.118886
C48   C     C_R   0.351397 0.337559 0.411843 -0.103724
C49   C     C_R   0.544828 0.276703 0.095720 -0.163626
C50   C     C_R   0.532692 0.219882 0.064783 -0.137754
C51   C     C_R   0.425388 0.160729 0.144704 -0.245582
C52   C     C_R   0.440752 0.217898 0.177726 0.150964
C53   C     C_R   0.501039 0.276174 0.151710 0.164861
C54   C     C_R   0.400697 0.219322 0.235414 0.003495
C55   C     C_R   0.421507 0.278938 0.265703 0.061809
C56   C     C_R   0.481231 0.335212 0.237272 -0.177962
C57   C     C_R   0.519631 0.333666 0.181643 -0.232423
C58   C     C_R   0.341040 0.163100 0.263720 -0.374321
C59   C     C_R   0.296277 0.164585 0.319279 0.495903
C60   C     C_R   0.319026 0.222340 0.349503 -0.002820
C61   C     C_R   0.381689 0.280394 0.323347 0.056636
C62   C     C_R   0.275923 0.222845 0.405730 -0.119551
C63   C     C_R   0.289972 0.279932 0.436253 -0.173352
C64   C     C_R   0.398748 0.337804 0.356058 -0.201610
H28   H     H_    0.565624 0.378217 0.161812 0.138590
H29   H     H_    0.442702 0.383995 0.339456 0.093801
H30   H     H_    0.250640 0.279339 0.479083 0.125436
H31   H     H_    0.591733 0.321139 0.075934 0.138598
H32   H     H_    0.571867 0.221055 0.021947 0.151016
H33   H     H_    0.382544 0.114263 0.161050 0.119983
H34   H     H_    0.500347 0.381823 0.256754 0.127225
H35   H     H_    0.326421 0.116460 0.243942 0.179178
H36   H     H_    0.227257 0.179192 0.426285 0.161135
O11   O     O_R   0.323590 0.942280 0.056590 -0.567058
O12   O     O_R   0.647030 0.077140 0.045940 -0.596895
O13   O     O_R   0.813570 0.057750 0.943430 -0.588566
C65   C     C_R   0.478170 0.101178 0.056452 0.928551
O14   O     O_R   0.653510 0.943950 0.062820 -0.577673
O15   O     O_R   0.820100 0.923600 0.960440 -0.572372
C66   C     C_R   0.486143 0.923853 0.078777 0.987066
O16   O     O_R   0.317060 0.076430 0.039590 -0.594444
O17   O     O_3   0.483830 0.993520 0.966410 -0.264501
V3    V     V_3+5 0.760140 0.001200 0.006230 1.236223
O18   O     O_R   0.149560 0.922820 0.954030 -0.579978
C67   C     C_R   0.981664 0.898726 0.943499 1.046683
O19   O     O_R   0.143080 0.056020 0.937150 -0.591404
C68   C     C_R   0.972500 0.076038 0.921365 0.963738
V4    V     V_3+5 0.259690 0.998730 0.993720 1.242365
O20   O     O_3   0.986120 0.006480 0.033580 -0.270767
O21   O     O_3   0.673668 0.362476 0.762110 -0.635603
C69   C     C_3   0.484986 0.379886 0.777812 0.320679
H37   H     H_    0.412389 0.339518 0.799439 0.104680
H38   H     H_    0.399821 0.395025 0.741053 0.123089
C70   C     C_3   0.491590 0.438749 0.815743 -0.810747
H39   H     H_    0.563909 0.480031 0.795187 0.242682
H40   H     H_    0.343138 0.454333 0.826178 0.199471
H41   H     H_    0.570664 0.426202 0.854211 0.294114
N1    N     N_R   0.697050 0.279078 0.848271 0.246432
O22   O     O_R   0.563797 0.259661 0.881224 -0.429211
O23   O     O_R   0.807653 0.326492 0.863739 -0.387756
N2    N     N_R   0.533500 0.277650 0.706771 0.163558
O24   O     O_R   0.466750 0.218500 0.706670 -0.487250
O25   O     O_R   0.481725 0.316309 0.666493 -0.451423
O26   O     O_3   0.139163 0.783984 0.326378 -0.606858
C71   C     C_3   0.114038 0.823541 0.373151 0.350553
H42   H     H_    0.181858 0.872113 0.367851 0.103764
H43   H     H_    0.177215 0.798653 0.409969 0.071154
C72   C     C_3   0.900366 0.834525 0.382245 -0.904378
H44   H     H_    0.829502 0.786985 0.389340 0.239351
H45   H     H_    0.878638 0.866185 0.418597 0.210332
H46   H     H_    0.833441 0.858772 0.345758 0.276433
N3    N     N_R   0.224135 0.879259 0.254702 0.251111
O27   O     O_R   0.258180 0.941040 0.262041 -0.426615
O28   O     O_R   0.053575 0.862047 0.238553 -0.402149
O29   O     O_3   0.240135 0.107595 0.344971 -0.624893
C73   C     C_3   0.044979 0.096615 0.332031 0.275417
H47   H     H_    0.025343 0.086256 0.287537 0.125096
H48   H     H_    0.953558 0.139597 0.343369 0.078984
C74   C     C_3   0.976963 0.037588 0.364136 -0.802196
H49   H     H_    0.991653 0.046769 0.408834 0.235859
H50   H     H_    0.823829 0.028313 0.354072 0.218801
H51   H     H_    0.063772 0.993601 0.353420 0.278482
N4    N     N_R   0.105293 0.775510 0.995027 0.227722
O30   O     O_R   0.018327 0.811507 0.031220 -0.415599
O31   O     O_R   0.233257 0.732711 0.011893 -0.407375
N5    N     N_R   0.629289 0.869317 0.775886 0.225826
O32   O     O_R   0.525795 0.847852 0.815995 -0.399023
O33   O     O_R   0.603557 0.929288 0.758957 -0.406177

loop_
_geom_bond_atom_site_label_1
_geom_bond_atom_site_label_2
_geom_bond_distance
_ccdc_geom_bond_type
C13   C19   1.437608 A    
C59   O29   1.385017 S    
N5    O32   1.301847 A    
C38   C66   1.456982 S    
C31   H13   1.112694 S    
C73   H48   1.115436 S    
C4    C6    1.477779 S    
C7    C11   1.402908 A    
C56   C57   1.386988 A    
C41   C44   1.497996 S    
C1    O6    1.299115 A    
C42   N3    1.471194 S    
C58   C59   1.395070 A    
C51   C52   1.426363 A    
O16   V4    1.988645 S    
O18   C67   1.298653 A    
C42   C43   1.577760 S    
C24   C25   1.550323 S    
C62   H36   1.083164 S    
O14   V3    1.967013 S    
N1    O23   1.301012 A    
C14   C15   1.387237 A    
C54   C55   1.435712 A    
O13   C68   1.296922 A    
C28   O21   1.433250 S    
C35   H19   1.112865 S    
C10   C12   1.442762 A    
C9    C10   1.423448 A    
C16   C17   1.395847 A    
C72   H45   1.110386 S    
N2    O25   1.302582 A    
O17   V4    1.707777 S    
O14   C66   1.305708 A    
O5    C3    1.297482 A    
C18   C19   1.417127 A    
C58   H35   1.075732 S    
C23   C28   1.606417 S    
C25   H11   1.112066 S    
C30   H17   1.113252 S    
C42   H25   1.115662 S    
O26   C71   1.412127 S    
C59   C60   1.404113 A    
C53   C57   1.392692 A    
C5    C8    1.411713 A    
C47   C65   1.472614 S    
O15   V3    1.986101 S    
C35   H26   1.112657 S    
C74   H51   1.110232 S    
O11   C66   1.298713 A    
O8    V2    1.966271 S    
C40   H27   1.111408 S    
C2    C48   1.474399 S    
C1    C46   1.458302 S    
C72   H44   1.110696 S    
C17   H4    1.084632 S    
C70   H41   1.109083 S    
N3    O27   1.301204 A    
C63   H30   1.083714 S    
O1    V2    1.985427 S    
C11   C15   1.393696 A    
O7    V1    2.152374 S    
C27   C31   1.552370 S    
C24   H10   1.108914 S    
C25   C29   1.548074 S    
N5    O33   1.301533 A    
O13   V3    1.958959 S    
C39   C45   1.498699 S    
C31   H14   1.113253 S    
C73   C74   1.521333 S    
C74   H50   1.110629 S    
C71   C72   1.521341 S    
C24   H9    1.111512 S    
N4    O31   1.301581 A    
C41   C42   1.566855 S    
C37   H23   1.109130 S    
V2    O10   2.154988 S    
C62   C63   1.390610 A    
C49   C53   1.403447 A    
C72   H46   1.110966 S    
N2    O24   1.302057 A    
C71   H43   1.113011 S    
C47   C51   1.406086 A    
C52   C53   1.419622 A    
O4    C2    1.297425 A    
C49   H31   1.083984 S    
C71   H42   1.113871 S    
C15   H1    1.084467 S    
C13   C14   1.411126 A    
C29   C30   1.557172 S    
C56   H34   1.075628 S    
C61   C64   1.427158 A    
C26   C32   1.214653 T    
C36   C39   1.552685 S    
C65   O16   1.300281 A    
O12   C65   1.297240 A    
C74   H49   1.110659 S    
C69   H38   1.109144 S    
C40   C41   1.552840 S    
C17   C18   1.393854 A    
C52   C54   1.438563 A    
C48   C63   1.393773 A    
C43   H24   1.119986 S    
C5    C67   1.479547 S    
O18   V4    1.990120 S    
C37   H22   1.113147 S    
C55   C61   1.437186 A    
C8    N4    1.442320 S    
C25   H12   1.100639 S    
C38   C44   1.219011 T    
C19   C22   1.429628 A    
C64   H29   1.076485 S    
O15   C67   1.301189 A    
C12   C13   1.440966 A    
C6    C22   1.408850 A    
O29   C73   1.412907 S    
O17   V3    2.152462 S    
O3    C4    1.302608 A    
C7    H5    1.084147 S    
C16   N5    1.436723 S    
C27   C33   1.490609 S    
C24   C27   1.548670 S    
C60   C62   1.408002 A    
C34   C68   1.449521 S    
O6    V2    1.958279 S    
C57   H28   1.084429 S    
C70   H39   1.110833 S    
C48   C64   1.404462 A    
C69   C70   1.521476 S    
H18   C40   1.113013 S    
V4    O20   2.155005 S    
O2    V1    1.967085 S    
C54   C58   1.409610 A    
C28   C29   1.572246 S    
O19   V4    1.966341 S    
O21   C69   1.414784 S    
C29   C32   1.493984 S    
C30   C31   1.554806 S    
C20   H8    1.084028 S    
O1    C2    1.300912 A    
C12   C16   1.424747 A    
C45   C46   1.219727 T    
C47   C50   1.395039 A    
O5    V1    1.958795 S    
C3    C26   1.449101 S    
O8    C3    1.303114 A    
O11   V4    1.958620 S    
C30   H15   1.111503 S    
N4    O30   1.301461 A    
N1    O22   1.301547 A    
C60   C61   1.422625 A    
C20   C21   1.390639 A    
C7    C8    1.400804 A    
O9    V2    1.990076 S    
C69   H37   1.109820 S    
O7    V2    1.708816 S    
O4    V1    1.990988 S    
O3    V1    1.985984 S    
V1    O10   1.706740 S    
C43   O26   1.422003 S    
C18   C20   1.403814 A    
C23   C27   1.569962 S    
C33   C34   1.214608 T    
O19   C68   1.303851 A    
C9    H6    1.078569 S    
C36   H20   1.112713 S    
O2    C1    1.305930 A    
C50   H32   1.083759 S    
C28   N2    1.488418 S    
C35   C40   1.558562 S    
C23   N1    1.473033 S    
C22   H2    1.077004 S    
N3    O28   1.300592 A    
V3    O20   1.706557 S    
C55   C56   1.412119 A    
C6    C21   1.395652 A    
C21   H3    1.083815 S    
O12   V3    1.991123 S    
C49   C50   1.390536 A    
C14   H7    1.076161 S    
C36   C37   1.556371 S    
C39   C43   1.561425 S    
C73   H47   1.113577 S    
C70   H40   1.110685 S    
C35   C39   1.557369 S    
C10   C11   1.415718 A    
C51   H33   1.076806 S    
O9    C4    1.297685 A    
C37   C41   1.556884 S    
C36   H21   1.112926 S    
C23   H16   1.110345 S    
C5    C9    1.408681 A    
