data_mof_unit_8626.cif
_audit_creation_date              2012-12-11T15:39:10-0500
_audit_creation_method            fapswitch 2.2
_symmetry_space_group_name_H-M    P1
_symmetry_Int_Tables_number       1
_space_group_crystal_system       triclinic
_cell_length_a                    14.337166
_cell_length_b                    14.795442
_cell_length_c                    33.199823
_cell_angle_alpha                 97.689726
_cell_angle_beta                  90.26721
_cell_angle_gamma                 118.907331
_cell_volume                      6090.03488773

loop_
_atom_site_label
_atom_site_type_symbol
_atom_type_description
_atom_site_fract_x
_atom_site_fract_y
_atom_site_fract_z
_atom_type_partial_charge
C1    C     C_R   0.617120 0.910209 0.437053 0.541959
C2    C     C_R   0.743331 0.426435 0.188079 0.030834
C3    C     C_R   0.749301 0.883772 0.644741 -0.124412
C4    C     C_R   0.668986 0.790014 0.655595 0.037533
C5    C     C_R   0.638031 0.860325 0.584720 0.021178
C6    C     C_R   0.052292 0.781390 0.063708 0.552259
C7    C     C_R   0.744027 0.487025 0.066277 0.547621
C8    C     C_R   0.742869 0.789219 0.066413 0.551389
C9    C     C_R   0.021552 0.732088 0.947310 0.567415
C10   C     C_R   0.712230 0.437319 0.949335 0.532620
C11   C     C_R   0.743043 0.716664 0.945805 0.563247
C12   C     C_R   0.830614 0.441712 0.165386 -0.116828
C13   C     C_R   0.828226 0.454258 0.124563 -0.123133
C14   C     C_R   0.783085 0.358457 0.246819 -0.111999
C15   C     C_R   0.775899 0.345601 0.287708 -0.109815
C16   C     C_R   0.734372 0.396981 0.314348 0.033537
C17   C     C_R   0.706185 0.466186 0.299981 -0.113382
C18   C     C_R   0.712870 0.478582 0.259078 -0.113397
C19   C     C_R   0.748251 0.422319 0.231997 0.030502
C20   C     C_R   0.607333 0.346031 0.368595 -0.118649
C21   C     C_R   0.594110 0.205580 0.456625 0.543399
C22   C     C_R   0.572644 0.298885 0.403201 -0.127713
C23   C     C_R   0.741170 0.300629 0.413106 -0.125430
C24   C     C_R   0.775965 0.348093 0.378548 -0.116164
C25   C     C_R   0.707768 0.367594 0.355168 0.034617
C26   C     C_R   0.637669 0.272124 0.424833 0.021683
C27   C     C_R   0.244418 0.878987 0.393379 0.036432
C28   C     C_R   0.253112 0.968178 0.379133 -0.177242
C29   C     C_R   0.229124 0.965524 0.338202 -0.139126
C30   C     C_R   0.193868 0.873324 0.310867 -0.003731
C31   C     C_R   0.176505 0.781757 0.324866 -0.098974
C32   C     C_R   0.295259 0.892702 0.434417 0.566454
C33   C     C_R   0.203357 0.783726 0.366132 0.264924
C34   C     C_R   0.197858 0.807602 0.162832 0.258546
C35   C     C_R   0.170105 0.787953 0.120641 -0.119611
C36   C     C_R   0.087472 0.897886 0.129983 -0.143817
C37   C     C_R   0.114271 0.917271 0.171893 -0.170967
C38   C     C_R   0.165530 0.869119 0.188457 0.078668
C39   C     C_1   0.175491 0.874276 0.231885 0.036815
C40   C     C_1   0.182616 0.874422 0.268006 -0.007396
C41   C     C_R   0.110476 0.828867 0.104292 -0.008434
C42   C     C_R   0.638423 0.878369 0.395644 0.021255
C43   C     C_R   0.614247 0.904761 0.551414 0.544315
C44   C     C_R   0.555232 0.796230 0.369114 -0.134214
C45   C     C_R   0.566803 0.783217 0.327346 -0.117314
C46   C     C_R   0.661950 0.851414 0.311903 0.040228
C47   C     C_R   0.747974 0.928006 0.338409 -0.114447
C48   C     C_R   0.736505 0.941342 0.380106 -0.124397
C49   C     C_R   0.778004 0.918360 0.174989 -0.115143
C50   C     C_R   0.793488 0.906054 0.133553 -0.127758
C51   C     C_R   0.617741 0.752374 0.121367 -0.123703
C52   C     C_R   0.602361 0.765060 0.162719 -0.108303
C53   C     C_R   0.683987 0.845717 0.189715 0.041793
C54   C     C_R   0.589216 0.198783 0.571053 0.542334
C55   C     C_1   0.675184 0.847954 0.232719 -0.026624
C56   C     C_1   0.668877 0.848545 0.268802 -0.028317
C57   C     C_R   0.715288 0.820151 0.106692 0.022346
C58   C     C_R   0.620269 0.246585 0.614379 0.018881
C59   C     C_R   0.553516 0.275806 0.636934 -0.125563
C60   C     C_R   0.567034 0.296171 0.679466 -0.110672
C61   C     C_R   0.647482 0.287940 0.699866 0.041120
C62   C     C_R   0.718835 0.266099 0.677700 -0.114573
C63   C     C_R   0.705642 0.245867 0.635157 -0.129955
C64   C     C_R   0.761090 0.344809 0.844836 -0.112982
C65   C     C_R   0.289113 0.886919 0.548532 0.551225
C66   C     C_R   0.773814 0.374969 0.886999 -0.125394
C67   C     C_R   0.588356 0.334159 0.887008 -0.130156
C68   C     C_R   0.575466 0.302447 0.844835 -0.124006
C69   C     C_R   0.663158 0.312511 0.823562 0.038773
C70   C     C_1   0.656454 0.301265 0.779915 -0.035826
C71   C     C_1   0.652621 0.295414 0.743413 -0.031637
C72   C     C_R   0.689072 0.375146 0.908241 0.023258
C73   C     C_R   0.063906 0.751233 0.907286 0.062140
C74   C     C_R   0.101370 0.849784 0.894874 0.224525
C75   C     C_R   0.114642 0.858133 0.853402 -0.116015
C76   C     C_R   0.738256 0.451236 0.105924 0.020612
C77   C     C_R   0.092105 0.770005 0.824812 -0.000575
C78   C     C_R   0.063094 0.674538 0.837961 -0.137363
C79   C     C_R   0.049403 0.665280 0.878859 -0.169888
C80   C     C_R   0.146119 0.732008 0.756383 -0.108732
C81   C     C_R   0.152280 0.741224 0.715250 -0.114946
C82   C     C_R   0.107079 0.794447 0.698180 0.058605
C83   C     C_R   0.052209 0.835083 0.722432 -0.066068
C84   C     C_R   0.047528 0.827314 0.763769 -0.114491
C85   C     C_R   0.095509 0.776736 0.781082 0.032882
C86   C     C_R   0.178708 0.920386 0.648481 0.272899
C87   C     C_R   0.648418 0.429009 0.128074 -0.121998
C88   C     C_R   0.225810 0.942086 0.611577 -0.116845
C89   C     C_R   0.160687 0.757456 0.588966 -0.143676
C90   C     C_R   0.114710 0.735153 0.625627 -0.176089
C91   C     C_R   0.128542 0.816454 0.656356 0.037340
C92   C     C_R   0.220843 0.861410 0.582572 -0.018371
C93   C     C_R   0.725095 0.702733 0.901173 -0.027407
C94   C     C_R   0.625800 0.633548 0.879516 -0.109187
C95   C     C_R   0.612411 0.631672 0.837164 0.276877
C96   C     C_R   0.698770 0.701343 0.817257 0.076999
C97   C     C_R   0.799150 0.763201 0.838516 -0.120250
C98   C     C_R   0.651135 0.417067 0.168830 -0.118639
C99   C     C_R   0.812149 0.763810 0.879865 -0.138878
C100  C     C_R   0.706957 0.821558 0.770108 0.250105
C101  C     C_R   0.702794 0.842839 0.730479 -0.112879
C102  C     C_R   0.675765 0.764748 0.696636 -0.006209
C103  C     C_R   0.650736 0.663536 0.702620 -0.139518
C104  C     C_R   0.655842 0.641733 0.742031 -0.136514
C105  C     C_R   0.684693 0.720584 0.775816 0.100829
C106  C     C_R   0.576513 0.727847 0.629236 -0.114256
C107  C     C_R   0.561043 0.762785 0.594077 -0.127021
C108  C     C_R   0.734007 0.918667 0.609608 -0.129131
Cr1   Cr    Cr6+3 0.424820 0.846020 0.489780 1.019176
Cr2   Cr    Cr6+3 0.657880 0.078580 0.505700 1.006984
Cr3   Cr    Cr6+3 0.417280 0.075360 0.504550 1.004883
Cr4   Cr    Cr6+3 0.903360 0.812540 0.006510 1.054954
Cr5   Cr    Cr6+3 0.914630 0.587050 0.006280 1.008897
Cr6   Cr    Cr6+3 0.673560 0.582680 0.008540 1.014097
H1    H     H_    0.577772 0.425767 0.114544 0.131960
H2    H     H_    0.492611 0.278068 0.411578 0.123744
H3    H     H_    0.902312 0.448676 0.179705 0.111763
H4    H     H_    0.793584 0.282106 0.429545 0.123559
H5    H     H_    0.188778 0.735171 0.101003 0.113395
H6    H     H_    0.144696 0.709916 0.303387 0.111194
H7    H     H_    0.284802 0.042403 0.399134 0.138621
H8    H     H_    0.089542 0.965027 0.191620 0.109350
H9    H     H_    0.040871 0.929848 0.118288 0.136023
H10   H     H_    0.898790 0.471544 0.108285 0.132033
H11   H     H_    0.241943 0.036562 0.327619 0.117632
H12   H     H_    0.869597 0.959118 0.123199 0.122122
H13   H     H_    0.841509 0.981197 0.195790 0.104448
H14   H     H_    0.822146 0.980660 0.326651 0.105868
H15   H     H_    0.802253 0.005007 0.399759 0.126894
H16   H     H_    0.479072 0.746412 0.380217 0.121446
H17   H     H_    0.529150 0.708797 0.173912 0.113584
H18   H     H_    0.555988 0.685666 0.101364 0.123630
H19   H     H_    0.499982 0.723259 0.306966 0.105274
H20   H     H_    0.852426 0.405935 0.902345 0.127999
H21   H     H_    0.854402 0.365558 0.369126 0.107731
H22   H     H_    0.829307 0.352369 0.828611 0.106177
H23   H     H_    0.781779 0.260227 0.693316 0.105429
H24   H     H_    0.758186 0.223327 0.618768 0.125204
H25   H     H_    0.487028 0.277046 0.621907 0.123552
H26   H     H_    0.498906 0.276111 0.828555 0.104682
H27   H     H_    0.521566 0.333156 0.902445 0.127934
H28   H     H_    0.511922 0.313846 0.696447 0.104878
H29   H     H_    0.020178 0.588792 0.887679 0.130577
H30   H     H_    0.074547 0.654876 0.631157 0.114143
H31   H     H_    0.796831 0.290656 0.297856 0.104081
H32   H     H_    0.196217 0.710483 0.697107 0.110720
H33   H     H_    0.184000 0.693085 0.769195 0.117123
H34   H     H_    0.140314 0.932714 0.843268 0.099937
H35   H     H_    0.015405 0.874919 0.709628 0.120556
H36   H     H_    0.007187 0.861477 0.782217 0.093170
H37   H     H_    0.274058 0.022741 0.607204 0.129341
H38   H     H_    0.045493 0.605650 0.816291 0.114929
H39   H     H_    0.154606 0.693920 0.566664 0.138646
H40   H     H_    0.558118 0.585058 0.895513 0.131963
H41   H     H_    0.810482 0.314325 0.226373 0.105900
H42   H     H_    0.889969 0.816123 0.895667 0.165130
H43   H     H_    0.822025 0.932239 0.664434 0.095005
H44   H     H_    0.718925 0.920193 0.726050 0.096047
H45   H     H_    0.629014 0.602080 0.676815 0.114922
H46   H     H_    0.639472 0.564152 0.746119 0.115380
H47   H     H_    0.513398 0.655516 0.637109 0.107219
H48   H     H_    0.486564 0.715634 0.575299 0.125251
H49   H     H_    0.866442 0.815896 0.823493 0.127217
H50   H     H_    0.581937 0.402755 0.185624 0.107411
H51   H     H_    0.795283 0.993527 0.602997 0.122711
H52   H     H_    0.675551 0.507879 0.320079 0.106318
H53   H     H_    0.687916 0.530172 0.248329 0.109074
H54   H     H_    0.552628 0.359210 0.350896 0.102298
O1    O     O_R   0.318160 0.824460 0.443680 -0.466593
O2    O     O_R   0.645130 0.163230 0.552140 -0.501589
O3    O     O_R   0.498360 0.178430 0.555780 -0.520066
O4    O     O_R   0.328690 0.978040 0.538950 -0.503868
O5    O     O_3   0.499990 0.999990 0.500010 -0.236974
O6    O     O_R   0.828710 0.851830 0.052170 -0.513775
O7    O     O_R   0.005980 0.823990 0.047210 -0.493690
O8    O     O_R   0.031900 0.688850 0.050170 -0.514480
O9    O     O_R   0.830940 0.518420 0.048680 -0.497673
O10   O     O_R   0.668160 0.499860 0.053480 -0.515001
O11   O     O_R   0.689170 0.693840 0.050110 -0.495947
O12   O     O_R   0.525040 0.857250 0.449830 -0.507684
O13   O     O_R   0.803860 0.812940 0.962540 -0.489475
O14   O     O_R   0.982950 0.787950 0.964120 -0.467589
O15   O     O_R   0.007050 0.649970 0.960540 -0.532481
O16   O     O_R   0.807910 0.482370 0.965590 -0.505893
O17   O     O_R   0.643310 0.460980 0.963840 -0.524038
O18   O     O_R   0.666140 0.657800 0.967020 -0.498030
O19   O     O_3   0.830520 0.660760 0.007110 -0.274999
O20   O     O_R   0.684760 0.998800 0.456360 -0.518703
O21   O     O_R   0.647540 0.166310 0.470260 -0.501111
O22   O     O_R   0.500960 0.181750 0.467450 -0.521949
O23   O     O_R   0.331100 0.981120 0.457080 -0.517360
O24   O     O_R   0.315560 0.821140 0.532010 -0.514348
O25   O     O_R   0.522630 0.854180 0.531710 -0.502311
O26   O     O_R   0.682160 0.995480 0.544690 -0.520840
O27   O     O_3   0.250890 0.763088 0.179814 -0.705047
H55   H     H_    0.267361 0.722105 0.157696 0.314661
O28   O     O_3   0.185549 0.693745 0.381084 -0.540260
C109  C     C_3   0.225957 0.637604 0.356086 -0.003513
H56   H     H_    0.302826 0.690381 0.343898 0.118607
H57   H     H_    0.166114 0.585840 0.330350 0.127288
C110  C     C_3   0.246212 0.569049 0.381140 -0.365289
H58   H     H_    0.170336 0.512531 0.392503 0.154689
H59   H     H_    0.278891 0.525126 0.361974 0.081270
H60   H     H_    0.304667 0.618159 0.407562 0.165028
O29   O     O_3   0.120829 0.935389 0.923310 -0.690325
H61   H     H_    0.145408 0.997527 0.909428 0.317047
O30   O     O_3   0.198105 0.001324 0.679541 -0.554334
C111  C     C_3   0.148437 0.057534 0.668140 -0.022040
H62   H     H_    0.063374 0.004155 0.656386 0.114300
H63   H     H_    0.192319 0.105803 0.644590 0.124427
C112  C     C_3   0.150134 0.130652 0.705342 -0.374254
H64   H     H_    0.233948 0.186358 0.717399 0.157562
H65   H     H_    0.111355 0.175454 0.696840 0.089110
H66   H     H_    0.106223 0.084908 0.729470 0.152272
O31   O     O_3   0.731794 0.897687 0.803697 -0.696023
H67   H     H_    0.745441 0.963692 0.794408 0.319481
O32   O     O_3   0.513005 0.571082 0.816075 -0.549006
C113  C     C_3   0.486146 0.464914 0.812243 -0.019906
H68   H     H_    0.463264 0.435967 0.841859 0.129406
H69   H     H_    0.553533 0.452647 0.801656 0.122376
C114  C     C_3   0.391403 0.400395 0.780815 -0.373703
H70   H     H_    0.412505 0.426701 0.750724 0.151022
H71   H     H_    0.369422 0.316663 0.777811 0.092286
H72   H     H_    0.321734 0.409135 0.790441 0.164324

loop_
_geom_bond_atom_site_label_1
_geom_bond_atom_site_label_2
_ccdc_geom_bond_type
C34   O27   S    
C65   C92   S    
Cr5   O9    S    
C21   C26   S    
C64   H22   S    
C100  O31   S    
Cr3   O23   S    
C93   C94   A    
C29   H11   S    
C14   H41   S    
C11   O18   A    
C10   O16   A    
C73   C74   A    
C54   O2    A    
C35   H5    S    
C95   C96   A    
C11   O13   A    
C55   C56   T    
C2    C12   A    
C23   H4    S    
C81   C82   A    
C90   C91   A    
C78   H38   S    
C47   H14   S    
Cr5   O15   S    
C77   C78   A    
C27   C33   A    
Cr2   O20   S    
C100  C105  A    
C37   C38   A    
Cr6   O17   S    
C42   C44   A    
C113  C114  S    
C43   O26   A    
C106  C107  A    
C36   C37   A    
C34   C35   A    
C114  H72   S    
C86   C91   A    
C54   C58   S    
C38   C39   S    
C1    O12   A    
Cr1   O5    S    
C23   C26   A    
Cr5   O16   S    
C6    O7    A    
Cr1   O24   S    
C44   H16   S    
C15   C16   A    
Cr5   O19   S    
C58   C63   A    
C10   O17   A    
C86   C88   A    
C7    O9    A    
Cr3   O4    S    
C110  H58   S    
C106  H47   S    
C9    O14   A    
C60   H28   S    
C66   H20   S    
C21   O21   A    
C80   H33   S    
C79   H29   S    
C88   C92   A    
C16   C17   A    
Cr6   O10   S    
C6    C41   S    
C4    C102  S    
Cr2   O26   S    
C23   C24   A    
C13   C76   A    
Cr1   O25   S    
C70   C71   T    
C51   C57   A    
C33   O28   S    
C93   C99   A    
C7    C76   S    
C87   H1    S    
C61   C62   A    
C87   C98   A    
C11   C93   S    
C22   H2    S    
C5    C43   S    
C77   C85   S    
C59   C60   A    
Cr3   O5    S    
C96   C97   A    
C110  H60   S    
C110  H59   S    
C80   C85   A    
C102  C103  A    
C32   O1    A    
C9    C73   S    
C104  H46   S    
C20   H54   S    
C54   O3    A    
C104  C105  A    
C97   C99   A    
Cr1   O1    S    
C53   C55   S    
C49   H13   S    
C66   C72   A    
C37   H8    S    
C74   C75   A    
C65   O4    A    
O30   C111  S    
C101  C102  A    
C8    O6    A    
C67   C72   A    
C36   H9    S    
C27   C32   S    
C84   C85   A    
C111  H62   S    
C39   C40   T    
C15   H31   S    
C13   H10   S    
C78   C79   A    
C18   C19   A    
Cr4   O14   S    
C97   H49   S    
C58   C59   A    
C45   C46   A    
C4    C106  A    
C82   C83   A    
C82   C91   S    
C67   C68   A    
C32   O23   A    
C60   C61   A    
C64   C66   A    
O31   H67   S    
C112  H64   S    
C29   C30   A    
C9    O15   A    
C8    C57   S    
C114  H70   S    
C113  H69   S    
C47   C48   A    
C65   O24   A    
C59   H25   S    
C94   H40   S    
C99   H42   S    
Cr4   O7    S    
C62   C63   A    
C31   C33   A    
C17   C18   A    
C73   C79   A    
C30   C40   S    
C94   C95   A    
C42   C48   A    
C64   C69   A    
C24   C25   A    
C89   C92   A    
C75   C77   A    
C76   C87   A    
C2    C98   A    
C109  H56   S    
Cr5   O8    S    
C50   H12   S    
Cr2   O2    S    
C24   H21   S    
C112  H65   S    
C20   C22   A    
C101  H44   S    
C49   C50   A    
C22   C26   A    
C75   H34   S    
C88   H37   S    
C48   H15   S    
C83   C84   A    
C46   C56   S    
C3    C4    A    
C67   H27   S    
C103  C104  A    
C52   C53   A    
C96   C105  S    
C1    O20   A    
C108  H51   S    
C5    C107  A    
Cr2   O5    S    
C21   O22   A    
C16   C25   S    
O29   H61   S    
C46   C47   A    
C28   C29   A    
C2    C19   S    
C34   C38   A    
C52   H17   S    
C14   C19   A    
C68   C69   A    
C44   C45   A    
C80   C81   A    
C86   O30   S    
C98   H50   S    
C51   H18   S    
Cr1   O12   S    
Cr4   O13   S    
C3    C108  A    
C95   O32   S    
Cr2   O21   S    
C45   H19   S    
Cr6   O18   S    
C43   O25   A    
C17   H52   S    
O32   C113  S    
C51   C52   A    
C114  H71   S    
Cr4   O6    S    
C50   C57   A    
C8    O11   A    
C103  H45   S    
C113  H68   S    
C30   C31   A    
C6    O8    A    
Cr6   O11   S    
C111  C112  S    
C49   C53   A    
C100  C101  A    
C63   H24   S    
C109  C110  S    
Cr3   O3    S    
C62   H23   S    
O28   C109  S    
C35   C41   A    
C69   C70   S    
C31   H6    S    
C89   H39   S    
C68   H26   S    
Cr6   O19   S    
C61   C71   S    
O27   H55   S    
C1    C42   S    
C112  H66   S    
C12   C13   A    
C7    O10   A    
Cr3   O22   S    
C111  H63   S    
C81   H32   S    
C20   C25   A    
C107  H48   S    
C36   C41   A    
C27   C28   A    
C3    H43   S    
C14   C15   A    
Cr4   O19   S    
C109  H57   S    
C12   H3    S    
C28   H7    S    
C89   C90   A    
C5    C108  A    
C90   H30   S    
C18   H53   S    
C10   C72   S    
C83   H35   S    
C74   O29   S    
C84   H36   S    
