data_mof_unit_57966.cif
_audit_creation_date              2012-12-10T20:49:45-0500
_audit_creation_method            fapswitch 2.2
_symmetry_space_group_name_H-M    P1
_symmetry_Int_Tables_number       1
_space_group_crystal_system       triclinic
_cell_length_a                    8.111231
_cell_length_b                    8.929558
_cell_length_c                    17.164771
_cell_angle_alpha                 90.013033
_cell_angle_beta                  85.74798
_cell_angle_gamma                 90.004617
_cell_volume                      1239.81738396

loop_
_atom_site_label
_atom_site_type_symbol
_atom_type_description
_atom_site_fract_x
_atom_site_fract_y
_atom_site_fract_z
_atom_type_partial_charge
C1    C     C_R   0.500008 0.781981 0.499985 0.951138
C2    C     C_R   0.499995 0.218017 0.500008 0.917704
C3    C     C_1   0.500012 0.934795 0.499988 -0.138008
C4    C     C_1   0.499998 0.065201 0.499998 -0.146422
C5    C     C_R   0.477953 0.498530 0.652502 0.970190
C6    C     C_R   0.521599 0.500571 0.347576 0.970205
C7    C     C_R   0.465921 0.473697 0.735824 -0.260147
C8    C     C_R   0.528926 0.496852 0.263439 -0.259043
C9    C     C_R   0.583775 0.379384 0.765727 -0.259733
C10   C     C_R   0.404951 0.415887 0.229887 -0.261448
C11   C     C_R   0.577173 0.347413 0.844526 0.375245
C12   C     C_R   0.387434 0.424155 0.150886 0.389914
C13   C     C_R   0.454930 0.414700 0.894458 -0.129451
C14   C     C_R   0.500958 0.509778 0.103631 -0.120026
C15   C     C_R   0.335218 0.510361 0.865515 0.479739
C16   C     C_R   0.629197 0.588672 0.136437 0.426611
C17   C     C_R   0.336985 0.535424 0.784960 0.283370
C18   C     C_R   0.641835 0.584311 0.217129 0.310442
C19   C     C_2   0.464270 0.398769 0.977781 0.005743
C20   C     C_2   0.486607 0.520658 0.020187 -0.103347
H1    H     H_    0.680572 0.328780 0.727455 0.219617
H2    H     H_    0.316279 0.350504 0.266014 0.218473
H3    H     H_    0.507684 0.628633 0.992021 0.183080
H4    H     H_    0.466976 0.287384 0.003162 0.212659
N1    N     N_1   0.926360 0.500000 0.499990 -0.001753
N2    N     N_1   0.073640 0.500000 0.500010 -0.001159
O1    O     O_R   0.363150 0.714660 0.500000 -0.607988
O2    O     O_R   0.636850 0.285340 0.500000 -0.621862
O3    O     O_R   0.636850 0.714660 0.500000 -0.604510
O4    O     O_R   0.363150 0.285340 0.500000 -0.621917
O5    O     O_R   0.346950 0.500000 0.615800 -0.570433
O6    O     O_R   0.653050 0.500000 0.384200 -0.576197
O7    O     O_R   0.620700 0.500000 0.615800 -0.627246
O8    O     O_R   0.379300 0.500000 0.384200 -0.628083
Zn1   Zn    Zn3+2 0.317220 0.500000 0.500010 1.057381
Zn2   Zn    Zn3+2 0.682780 0.500000 0.499990 1.057426
O9    O     O_3   0.212570 0.571587 0.916502 -0.573645
C21   C     C_3   0.233823 0.728622 0.922662 -0.201229
H5    H     H_    0.231721 0.758983 0.985405 0.178358
H6    H     H_    0.128366 0.786448 0.898021 0.236967
H7    H     H_    0.351605 0.773112 0.893713 0.149668
O10   O     O_3   0.733938 0.679642 0.090237 -0.590759
C22   C     C_3   0.872853 0.594577 0.063238 -0.078316
H8    H     H_    0.837504 0.495183 0.029000 0.183243
H9    H     H_    0.945805 0.559531 0.112448 0.216224
H10   H     H_    0.953218 0.665914 0.023866 0.208415
Cl1   Cl    Cl    0.212193 0.336455 0.115950 -0.589848
Cl2   Cl    Cl    0.730718 0.230561 0.879481 -0.554607
Cl3   Cl    Cl    0.790632 0.697940 0.258686 -0.525126
Cl4   Cl    Cl    0.179669 0.645775 0.747550 -0.549509

loop_
_geom_bond_atom_site_label_1
_geom_bond_atom_site_label_2
_ccdc_geom_bond_type
C17   Cl4   S    
C7    C17   A    
C2    C4    S    
C22   H8    S    
C15   C17   A    
O9    C21   S    
C14   C16   A    
C14   C20   S    
C11   C13   A    
C6    O6    A    
C19   C20   D    
C20   H3    S    
C2    O4    A    
C1    O3    A    
C19   H4    S    
C22   H9    S    
C10   H2    S    
C21   H6    S    
C9    C11   A    
O3    Zn2   S    
C9    H1    S    
C11   Cl2   S    
C10   C12   A    
O4    Zn1   S    
C12   Cl1   S    
O6    Zn2   S    
C16   C18   A    
C12   C14   A    
C7    C9    A    
C13   C15   A    
C21   H5    S    
C22   H10   S    
O5    Zn1   S    
C2    O2    A    
O10   C22   S    
C13   C19   S    
N1    Zn2   S    
C3    C4    T    
C16   O10   S    
N2    Zn1   S    
O7    Zn2   S    
O2    Zn2   S    
C21   H7    S    
C1    O1    A    
O8    Zn1   S    
C1    C3    S    
C5    C7    S    
C15   O9    S    
C6    C8    S    
O1    Zn1   S    
N1    N2    T    
C8    C10   A    
C8    C18   A    
C6    O8    A    
C18   Cl3   S    
C5    O5    A    
C5    O7    A    
