data_mof_unit_23079.cif
_audit_creation_date              2013-03-05T15:42:47-0500
_audit_creation_method            fapswitch 2.2
_symmetry_space_group_name_H-M    P1
_symmetry_Int_Tables_number       1
_space_group_crystal_system       triclinic
_cell_length_a                    9.725496
_cell_length_b                    10.901245
_cell_length_c                    13.366296
_cell_angle_alpha                 90.691916
_cell_angle_beta                  72.605631
_cell_angle_gamma                 90.478514
_cell_volume                      1352.17544351

loop_
_atom_site_label
_atom_site_type_symbol
_atom_site_description
_atom_site_fract_x
_atom_site_fract_y
_atom_site_fract_z
_atom_type_partial_charge
O1    O     O_R   0.382960 0.678040 0.499980 -0.563342
O2    O     O_R   0.617100 0.678080 0.500020 -0.616043
C1    C     C_R   0.503551 0.734816 0.494050 0.852737
O3    O     O_R   0.325800 0.499940 0.650950 -0.586215
O4    O     O_R   0.559930 0.499980 0.650990 -0.615963
C2    C     C_R   0.422498 0.496206 0.700245 0.780069
Cu1   Cu    Cu3+1 0.361370 0.499980 0.499980 0.992053
Cu2   Cu    Cu3+1 0.638630 0.500020 0.500020 1.004911
O5    O     O_R   0.382900 0.321920 0.499980 -0.583537
O6    O     O_R   0.617040 0.321960 0.500020 -0.554244
O7    O     O_R   0.440070 0.500020 0.349010 -0.526628
O8    O     O_R   0.674200 0.500060 0.349050 -0.542192
C3    C     C_R   0.499658 0.265392 0.499576 0.841209
C4    C     C_R   0.577440 0.500853 0.300013 0.864918
C5    C     C_R   0.754492 0.358436 0.039284 -0.213300
H1    H     H_    0.796447 0.361667 0.187132 0.206162
H2    H     H_    0.762331 0.279761 0.848978 0.146322
H3    H     H_    0.840481 0.293806 0.005743 0.154569
C6    C     C_R   0.622700 0.484413 0.186381 -0.143060
C7    C     C_R   0.242255 0.550401 0.869067 -0.210812
C8    C     C_R   0.202989 0.569843 0.977447 0.174258
C9    C     C_R   0.302581 0.544639 0.031369 -0.112196
C10   C     C_R   0.439644 0.495843 0.978446 0.071461
C11   C     C_R   0.467417 0.457596 0.872891 0.076760
C12   C     C_R   0.545981 0.475957 0.029720 -0.002593
C13   C     C_R   0.659903 0.393062 0.983966 0.133593
C14   C     C_R   0.676359 0.343778 0.884359 -0.210971
C15   C     C_R   0.583060 0.377168 0.828692 -0.216490
C16   C     C_R   0.542557 0.535520 0.125174 0.252913
C17   C     C_R   0.731762 0.399475 0.141659 -0.246531
C18   C     C_R   0.375517 0.497541 0.815632 -0.134674
H4    H     H_    0.168733 0.577451 0.826410 0.158354
H5    H     H_    0.270452 0.559951 0.115272 0.183738
H6    H     H_    0.598918 0.334682 0.752590 0.168509
C19   C     C_2   0.618342 0.071709 0.449016 -0.125500
C20   C     C_2   0.498913 0.132990 0.500798 -0.357316
H7    H     H_    0.710728 0.124224 0.403672 0.193995
H8    H     H_    0.401445 0.088232 0.547650 0.142991
C21   C     C_2   0.632070 0.937148 0.455570 0.159419
C22   C     C_2   0.510150 0.867413 0.479100 -0.340816
H9    H     H_    0.407478 0.908255 0.482874 0.148605
C23   C     C_2   0.064500 0.590370 0.534506 0.029357
N1    N     N_2   0.152660 0.501340 0.501130 -0.273871
H10   H     H_    0.107132 0.676895 0.552941 0.154756
H11   H     H_    0.108287 0.416124 0.496703 0.223129
C24   C     C_2   0.903399 0.573571 0.558144 0.211586
N2    N     N_2   0.846520 0.501370 0.501160 -0.080479
C25   C     C_3   0.781833 0.880633 0.435004 -0.338222
C26   C     C_3   0.909996 0.968818 0.399194 -0.826020
H12   H     H_    0.914765 0.009563 0.322456 0.261477
H13   H     H_    0.903244 0.042209 0.458844 0.258586
H14   H     H_    0.011445 0.917417 0.389220 0.261381
H15   H     H_    0.788728 0.838400 0.508432 0.217267
H16   H     H_    0.796910 0.808445 0.373223 0.241051
C27   C     C_3   0.807022 0.632481 0.658268 -0.390864
C28   C     C_3   0.880989 0.722746 0.714506 -0.930659
H17   H     H_    0.967106 0.676398 0.738721 0.254191
H18   H     H_    0.926438 0.801796 0.663270 0.251777
H19   H     H_    0.800486 0.758523 0.786353 0.279100
H20   H     H_    0.718428 0.683025 0.641910 0.244507
H21   H     H_    0.760951 0.558315 0.714480 0.237217
N3    N     N_R   0.936752 0.466745 0.402852 0.220498
O9    O     O_R   0.926540 0.356024 0.368435 -0.377495
O10   O     O_R   0.002732 0.550102 0.336311 -0.381079
N4    N     N_R   0.483443 0.657792 0.147987 0.103003
O11   O     O_R   0.439060 0.701078 0.243286 -0.354417
O12   O     O_R   0.494418 0.733310 0.071218 -0.362579
C29   C     C_3   0.055660 0.619103 0.034950 -0.393281
C30   C     C_3   0.042356 0.753936 0.010107 -0.771211
H22   H     H_    0.125372 0.809510 0.032078 0.271522
H23   H     H_    0.055469 0.765620 0.925320 0.239582
H24   H     H_    0.934120 0.787959 0.055545 0.255162
H25   H     H_    0.972328 0.564595 0.012390 0.214676
H26   H     H_    0.033303 0.610159 0.121111 0.245232

loop_
_geom_bond_atom_site_label_1
_geom_bond_atom_site_label_2
_geom_bond_distance
_ccdc_geom_bond_type
C24   C27   1.523574 S    
C25   H16   1.111989 S    
C30   H24   1.110553 S    
C19   C21   1.480074 S    
C10   C11   1.413219 A    
N3    O9    1.300090 A    
Cu1   N1    2.025443 S    
C5    H3    1.083878 S    
C21   C25   1.532346 S    
C23   C24   1.512889 S    
C19   C20   1.339983 D    
C28   H19   1.110786 S    
Cu2   O8    1.942751 S    
C26   H14   1.110853 S    
C27   C28   1.531141 S    
C20   H8    1.083286 S    
O2    C1    1.293719 A    
C12   C13   1.420006 A    
Cu2   N2    2.026370 S    
C15   H6    1.081210 S    
Cu1   Cu2   2.696648 S    
N4    O11   1.300653 A    
C7    H4    1.083818 S    
C27   H20   1.103303 S    
C7    C8    1.397322 A    
Cu1   O7    1.932449 S    
N1    H11   1.029535 S    
C13   C14   1.394127 A    
O4    C2    1.302007 A    
C23   H10   1.082238 S    
N2    N3    1.394029 S    
O3    Cu1   1.942751 S    
C16   N4    1.448555 S    
C27   H21   1.107385 S    
Cu2   O6    1.950655 S    
C22   H9    1.083798 S    
C19   H7    1.084692 S    
C28   H18   1.110799 S    
C1    C22   1.459874 S    
C2    C18   1.471695 S    
C30   H22   1.111036 S    
C10   C12   1.420319 A    
C8    C29   1.508846 S    
C12   C16   1.416163 A    
C25   H15   1.109276 S    
O7    C4    1.300256 A    
C11   C18   1.413416 A    
O4    Cu2   1.932448 S    
N4    O12   1.302105 A    
C23   N1    1.284850 D    
C29   H26   1.111635 S    
H2    C14   1.084026 S    
Cu1   O5    1.954076 S    
C21   C22   1.360343 D    
C28   H17   1.111128 S    
C3    C20   1.443570 S    
O3    C2    1.300763 A    
C26   H12   1.110726 S    
C5    C17   1.388344 A    
O1    Cu1   1.950655 S    
C14   C15   1.387509 A    
C30   H23   1.110695 S    
C9    H5    1.081685 S    
O5    C3    1.295047 A    
C24   N2    1.317494 D    
C25   C26   1.530123 S    
C5    C13   1.398095 A    
N3    O10   1.302717 A    
C26   H13   1.110958 S    
C29   H25   1.111115 S    
C8    C9    1.399887 A    
C6    C17   1.401305 A    
H1    C17   1.083536 S    
C4    C6    1.458688 S    
O6    C3    1.294509 A    
C9    C10   1.413944 A    
O2    Cu2   1.954074 S    
C11   C15   1.410446 A    
O8    C4    1.297803 A    
C29   C30   1.525815 S    
O1    C1    1.303191 A    
C7    C18   1.403910 A    
C6    C16   1.409510 A    
