data_mof_unit_13162.cif
_audit_creation_date              2012-12-11T17:47:31-0500
_audit_creation_method            fapswitch 2.2
_symmetry_space_group_name_H-M    P1
_symmetry_Int_Tables_number       1
_space_group_crystal_system       orthorhombic
_cell_length_a                    7.224276
_cell_length_b                    23.032086
_cell_length_c                    25.110548
_cell_angle_alpha                 90.0
_cell_angle_beta                  90.0
_cell_angle_gamma                 90.0
_cell_volume                      4178.14775087

loop_
_atom_site_label
_atom_site_type_symbol
_atom_type_description
_atom_site_fract_x
_atom_site_fract_y
_atom_site_fract_z
_atom_type_partial_charge
O1    O     O_R   0.690340 0.802800 0.195640 -0.534483
O2    O     O_R   0.309660 0.197200 0.804360 -0.534455
O3    O     O_R   0.309660 0.197200 0.695640 -0.534483
O4    O     O_R   0.690340 0.802800 0.304360 -0.534456
O5    O     O_R   0.190340 0.697200 0.304360 -0.534483
O6    O     O_R   0.809660 0.302800 0.695640 -0.534456
O7    O     O_R   0.809660 0.302800 0.804360 -0.534483
O8    O     O_R   0.190340 0.697200 0.195640 -0.534455
O9    O     O_R   0.360590 0.809740 0.303990 -0.542736
O10   O     O_R   0.639410 0.190260 0.696010 -0.542890
O11   O     O_R   0.639410 0.190260 0.803990 -0.542736
O12   O     O_R   0.360590 0.809740 0.196010 -0.542890
O13   O     O_R   0.860590 0.690260 0.196010 -0.542736
O14   O     O_R   0.139410 0.309740 0.803990 -0.542890
O15   O     O_R   0.139410 0.309740 0.696010 -0.542736
O16   O     O_R   0.860590 0.690260 0.303990 -0.542890
C1    C     C_R   0.529073 0.823889 0.321365 0.719258
C2    C     C_R   0.470940 0.175977 0.678658 0.727348
C3    C     C_R   0.470927 0.176111 0.821365 0.719257
C4    C     C_R   0.529060 0.824023 0.178658 0.727348
C5    C     C_R   0.029073 0.676111 0.178635 0.719258
C6    C     C_R   0.970940 0.324023 0.821342 0.727348
C7    C     C_R   0.970927 0.323889 0.678635 0.719258
C8    C     C_R   0.029060 0.675977 0.321342 0.727348
O17   O     O_3   0.523810 0.713070 0.250000 -0.373515
O18   O     O_3   0.476190 0.286930 0.750000 -0.373514
O19   O     O_3   0.023810 0.786930 0.250000 -0.373514
O20   O     O_3   0.976190 0.213070 0.750000 -0.373515
V1    V     V_3+5 0.248970 0.756850 0.250000 1.455888
V2    V     V_3+5 0.751030 0.243150 0.750000 1.455888
V3    V     V_3+5 0.748970 0.743150 0.250000 1.455888
V4    V     V_3+5 0.251030 0.256850 0.750000 1.455888
C9    C     C_R   0.037165 0.630804 0.363733 -0.116502
C10   C     C_R   0.962328 0.368596 0.636010 -0.088084
C11   C     C_R   0.962835 0.369196 0.863733 -0.116502
C12   C     C_R   0.037672 0.631404 0.136010 -0.088084
C13   C     C_R   0.537165 0.869196 0.136267 -0.116502
C14   C     C_R   0.462328 0.131404 0.863990 -0.088084
C15   C     C_R   0.462835 0.130804 0.636267 -0.116502
C16   C     C_R   0.537672 0.868596 0.363990 -0.088083
C17   C     C_R   0.893913 0.589854 0.369127 -0.255012
C18   C     C_R   0.094051 0.413480 0.633786 -0.264360
C19   C     C_R   0.106087 0.410146 0.869127 -0.255012
C20   C     C_R   0.905949 0.586520 0.133786 -0.264361
C21   C     C_R   0.393913 0.910146 0.130872 -0.255012
C22   C     C_R   0.594051 0.086520 0.866214 -0.264360
C23   C     C_R   0.606087 0.089854 0.630872 -0.255012
C24   C     C_R   0.405949 0.913480 0.366214 -0.264362
C25   C     C_R   0.901313 0.545979 0.408138 0.433894
C26   C     C_R   0.084288 0.457014 0.594487 0.344469
C27   C     C_R   0.098687 0.454020 0.908138 0.433894
C28   C     C_R   0.915712 0.542986 0.094487 0.344471
C29   C     C_R   0.401313 0.954021 0.091862 0.433894
C30   C     C_R   0.584288 0.042986 0.905513 0.344469
C31   C     C_R   0.598687 0.045979 0.591862 0.433894
C32   C     C_R   0.415712 0.957014 0.405512 0.344472
C33   C     C_R   0.051296 0.544921 0.444796 0.329613
C34   C     C_R   0.945831 0.453666 0.554509 0.358752
C35   C     C_R   0.948704 0.455079 0.944796 0.329614
C36   C     C_R   0.054169 0.546334 0.054509 0.358752
C37   C     C_R   0.551296 0.955079 0.055204 0.329613
C38   C     C_R   0.445831 0.046334 0.945491 0.358752
C39   C     C_R   0.448704 0.044921 0.555204 0.329614
C40   C     C_R   0.554169 0.953666 0.445491 0.358752
C41   C     C_R   0.194912 0.585331 0.438587 -0.098772
C42   C     C_R   0.814139 0.409060 0.557297 -0.184119
C43   C     C_R   0.805088 0.414669 0.938587 -0.098772
C44   C     C_R   0.185861 0.590940 0.057297 -0.184120
C45   C     C_R   0.694912 0.914669 0.061413 -0.098772
C46   C     C_R   0.314139 0.090940 0.942703 -0.184119
C47   C     C_R   0.305088 0.085331 0.561413 -0.098772
C48   C     C_R   0.685861 0.909060 0.442703 -0.184120
C49   C     C_R   0.188860 0.627530 0.398534 -0.194781
C50   C     C_R   0.821013 0.367296 0.597696 -0.196019
C51   C     C_R   0.811140 0.372470 0.898534 -0.194781
C52   C     C_R   0.178987 0.632704 0.097696 -0.196019
C53   C     C_R   0.688860 0.872470 0.101466 -0.194781
C54   C     C_R   0.321013 0.132704 0.902304 -0.196019
C55   C     C_R   0.311140 0.127530 0.601466 -0.194781
C56   C     C_R   0.678987 0.867296 0.402304 -0.196019
N1    N     N_2   0.069417 0.502553 0.486022 -0.177262
N2    N     N_2   0.926632 0.496017 0.513436 -0.161945
N3    N     N_2   0.930583 0.497446 0.986022 -0.177261
N4    N     N_2   0.073368 0.503983 0.013435 -0.161945
N5    N     N_2   0.569417 0.997446 0.013978 -0.177262
N6    N     N_2   0.426632 0.003983 0.986564 -0.161945
N7    N     N_2   0.430583 0.002554 0.513978 -0.177261
N8    N     N_2   0.573368 0.996017 0.486564 -0.161945
H1    H     H_    0.201162 0.415618 0.663895 0.185626
H2    H     H_    0.778467 0.590971 0.341647 0.191396
H3    H     H_    0.798838 0.584382 0.163895 0.185626
H4    H     H_    0.221533 0.409029 0.841647 0.191396
H5    H     H_    0.701162 0.084382 0.836105 0.185626
H6    H     H_    0.278467 0.909029 0.158353 0.191396
H7    H     H_    0.298838 0.915618 0.336105 0.185626
H8    H     H_    0.721533 0.090971 0.658353 0.191396
H9    H     H_    0.312172 0.584421 0.465424 0.226498
H10   H     H_    0.705616 0.406471 0.527667 0.173562
H11   H     H_    0.687828 0.415579 0.965424 0.226498
H12   H     H_    0.294384 0.593529 0.027667 0.173562
H13   H     H_    0.812172 0.915579 0.034576 0.226498
H14   H     H_    0.205616 0.093529 0.972333 0.173562
H15   H     H_    0.187828 0.084421 0.534576 0.226498
H16   H     H_    0.794383 0.906471 0.472333 0.173562
H17   H     H_    0.301995 0.658187 0.395336 0.155170
H18   H     H_    0.717254 0.333357 0.598452 0.147014
H19   H     H_    0.698005 0.341813 0.895336 0.155170
H20   H     H_    0.282746 0.666643 0.098452 0.147014
H21   H     H_    0.801995 0.841813 0.104664 0.155170
H22   H     H_    0.217254 0.166642 0.901548 0.147014
H23   H     H_    0.198005 0.158187 0.604664 0.155170
H24   H     H_    0.782746 0.833357 0.401548 0.147014
S1    S     S_3+6 0.238657 0.516562 0.598764 0.107947
O21   O     O_2   0.137588 0.571970 0.586359 -0.257003
O22   O     O_2   0.320071 0.520790 0.653725 -0.276374
O23   O     O_3   0.410756 0.507838 0.554550 -0.445865
H25   H     H_    0.454791 0.467647 0.560328 0.331060
S2    S     S_3+6 0.729748 0.491081 0.406777 0.061097
O24   O     O_2   0.589385 0.503051 0.449504 -0.320825
O25   O     O_2   0.634105 0.490203 0.353605 -0.290571
O26   O     O_3   0.828206 0.425992 0.417717 -0.471681
H26   H     H_    0.723356 0.398411 0.420184 0.378661
S3    S     S_3+6 0.761343 0.483438 0.098764 0.107947
O27   O     O_2   0.862413 0.428030 0.086359 -0.257003
O28   O     O_2   0.679929 0.479210 0.153725 -0.276375
O29   O     O_3   0.589244 0.492162 0.054550 -0.445866
H27   H     H_    0.545206 0.532353 0.060329 0.331061
S4    S     S_3+6 0.270252 0.508919 0.906777 0.061097
O30   O     O_2   0.410615 0.496949 0.949504 -0.320825
O31   O     O_2   0.365895 0.509797 0.853605 -0.290571
O32   O     O_3   0.171794 0.574008 0.917717 -0.471680
H28   H     H_    0.276645 0.601588 0.920184 0.378661
S5    S     S_3+6 0.738657 0.983438 0.901236 0.107947
O33   O     O_2   0.637588 0.928030 0.913641 -0.257003
O34   O     O_2   0.820071 0.979210 0.846275 -0.276374
O35   O     O_3   0.910756 0.992162 0.945450 -0.445865
H29   H     H_    0.954791 0.032353 0.939672 0.331060
S6    S     S_3+6 0.229748 0.008918 0.093223 0.061097
O36   O     O_2   0.089385 0.996949 0.050496 -0.320825
O37   O     O_2   0.134105 0.009797 0.146395 -0.290571
O38   O     O_3   0.328206 0.074008 0.082283 -0.471681
H30   H     H_    0.223356 0.101588 0.079816 0.378661
S7    S     S_3+6 0.261343 0.016562 0.401236 0.107947
O39   O     O_2   0.362413 0.071970 0.413641 -0.257003
O40   O     O_2   0.179930 0.020790 0.346275 -0.276375
O41   O     O_3   0.089244 0.007838 0.445450 -0.445865
H31   H     H_    0.045206 0.967647 0.439671 0.331061
S8    S     S_3+6 0.770252 0.991081 0.593223 0.061097
O42   O     O_2   0.910615 0.003051 0.550496 -0.320825
O43   O     O_2   0.865895 0.990203 0.646395 -0.290572
O44   O     O_3   0.671794 0.925992 0.582283 -0.471680
H32   H     H_    0.776645 0.898412 0.579816 0.378661

loop_
_geom_bond_atom_site_label_1
_geom_bond_atom_site_label_2
_ccdc_geom_bond_type
O17   V3    S    
S7    O41   S    
N7    N8    D    
C51   H19   S    
O29   H27   S    
C24   H7    S    
O12   V1    S    
O19   V1    S    
C45   C53   A    
C10   C18   A    
S8    O44   S    
C19   C27   A    
S4    O30   D    
C47   C55   A    
N1    N2    D    
C25   C33   A    
S3    O27   D    
C5    C12   S    
N5    N6    D    
O16   V3    S    
O18   V4    S    
C6    C11   S    
C38   N6    S    
O11   C3    A    
O12   C4    A    
O8    V1    S    
C23   C31   A    
C35   N3    S    
S1    O21   D    
C34   N2    S    
C28   S3    S    
S3    O28   D    
C46   C54   A    
C37   C45   A    
S7    O39   D    
C42   C50   A    
S7    O40   D    
O1    V3    S    
C41   C49   A    
O23   H25   S    
C38   C46   A    
O3    C2    A    
O2    V4    S    
C16   C24   A    
S2    O24   D    
C12   C52   A    
C35   C43   A    
C32   S7    S    
C29   C37   A    
C34   C42   A    
C25   S2    S    
O11   V2    S    
C31   C39   A    
C52   H20   S    
S5    O35   S    
C23   H8    S    
C16   C56   A    
C11   C19   A    
O9    V1    S    
S1    O23   S    
C20   C28   A    
O15   C7    A    
C17   H2    S    
C21   C29   A    
O16   C8    A    
O7    V2    S    
C56   H24   S    
C21   H6    S    
C17   C25   A    
C26   S1    S    
O5    V1    S    
C29   S6    S    
C26   C34   A    
O15   V4    S    
S8    O42   D    
C22   H5    S    
O14   V4    S    
S3    O29   S    
C48   H16   S    
C30   S5    S    
C13   C53   A    
S2    O26   S    
C15   C55   A    
C2    C15   S    
C44   H12   S    
C3    C14   S    
C50   H18   S    
O10   V2    S    
C49   H17   S    
N3    N4    D    
O44   H32   S    
C7    C10   S    
C11   C51   A    
C22   C30   A    
C32   C40   A    
O8    C5    A    
O13   C5    A    
C54   H22   S    
C53   H21   S    
O26   H26   S    
C39   C47   A    
C20   H3    S    
C37   N5    S    
C18   C26   A    
O4    C1    A    
S8    O43   D    
C9    C49   A    
O6    V2    S    
C10   C50   A    
C45   H13   S    
S5    O33   D    
C33   N1    S    
C12   C20   A    
C27   C35   A    
C27   S4    S    
C13   C21   A    
O32   H28   S    
S4    O32   S    
C15   C23   A    
O41   H31   S    
O9    C1    A    
C24   C32   A    
C47   H15   S    
O1    C4    A    
C39   N7    S    
O2    C3    A    
O13   V3    S    
C8    C9    S    
C33   C41   A    
O35   H29   S    
S6    O38   S    
S4    O31   D    
C46   H14   S    
S6    O37   D    
C43   H11   S    
C44   C52   A    
O7    C6    A    
C30   C38   A    
C14   C54   A    
C19   H4    S    
C55   H23   S    
C18   H1    S    
C9    C17   A    
C42   H10   S    
O20   V2    S    
C41   H9    S    
C48   C56   A    
O38   H30   S    
C4    C13   S    
C36   N4    S    
O14   C6    A    
C31   S8    S    
O5    C8    A    
O10   C2    A    
O6    C7    A    
C40   N8    S    
C40   C48   A    
O3    V4    S    
S2    O25   D    
C14   C22   A    
O4    V3    S    
S6    O36   D    
C43   C51   A    
C36   C44   A    
C28   C36   A    
S5    O34   D    
C1    C16   S    
S1    O22   D    
