data_mof_unit_16939.cif
_audit_creation_date              2012-12-10T19:34:59-0500
_audit_creation_method            fapswitch 2.2
_symmetry_space_group_name_H-M    P1
_symmetry_Int_Tables_number       1
_space_group_crystal_system       triclinic
_cell_length_a                    10.79327
_cell_length_b                    15.877232
_cell_length_c                    17.03332
_cell_angle_alpha                 95.69381
_cell_angle_beta                  90.960484
_cell_angle_gamma                 91.668054
_cell_volume                      2902.7544932

loop_
_atom_site_label
_atom_site_type_symbol
_atom_type_description
_atom_site_fract_x
_atom_site_fract_y
_atom_site_fract_z
_atom_type_partial_charge
C1    C     C_R   0.497775 0.490153 0.348879 0.789584
C2    C     C_R   0.502224 0.509846 0.651120 0.789585
C3    C     C_R   0.490208 0.486548 0.263270 -0.038102
C4    C     C_R   0.509782 0.513449 0.736729 -0.038077
C5    C     C_R   0.561255 0.543812 0.224306 -0.280212
C6    C     C_R   0.438676 0.456218 0.775693 -0.280244
C7    C     C_R   0.552003 0.542566 0.142838 -0.188886
C8    C     C_R   0.447910 0.457465 0.857161 -0.188868
C9    C     C_R   0.468700 0.484950 0.099141 0.307007
C10   C     C_R   0.531264 0.515042 0.900859 0.307013
C11   C     C_R   0.393268 0.429959 0.138949 -0.035324
C12   C     C_R   0.606762 0.569992 0.861049 -0.035344
C13   C     C_R   0.406392 0.429773 0.220713 -0.233231
C14   C     C_R   0.593647 0.570185 0.779285 -0.233302
C15   C     C_R   0.432226 0.755204 0.466550 0.149295
C16   C     C_R   0.567766 0.244797 0.533457 0.149298
C17   C     C_R   0.438312 0.844003 0.469392 -0.312320
C18   C     C_R   0.561683 0.155998 0.530614 -0.312320
C19   C     C_R   0.528708 0.891436 0.515960 0.366796
C20   C     C_R   0.471298 0.108564 0.484038 0.366795
C21   C     C_R   0.611708 0.846661 0.559562 -0.304940
C22   C     C_R   0.388305 0.153338 0.440429 -0.304941
C23   C     C_R   0.262849 0.500481 0.500334 0.804506
C24   C     C_R   0.737151 0.499520 0.499667 0.804512
C25   C     C_R   0.603475 0.757361 0.555709 0.046049
C26   C     C_R   0.396535 0.242638 0.444283 0.046040
C27   C     C_R   0.122199 0.410499 0.372824 -0.270200
C28   C     C_R   0.877800 0.589509 0.627173 -0.270228
C29   C     C_R   0.055403 0.363715 0.312174 0.563560
C30   C     C_R   0.944595 0.636305 0.687817 0.563539
C31   C     C_R   0.926237 0.365552 0.309621 -0.051322
C32   C     C_R   0.073762 0.634479 0.690365 -0.051315
C33   C     C_R   0.865113 0.412465 0.370459 -0.315264
C34   C     C_R   0.134886 0.587557 0.629532 -0.315279
C35   C     C_R   0.931616 0.455137 0.436042 0.039611
C36   C     C_R   0.068384 0.544872 0.563955 0.039616
C37   C     C_R   0.061872 0.455212 0.436662 -0.006223
C38   C     C_R   0.938128 0.544793 0.563336 -0.006221
C39   C     C_R   0.870971 0.499282 0.499814 -0.115898
C40   C     C_R   0.129029 0.500721 0.500186 -0.115887
Cu1   Cu    Cu3+1 0.493970 0.415220 0.496180 0.940194
Cu2   Cu    Cu3+1 0.506030 0.584780 0.503820 0.940195
H1    H     H_    0.628240 0.124545 0.565073 0.161751
H2    H     H_    0.371748 0.875457 0.434939 0.161751
H3    H     H_    0.682879 0.880787 0.596540 0.152697
H4    H     H_    0.317142 0.119211 0.403445 0.152698
H5    H     H_    0.668275 0.724408 0.589875 0.149096
H6    H     H_    0.331742 0.275590 0.410112 0.149087
H7    H     H_    0.221744 0.410811 0.368433 0.161781
H8    H     H_    0.778256 0.589193 0.631565 0.161773
H9    H     H_    0.765261 0.414246 0.365818 0.175206
H10   H     H_    0.234738 0.585783 0.634170 0.175218
H11   H     H_    0.374714 0.411282 0.743075 0.152596
H12   H     H_    0.625182 0.588776 0.256922 0.152599
H13   H     H_    0.390677 0.412807 0.885638 0.166232
H14   H     H_    0.609181 0.587256 0.114361 0.166210
H15   H     H_    0.349417 0.386728 0.251248 0.194179
H16   H     H_    0.650669 0.613201 0.748750 0.194177
N1    N     N_2   0.456782 0.481590 0.015864 -0.269446
N2    N     N_2   0.543180 0.518396 0.984135 -0.269455
N3    N     N_R   0.515100 0.712130 0.509560 -0.184667
N4    N     N_R   0.484900 0.287870 0.490440 -0.184665
N5    N     N_2   0.538774 0.982565 0.520555 -0.240119
N6    N     N_2   0.461233 0.017434 0.479442 -0.240120
O1    O     O_R   0.494360 0.420530 0.382500 -0.590800
O2    O     O_R   0.505640 0.579470 0.617500 -0.590788
O3    O     O_R   0.504550 0.563720 0.388950 -0.579591
O4    O     O_R   0.495450 0.436280 0.611050 -0.579585
O5    O     O_R   0.314560 0.428400 0.496770 -0.597502
O6    O     O_R   0.685440 0.571600 0.503230 -0.597505
O7    O     O_R   0.324750 0.571590 0.503220 -0.574094
O8    O     O_R   0.675250 0.428410 0.496780 -0.574094
C41   C     C_R   0.144998 0.679829 0.757443 0.136715
C42   C     C_R   0.127048 0.766239 0.779479 -0.060748
C43   C     C_R   0.192604 0.808270 0.844017 -0.155943
C44   C     C_R   0.276194 0.764447 0.887094 -0.131877
C45   C     C_R   0.294434 0.678568 0.865647 -0.126724
C46   C     C_R   0.229519 0.636372 0.800939 -0.172284
H17   H     H_    0.062833 0.801111 0.746528 0.149581
H18   H     H_    0.178432 0.874800 0.860709 0.129716
H19   H     H_    0.326540 0.796943 0.937230 0.125082
H20   H     H_    0.358038 0.644632 0.899657 0.146716
H21   H     H_    0.242949 0.569539 0.785708 0.138898
C47   C     C_R   0.855005 0.320227 0.242529 0.136730
C48   C     C_R   0.770543 0.363714 0.199019 -0.172221
C49   C     C_R   0.705651 0.321542 0.134292 -0.126775
C50   C     C_R   0.723847 0.235658 0.112843 -0.131935
C51   C     C_R   0.807374 0.191806 0.155936 -0.155956
C52   C     C_R   0.872913 0.233812 0.220491 -0.060774
H22   H     H_    0.757146 0.430551 0.214253 0.138884
H23   H     H_    0.642099 0.355502 0.100268 0.146745
H24   H     H_    0.673518 0.203181 0.062692 0.125080
H25   H     H_    0.821515 0.125272 0.139240 0.129725
H26   H     H_    0.937085 0.198919 0.253451 0.149559
F1    F     F_    0.117668 0.318165 0.254827 -0.709364
F2    F     F_    0.882329 0.681858 0.745162 -0.709348
C53   C     C_R   0.298111 0.373861 0.095835 0.132196
C54   C     C_R   0.171917 0.389204 0.107217 -0.053142
C55   C     C_R   0.081307 0.336642 0.066194 -0.080505
C56   C     C_R   0.116199 0.268837 0.013361 -0.117377
C57   C     C_R   0.241777 0.253666 0.001290 -0.150964
C58   C     C_R   0.332687 0.306045 0.042293 -0.129422
H27   H     H_    0.143874 0.441785 0.147827 0.122772
H28   H     H_    0.984116 0.348492 0.075337 0.139994
H29   H     H_    0.045954 0.228171 0.981687 0.124633
H30   H     H_    0.268668 0.201293 0.960184 0.127573
H31   H     H_    0.429683 0.293701 0.032561 0.119788
C59   C     C_R   0.701995 0.626027 0.904158 0.132263
C60   C     C_R   0.828164 0.610642 0.892712 -0.053222
C61   C     C_R   0.918847 0.663137 0.933736 -0.080475
C62   C     C_R   0.884054 0.730919 0.986630 -0.117295
C63   C     C_R   0.758503 0.746135 0.998763 -0.150996
C64   C     C_R   0.667520 0.693822 0.957762 -0.129427
H32   H     H_    0.856130 0.558077 0.852055 0.122709
H33   H     H_    0.016016 0.651251 0.924546 0.139949
H34   H     H_    0.954357 0.771533 0.018305 0.124634
H35   H     H_    0.731690 0.798491 0.039917 0.127567
H36   H     H_    0.570546 0.706200 0.967543 0.119786
C65   C     C_R   0.668029 0.287783 0.583633 0.155316
C66   C     C_R   0.647736 0.313524 0.663502 -0.117063
C67   C     C_R   0.744345 0.351218 0.711709 -0.155434
C68   C     C_R   0.863141 0.359708 0.681456 -0.128394
C69   C     C_R   0.886000 0.328901 0.603478 -0.135026
C70   C     C_R   0.789262 0.291896 0.554970 -0.130534
H37   H     H_    0.556787 0.305355 0.688073 0.131251
H38   H     H_    0.727213 0.373418 0.772605 0.140292
H39   H     H_    0.937785 0.389120 0.718695 0.128217
H40   H     H_    0.978476 0.334169 0.580447 0.141921
H41   H     H_    0.808052 0.268264 0.494612 0.132250
C71   C     C_R   0.331949 0.712220 0.416384 0.155320
C72   C     C_R   0.352225 0.686470 0.336514 -0.117067
C73   C     C_R   0.255604 0.648778 0.288317 -0.155430
C74   C     C_R   0.136812 0.640300 0.318580 -0.128375
C75   C     C_R   0.113970 0.671116 0.396558 -0.135024
C76   C     C_R   0.210722 0.708117 0.445057 -0.130543
H42   H     H_    0.443170 0.694634 0.311936 0.131241
H43   H     H_    0.272722 0.626573 0.227421 0.140293
H44   H     H_    0.062158 0.610890 0.281348 0.128231
H45   H     H_    0.021497 0.665856 0.419596 0.141924
H46   H     H_    0.191945 0.731756 0.505416 0.132248

loop_
_geom_bond_atom_site_label_1
_geom_bond_atom_site_label_2
_ccdc_geom_bond_type
C45   C46   A    
C50   C51   A    
C57   C58   A    
C27   C29   A    
Cu1   Cu2   S    
C23   O5    A    
C2    C4    S    
C62   C63   A    
C53   C54   A    
C24   O6    A    
C69   C70   A    
C65   C70   A    
C56   H29   S    
C7    H14   S    
C35   C37   A    
C37   C40   A    
C2    O4    A    
C49   H23   S    
C38   C39   A    
C13   H15   S    
Cu2   O3    S    
C23   C40   S    
Cu2   O6    S    
C24   C39   S    
C59   C60   A    
C15   C17   A    
C41   C42   A    
C68   H39   S    
C61   C62   A    
C56   C57   A    
C30   F2    S    
C17   C19   A    
C28   H8    S    
C46   H21   S    
C71   C76   A    
C19   N5    S    
C73   C74   A    
C54   H27   S    
C1    O1    A    
C41   C46   A    
C31   C33   A    
C62   H34   S    
C43   H18   S    
C25   H5    S    
C18   C20   A    
C53   C58   A    
C3    C13   A    
C26   H6    S    
C55   H28   S    
C12   C59   S    
C74   H44   S    
C50   H24   S    
C16   N4    A    
Cu1   N4    S    
C8    H13   S    
C63   C64   A    
Cu1   O4    S    
C21   H3    S    
C76   H46   S    
C14   H16   S    
C42   C43   A    
C23   O7    A    
C5    H12   S    
C36   C40   A    
C47   C48   A    
C4    C6    A    
C72   H42   S    
C16   C65   S    
C32   C41   S    
C5    C7    A    
C49   C50   A    
Cu1   O1    S    
C3    C5    A    
C73   H43   S    
C48   C49   A    
C31   C47   S    
C64   H36   S    
C9    N1    S    
C32   C34   A    
C59   C64   A    
C20   N6    S    
C10   N2    S    
C43   C44   A    
C55   C56   A    
C28   C38   A    
C65   C66   A    
C15   N3    A    
C58   H31   S    
C25   N3    A    
C44   C45   A    
C9    C11   A    
Cu2   N3    S    
C67   C68   A    
C10   C12   A    
C60   H32   S    
Cu1   O8    S    
C16   C18   A    
C22   H4    S    
C12   C14   A    
C42   H17   S    
C74   C75   A    
C47   C52   A    
C6    H11   S    
C72   C73   A    
C75   H45   S    
C66   C67   A    
C24   O8    A    
Cu1   O5    S    
C57   H30   S    
C7    C9    A    
C21   C25   A    
C51   H25   S    
C19   C21   A    
C66   H37   S    
C20   C22   A    
C2    O2    A    
C44   H19   S    
C52   H26   S    
C6    C8    A    
C48   H22   S    
C75   C76   A    
C1    O3    A    
C33   H9    S    
C34   H10   S    
C11   C53   S    
C36   C38   A    
C71   C72   A    
C26   N4    A    
C17   H2    S    
C67   H38   S    
C29   C31   A    
C60   C61   A    
C30   C32   A    
C11   C13   A    
C69   H40   S    
C63   H35   S    
C15   C71   S    
C45   H20   S    
C27   C37   A    
C35   C39   A    
C28   C30   A    
Cu2   O7    S    
C33   C35   A    
C70   H41   S    
C34   C36   A    
C4    C14   A    
C29   F1    S    
N5    N6    D    
N1    N2    D    
C51   C52   A    
C8    C10   A    
C54   C55   A    
C22   C26   A    
Cu2   O2    S    
C1    C3    S    
C68   C69   A    
C18   H1    S    
C61   H33   S    
C27   H7    S    
