data_mof_unit_45559.cif
_audit_creation_date              2012-12-11T14:56:43-0500
_audit_creation_method            fapswitch 2.2
_symmetry_space_group_name_H-M    P1
_symmetry_Int_Tables_number       1
_space_group_crystal_system       triclinic
_cell_length_a                    10.556309
_cell_length_b                    10.746442
_cell_length_c                    17.095343
_cell_angle_alpha                 80.135668
_cell_angle_beta                  90.268756
_cell_angle_gamma                 119.943933
_cell_volume                      1648.18831608

loop_
_atom_site_label
_atom_site_type_symbol
_atom_type_description
_atom_site_fract_x
_atom_site_fract_y
_atom_site_fract_z
_atom_type_partial_charge
C1    C     C_R   0.223135 0.854362 0.128748 0.543257
C2    C     C_1   0.650983 0.343790 0.707347 -0.057981
C3    C     C_R   0.614985 0.718103 0.803875 -0.165767
C4    C     C_R   0.610977 0.209695 0.102354 0.559203
C5    C     C_R   0.589889 0.700527 0.726751 0.044824
C6    C     C_R   0.660989 0.823936 0.664075 0.100624
C7    C     C_R   0.742598 0.965255 0.680103 0.093425
C8    C     C_R   0.759348 0.983061 0.759554 0.087464
C9    C     C_R   0.689654 0.857599 0.821323 0.023934
C10   C     C_R   0.082673 0.896602 0.792361 -0.122354
C11   C     C_R   0.051452 0.887763 0.714041 0.225371
C12   C     C_R   0.719468 0.250321 0.310148 -0.058992
C13   C     C_R   0.052966 0.777307 0.680842 0.052091
C14   C     C_R   0.081369 0.674599 0.727952 -0.176698
C15   C     C_R   0.124174 0.692112 0.804381 -0.145351
C16   C     C_R   0.644338 0.855461 0.124037 0.537456
C17   C     C_R   0.131561 0.808061 0.835100 -0.007487
C18   C     C_R   0.711409 0.771937 0.353614 0.561345
C19   C     C_R   0.680503 0.382584 0.400296 0.540608
C20   C     C_R   0.103584 0.810668 0.359202 0.551686
C21   C     C_R   0.676141 0.800085 0.585068 0.603517
C22   C     C_R   0.678212 0.381648 0.624298 0.539528
C23   C     C_R   0.721338 0.229241 0.233256 0.072856
C24   C     C_R   0.029645 0.774678 0.596616 0.587090
C25   C     C_R   0.214543 0.857958 0.902665 0.553705
C26   C     C_R   0.637629 0.284857 0.860917 0.559601
C27   C     C_R   0.647672 0.868261 0.899013 0.565660
C28   C     C_R   0.511583 0.265076 0.214929 -0.145702
C29   C     C_R   0.522277 0.302311 0.289732 -0.143304
C30   C     C_R   0.631475 0.301550 0.335833 -0.004537
C31   C     C_R   0.615948 0.236177 0.183904 0.025078
C32   C     C_1   0.685916 0.830475 0.201567 -0.048988
C33   C     C_1   0.703793 0.805974 0.270402 -0.030848
C34   C     C_1   0.181214 0.825930 0.211388 -0.033730
C35   C     C_1   0.151735 0.820653 0.279845 -0.031183
C36   C     C_1   0.643766 0.322425 0.778008 -0.061529
Cr1   Cr    Cr6+3 0.402240 0.783890 0.019450 1.026944
Cr2   Cr    Cr6+3 0.382360 0.097900 0.991800 1.019842
Cr3   Cr    Cr6+3 0.715380 0.118170 0.988700 1.029830
Cr4   Cr    Cr6+3 0.936650 0.882420 0.465510 1.070390
Cr5   Cr    Cr6+3 0.605770 0.565620 0.493360 1.044135
Cr6   Cr    Cr6+3 0.921340 0.550490 0.496380 1.019047
H1    H     H_    0.427363 0.268164 0.179671 0.152283
H2    H     H_    0.796568 0.116406 0.185025 0.262516
H3    H     H_    0.513983 0.482958 0.743520 0.229420
H4    H     H_    0.382984 0.528492 0.738561 0.223354
H5    H     H_    0.744728 0.144732 0.619900 0.240095
H6    H     H_    0.912267 0.158978 0.619632 0.254360
H7    H     H_    0.799526 0.190541 0.749852 0.241079
H8    H     H_    0.951013 0.175150 0.754670 0.206706
H9    H     H_    0.080310 0.587076 0.704052 0.146272
H10   H     H_    0.159414 0.620933 0.837185 0.142565
H11   H     H_    0.451562 0.339465 0.309223 0.146224
H12   H     H_    0.801670 0.244268 0.346297 0.175152
H13   H     H_    0.560223 0.621790 0.851121 0.140926
H14   H     H_    0.082113 0.982954 0.816833 0.132154
H15   H     H_    0.063461 0.077099 0.694091 0.305629
H16   H     H_    0.908929 0.302406 0.162570 0.263098
N1    N     N_3   0.839253 0.212373 0.206706 -0.627658
N2    N     N_3   0.486224 0.557334 0.713134 -0.578104
N3    N     N_3   0.800829 0.089014 0.615280 -0.599438
N4    N     N_3   0.841877 0.126885 0.777660 -0.585432
O1    O     O_R   0.521780 0.757110 0.108900 -0.500601
O2    O     O_R   0.805020 0.410040 0.421340 -0.518204
O3    O     O_R   0.049240 0.685450 0.403290 -0.487874
O4    O     O_R   0.275160 0.783810 0.101120 -0.493288
O5    O     O_R   0.077520 0.903010 0.551800 -0.441129
O6    O     O_R   0.802980 0.872780 0.546830 -0.463048
O7    O     O_R   0.578090 0.681300 0.569920 -0.482161
O8    O     O_R   0.608530 0.436370 0.586530 -0.476506
O9    O     O_R   0.798770 0.401880 0.597100 -0.541778
O10   O     O_R   0.043450 0.677890 0.566230 -0.515809
O11   O     O_3   0.821250 0.666180 0.485090 -0.313752
O12   O     O_R   0.513330 0.228330 0.898660 -0.495702
O13   O     O_R   0.237900 0.972600 0.090980 -0.520427
O14   O     O_R   0.511190 0.220540 0.061620 -0.505819
O15   O     O_R   0.736920 0.257720 0.063840 -0.520333
O16   O     O_R   0.710450 0.984050 0.081720 -0.532004
O17   O     O_R   0.524090 0.765520 0.933110 -0.529760
O18   O     O_R   0.277300 0.791600 0.938160 -0.497383
O19   O     O_R   0.240210 0.981010 0.915190 -0.520877
O20   O     O_3   0.028960 0.992046 0.667624 -0.678366
O21   O     O_R   0.739230 0.266130 0.888050 -0.491315
O22   O     O_R   0.712580 0.991850 0.918770 -0.458419
O23   O     O_3   0.499990 0.999980 0.999980 -0.273320
O24   O     O_R   0.083770 0.911170 0.376030 -0.512143
O25   O     O_R   0.808770 0.880340 0.383890 -0.488922
O26   O     O_R   0.584340 0.689460 0.394160 -0.502391
O27   O     O_R   0.614320 0.443940 0.423590 -0.513925

loop_
_geom_bond_atom_site_label_1
_geom_bond_atom_site_label_2
_ccdc_geom_bond_type
Cr5   O27   S    
H3    N2    S    
C26   O21   A    
C25   O18   A    
C7    C8    A    
Cr2   O14   S    
C23   N1    S    
Cr1   O17   S    
C12   C23   A    
C24   O10   A    
C3    C9    A    
Cr3   O15   S    
Cr4   O25   S    
Cr1   O23   S    
C27   O22   A    
Cr3   O22   S    
C27   O17   A    
C5    C6    A    
H2    N1    S    
Cr4   O11   S    
C34   C35   T    
Cr4   O24   S    
C7    N3    S    
C24   O5    A    
C20   C35   S    
C3    H13   S    
C8    C9    A    
Cr4   O5    S    
C20   O24   A    
C2    C22   S    
Cr6   O3    S    
C16   O1    A    
C10   H14   S    
C12   C30   A    
C13   C14   A    
C25   O19   A    
Cr1   O1    S    
C1    C34   S    
Cr2   O13   S    
C11   O20   S    
Cr1   O18   S    
Cr2   O23   S    
C1    O13   A    
Cr3   O16   S    
C20   O3    A    
H16   N1    S    
C6    C21   S    
C18   O26   A    
C13   C24   S    
C21   O7    A    
C23   C31   A    
C29   C30   A    
C19   O27   A    
C14   H9    S    
C19   O2    A    
Cr1   O4    S    
Cr6   O10   S    
C1    O4    A    
C15   H10   S    
C26   C36   S    
C21   O6    A    
H8    N4    S    
Cr3   O23   S    
Cr6   O2    S    
C22   O9    A    
C9    C27   S    
Cr5   O7    S    
Cr2   O12   S    
C2    C36   T    
C15   C17   A    
Cr5   O26   S    
C28   C29   A    
Cr6   O11   S    
H7    N4    S    
C5    N2    S    
H4    N2    S    
C14   C15   A    
C28   C31   A    
C3    C5    A    
H5    N3    S    
C6    C7    A    
C16   C32   S    
C28   H1    S    
C18   O25   A    
C17   C25   S    
C32   C33   T    
Cr3   O21   S    
C4    O15   A    
Cr2   O19   S    
C11   C13   A    
H6    N3    S    
C29   H11   S    
Cr6   O9    S    
C26   O12   A    
C16   O16   A    
C18   C33   S    
C4    O14   A    
C4    C31   S    
C10   C11   A    
Cr5   O11   S    
Cr4   O6    S    
H15   O20   S    
C10   C17   A    
C19   C30   S    
C22   O8    A    
C12   H12   S    
C8    N4    S    
Cr5   O8    S    
