data_mof_unit_39825.cif
_audit_creation_date              2012-12-11T16:08:56-0500
_audit_creation_method            fapswitch 2.2
_symmetry_space_group_name_H-M    P1
_symmetry_Int_Tables_number       1
_space_group_crystal_system       triclinic
_cell_length_a                    19.812378
_cell_length_b                    19.922279
_cell_length_c                    19.762159
_cell_angle_alpha                 110.406244
_cell_angle_beta                  106.898846
_cell_angle_gamma                 111.025555
_cell_volume                      6004.0619908

loop_
_atom_site_label
_atom_site_type_symbol
_atom_type_description
_atom_site_fract_x
_atom_site_fract_y
_atom_site_fract_z
_atom_type_partial_charge
C1    C     C_R   0.658250 0.932393 0.926036 -0.062527
C2    C     C_3   0.567615 0.547137 0.013508 -0.079212
C3    C     C_3   0.160412 0.302719 0.022811 -0.898670
C4    C     C_3   0.871348 0.784420 0.823826 0.288275
C5    C     C_3   0.822997 0.713647 0.834673 -0.889932
C6    C     C_1   0.409391 0.760356 0.062849 0.100317
C7    C     C_1   0.646913 0.264905 0.994455 0.086725
C8    C     C_1   0.653706 0.233705 0.304750 0.083293
C9    C     C_1   0.378029 0.733597 0.728256 0.075367
C10   C     C_3   0.630060 0.756755 0.954689 0.221464
C11   C     C_3   0.688150 0.762239 0.917909 -0.852244
C12   C     C_3   0.457579 0.311848 0.137178 0.226999
C13   C     C_3   0.660597 0.641222 0.142974 -0.447653
C14   C     C_3   0.407250 0.309338 0.182555 -0.864888
C15   C     C_3   0.519513 0.490259 0.039195 -0.451686
C16   C     C_1   0.536347 0.719686 0.041306 -0.029812
C17   C     C_1   0.584789 0.365249 0.080864 -0.009560
C18   C     C_3   0.530497 0.566453 0.108602 0.621577
C19   C     C_3   0.649092 0.563765 0.073063 0.619348
C20   C     C_3   0.577398 0.622939 0.082160 -0.014180
C21   C     C_3   0.602412 0.507524 0.099787 -0.014239
C22   C     C_1   0.556550 0.678469 0.063401 0.039096
C23   C     C_R   0.333456 0.069061 0.025354 -0.111697
C24   C     C_1   0.601155 0.434010 0.096224 0.034097
C25   C     C_3   0.468195 0.003428 0.515443 -0.448059
C26   C     C_3   0.324228 0.992904 0.433503 -0.445130
C27   C     C_R   0.492494 0.068461 0.225314 -0.100452
C28   C     C_R   0.457349 0.930167 0.763626 -0.118518
C29   C     C_3   0.398787 0.932609 0.428860 -0.077693
C30   C     C_3   0.394218 0.063981 0.521463 -0.074794
C31   C     C_1   0.417305 0.998531 0.283930 -0.033349
C32   C     C_1   0.439950 0.999925 0.682737 -0.047757
C33   C     C_3   0.459089 0.067603 0.493127 0.610640
C34   C     C_R   0.447197 0.999297 0.227123 0.073421
C35   C     C_3   0.333723 0.928575 0.456954 0.607029
C36   C     C_3   0.390889 0.997020 0.406207 -0.018364
C37   C     C_3   0.402133 0.999325 0.543518 -0.011571
C38   C     C_1   0.399148 0.997720 0.336206 0.060833
C39   C     C_1   0.418011 0.999733 0.619722 0.055526
C40   C     C_3   0.993465 0.459372 0.482037 0.410144
C41   C     C_3   0.054325 0.397635 0.567633 0.420533
C42   C     C_3   0.002168 0.478803 0.567314 -0.290732
C43   C     C_3   0.044477 0.377266 0.480930 -0.286815
C44   C     C_1   0.212277 0.636782 0.716544 -0.048946
C45   C     C_R   0.472262 0.999971 0.756720 0.083246
C46   C     C_1   0.820356 0.266678 0.315823 -0.028713
C47   C     C_3   0.079159 0.470114 0.507265 0.413202
C48   C     C_3   0.967432 0.386106 0.541296 0.415856
C49   C     C_3   0.089345 0.490783 0.593974 -0.164176
C50   C     C_3   0.957624 0.365897 0.454883 -0.179658
C51   C     C_R   0.737078 0.196660 0.165125 -0.139633
C52   C     C_R   0.272281 0.769930 0.843271 -0.165554
C53   C     C_1   0.159236 0.567355 0.664498 0.157374
C54   C     C_1   0.882965 0.307285 0.378374 0.161840
C55   C     C_3   0.004371 0.976661 0.954279 -0.149806
C56   C     C_R   0.745497 0.223042 0.242821 0.025770
C57   C     C_3   0.953583 0.027622 0.850575 -0.154869
C58   C     C_3   0.998304 0.055293 0.978585 -0.152541
C59   C     C_3   0.960654 0.948394 0.826226 -0.159243
C60   C     C_1   0.790132 0.003971 0.926987 -0.050592
C61   C     C_1   0.182962 0.998112 0.937324 -0.050564
C62   C     C_3   0.920300 0.926056 0.877376 0.544292
C63   C     C_3   0.038621 0.078111 0.927933 0.542781
C64   C     C_3   0.913191 0.004632 0.901645 -0.087535
C65   C     C_3   0.045411 0.999377 0.903632 -0.079359
C66   C     C_1   0.843520 0.004825 0.910472 0.081725
C67   C     C_R   0.270706 0.722322 0.772663 0.042767
C68   C     C_1   0.120318 0.998243 0.916367 0.078221
C69   C     C_R   0.461714 0.794660 0.031821 0.007813
C70   C     C_R   0.576393 0.231691 0.006207 -0.012215
C71   C     C_R   0.668592 0.200918 0.236891 0.057867
C72   C     C_R   0.342622 0.768421 0.774096 0.034539
C73   C     C_R   0.534836 0.797704 0.964113 0.530300
C74   C     C_R   0.504787 0.231030 0.074671 0.493903
C75   C     C_R   0.423918 0.930685 0.156592 -0.124934
C76   C     C_R   0.527014 0.069816 0.833434 -0.135066
C77   C     C_R   0.728426 0.070839 0.998359 -0.133877
C78   C     C_R   0.512659 0.767991 0.013325 -0.153275
C79   C     C_R   0.263656 0.929233 0.956333 -0.125179
C80   C     C_R   0.730693 0.002376 0.953223 0.044985
C81   C     C_R   0.256852 0.998698 0.970012 0.067469
C82   C     C_1   0.636357 0.600779 0.253322 0.103150
C83   C     C_1   0.542789 0.526642 0.927981 0.093827
C84   C     C_3   0.754389 0.626647 0.048190 0.267865
C85   C     C_3   0.806031 0.609949 0.008232 -0.865512
C86   C     C_3   0.423983 0.503148 0.132000 0.257255
C87   C     C_3   0.367016 0.517161 0.165212 -0.846279
C88   C     C_1   0.400401 0.859896 0.377517 0.108529
C89   C     C_R   0.553641 0.279389 0.052552 -0.134361
C90   C     C_1   0.393033 0.136348 0.573962 0.108187
C91   C     C_3   0.205975 0.810889 0.363528 0.277507
C92   C     C_3   0.147902 0.724227 0.344339 -0.887496
C93   C     C_3   0.587577 0.184605 0.586652 0.261807
C94   C     C_3   0.646943 0.270654 0.605555 -0.853632
C95   C     C_1   0.981161 0.534934 0.615723 0.084936
C96   C     C_1   0.063681 0.320119 0.431276 0.092593
C97   C     C_3   0.998250 0.572896 0.470831 0.292420
C98   C     C_3   0.981867 0.598881 0.406810 -0.897945
C99   C     C_3   0.051584 0.285898 0.580812 0.284489
C100  C     C_3   0.612022 0.582963 0.168685 -0.081013
C101  C     C_3   0.070856 0.261120 0.645443 -0.888618
C102  C     C_3   0.924509 0.368581 0.634293 0.292436
C103  C     C_3   0.874892 0.299576 0.646469 -0.912700
C104  C     C_3   0.120798 0.487760 0.413486 0.287952
C105  C     C_3   0.171640 0.556713 0.401978 -0.895728
C106  C     C_1   0.018859 0.113596 0.061841 0.113880
C107  C     C_1   0.943255 0.891791 0.743880 0.089291
C108  C     C_1   0.031591 0.948566 0.010975 0.115466
C109  C     C_1   0.922717 0.053812 0.793576 0.086716
C110  C     C_3   0.084000 0.216362 0.964329 0.288654
H1    H     H_    0.634374 0.871224 0.875695 0.167560
H2    H     H_    0.550322 0.133771 0.848318 0.114785
H3    H     H_    0.768944 0.134533 0.016296 0.104779
H4    H     H_    0.214947 0.864711 0.916360 0.106141
H5    H     H_    0.717157 0.703707 0.184961 0.160707
H6    H     H_    0.462467 0.428147 0.996567 0.158815
H7    H     H_    0.796376 0.682130 0.110984 0.096930
H8    H     H_    0.713313 0.640673 0.010878 0.073297
H9    H     H_    0.765558 0.555106 0.945048 0.258732
H10   H     H_    0.841926 0.665153 0.004995 0.202995
H11   H     H_    0.849207 0.597446 0.044736 0.257734
H12   H     H_    0.348517 0.132805 0.047624 0.143201
H13   H     H_    0.464879 0.492155 0.173378 0.078574
H14   H     H_    0.385559 0.446592 0.069685 0.093769
H15   H     H_    0.323671 0.526053 0.124064 0.258751
H16   H     H_    0.331238 0.462195 0.168802 0.204927
H17   H     H_    0.403481 0.573329 0.227578 0.260703
H18   H     H_    0.228139 0.803568 0.317113 0.083474
H19   H     H_    0.171072 0.843476 0.358368 0.098091
H20   H     H_    0.124716 0.728984 0.389662 0.260515
H21   H     H_    0.094891 0.689456 0.281933 0.212093
H22   H     H_    0.180654 0.689394 0.346710 0.259522
H23   H     H_    0.526413 0.007289 0.549100 0.162018
H24   H     H_    0.621371 0.150895 0.591244 0.100135
H25   H     H_    0.565899 0.192821 0.633440 0.087038
H26   H     H_    0.615556 0.306817 0.603745 0.259455
H27   H     H_    0.700301 0.304727 0.667620 0.204759
H28   H     H_    0.669419 0.264771 0.559635 0.263090
H29   H     H_    0.066059 0.603373 0.507499 0.118938
H30   H     H_    0.973815 0.596164 0.511831 0.116006
H31   H     H_    0.914770 0.571691 0.370410 0.270346
H32   H     H_    0.012878 0.667941 0.437514 0.213268
H33   H     H_    0.005932 0.576752 0.364892 0.256111
H34   H     H_    0.266139 0.988847 0.399224 0.161543
H35   H     H_    0.074977 0.262606 0.538658 0.115131
H36   H     H_    0.983525 0.254803 0.545632 0.119700
H37   H     H_    0.047965 0.283441 0.688535 0.253798
H38   H     H_    0.040487 0.192140 0.615442 0.214134
H39   H     H_    0.138270 0.288962 0.680423 0.267667
H40   H     H_    0.908229 0.417497 0.652846 0.113337
H41   H     H_    0.990823 0.395736 0.675345 0.116940
H42   H     H_    0.890846 0.250218 0.629637 0.258123
H43   H     H_    0.888763 0.325455 0.711727 0.211822
H44   H     H_    0.808161 0.271609 0.607397 0.267051
H45   H     H_    0.502725 0.129485 0.261327 0.128657
H46   H     H_    0.054740 0.462641 0.373561 0.118343
H47   H     H_    0.134965 0.437404 0.393149 0.115396
H48   H     H_    0.238115 0.581010 0.438128 0.270359
H49   H     H_    0.155116 0.532058 0.336127 0.210479
H50   H     H_    0.159506 0.608536 0.422971 0.260940
H51   H     H_    0.039631 0.210784 0.989056 0.077215
H52   H     H_    0.056415 0.210960 0.903687 0.107778
H53   H     H_    0.205514 0.311463 0.999192 0.258719
H54   H     H_    0.143560 0.351198 0.028761 0.213021
H55   H     H_    0.189183 0.310199 0.084302 0.256412
H56   H     H_    0.416948 0.866157 0.714579 0.118600
H57   H     H_    0.937610 0.804968 0.855938 0.074850
H58   H     H_    0.851046 0.759907 0.757272 0.113576
H59   H     H_    0.756194 0.689641 0.801422 0.263920
H60   H     H_    0.834503 0.662002 0.809776 0.213736
H61   H     H_    0.842442 0.736271 0.900859 0.251885
H62   H     H_    0.597057 0.691431 0.940696 0.125151
H63   H     H_    0.668113 0.800714 0.022236 0.091526
H64   H     H_    0.727396 0.827742 0.935131 0.262376
H65   H     H_    0.728580 0.740170 0.941657 0.207086
H66   H     H_    0.652565 0.722561 0.849993 0.266962
H67   H     H_    0.785396 0.205430 0.148203 0.115107
H68   H     H_    0.416805 0.292318 0.073018 0.074177
H69   H     H_    0.508453 0.377428 0.169059 0.118384
H70   H     H_    0.446273 0.329848 0.247249 0.265312
H71   H     H_    0.383234 0.351765 0.181888 0.206707
H72   H     H_    0.354515 0.245133 0.152598 0.253321
H73   H     H_    0.232096 0.747727 0.867359 0.110761
H74   H     H_    0.373070 0.869347 0.131626 0.111831
N1    N     N_R   0.613530 0.956740 0.956480 -0.051044
N2    N     N_R   0.386500 0.842990 0.843230 -0.065131
N3    N     N_R   0.499770 0.842990 0.956480 -0.097730
N4    N     N_R   0.500230 0.157010 0.043520 -0.094277
N5    N     N_R   0.456470 0.956710 0.113500 -0.049301
N6    N     N_R   0.543530 0.043290 0.886500 -0.043512
N7    N     N_R   0.656800 0.043290 0.999750 -0.048101
N8    N     N_R   0.343200 0.956710 0.000250 -0.045925
N9    N     N_1   0.655475 0.614739 0.320061 -0.078242
N10   N     N_1   0.523268 0.510471 0.860598 -0.076364
N11   N     N_1   0.401612 0.802586 0.336992 -0.077605
N12   N     N_R   0.386470 0.043260 0.043520 -0.040931
N13   N     N_1   0.392177 0.193474 0.615428 -0.079586
N14   N     N_1   0.964712 0.579206 0.653915 -0.102685
N15   N     N_1   0.078757 0.275021 0.392056 -0.090177
N16   N     N_1   0.035018 0.159513 0.127358 -0.089726
N17   N     N_1   0.929591 0.847203 0.678974 -0.085954
N18   N     N_1   0.052992 0.926401 0.055532 -0.094437
N19   N     N_1   0.898338 0.074422 0.748612 -0.090872
N20   N     N_1   0.367421 0.731070 0.087100 -0.085841
N21   N     N_1   0.703617 0.291601 0.985124 -0.088869
N22   N     N_1   0.643488 0.261598 0.360317 -0.065381
N23   N     N_R   0.499750 0.043260 0.156770 -0.052400
N24   N     N_1   0.406518 0.705593 0.691508 -0.060116
N25   N     N_R   0.500250 0.956740 0.843230 -0.049193
N26   N     N_R   0.656790 0.157020 0.113500 -0.054267
N27   N     N_R   0.343210 0.842980 0.886500 -0.049003
N28   N     N_R   0.456490 0.842980 0.999750 -0.094548
N29   N     N_R   0.543510 0.157020 0.000250 -0.091268
N30   N     N_R   0.613500 0.157010 0.156770 -0.062232
Ni1   Ni    Ni4+2 0.500010 0.900760 0.900750 0.237098
Ni2   Ni    Ni4+2 0.499990 0.099240 0.099250 0.256993
Ni3   Ni    Ni4+2 0.599260 0.099260 0.000000 0.209856
Ni4   Ni    Ni4+2 0.400740 0.900740 0.000000 0.200174
O1    O     O_3   0.709590 0.556354 0.052521 -0.621646
O2    O     O_3   0.854727 0.848758 0.854217 -0.626844
O3    O     O_3   0.572992 0.776426 0.918184 -0.649361
O4    O     O_3   0.490154 0.259778 0.140618 -0.633918
O5    O     O_3   0.469376 0.573576 0.128171 -0.618270
O6    O     O_3   0.271273 0.855190 0.444014 -0.625315
O7    O     O_3   0.521913 0.141112 0.506521 -0.623726
O8    O     O_3   0.957383 0.484987 0.430805 -0.622801
O9    O     O_3   0.091383 0.373669 0.619964 -0.617920
O10   O     O_3   0.904071 0.335055 0.550616 -0.620626
O11   O     O_3   0.142373 0.520658 0.497385 -0.620208
O12   O     O_3   0.107010 0.155864 0.956439 -0.624908

loop_
_geom_bond_atom_site_label_1
_geom_bond_atom_site_label_2
_ccdc_geom_bond_type
C40   C47   S    
C12   H68   S    
C41   O9    S    
C101  H38   S    
C93   C94   S    
C98   H33   S    
C6    C69   S    
C32   C45   S    
C15   C18   S    
C51   N26   A    
C9    C72   S    
N8    Ni4   S    
C104  H47   S    
C30   C90   S    
N7    Ni3   S    
C7    C70   S    
C63   C65   S    
C97   C98   S    
C110  H52   S    
C47   C49   S    
C90   N13   T    
C50   C54   S    
C29   C36   S    
C11   H66   S    
N25   Ni1   S    
N26   Ni3   S    
C45   C76   A    
N8    N12   A    
C74   C89   A    
C92   H22   S    
N6    N25   A    
N5    N23   A    
C107  N17   T    
C33   O7    S    
N12   Ni2   S    
N30   Ni2   S    
C57   C59   S    
C105  H50   S    
C3    C110  S    
C10   H62   S    
C55   C62   S    
C33   C36   S    
C51   C56   A    
C32   C39   T    
C41   C49   S    
C85   H9    S    
C82   N9    T    
C108  N18   T    
C110  O12   S    
C10   O3    S    
C25   C37   S    
C44   C53   T    
C103  H43   S    
C57   C109  S    
C84   H7    S    
C29   C88   S    
C23   N12   A    
C52   N27   A    
C94   H26   S    
C5    H60   S    
C52   H73   S    
C85   H11   S    
C23   H12   S    
C25   H23   S    
C97   H30   S    
C27   N23   A    
C30   C33   S    
C28   H56   S    
C102  H41   S    
C65   C68   S    
C10   H63   S    
C48   C50   S    
C97   O8    S    
C99   H35   S    
C60   C66   T    
N2    N27   A    
C98   H32   S    
C58   C64   S    
C76   H2    S    
C41   C43   S    
C88   N11   T    
C69   C78   A    
C18   C100  S    
C77   H3    S    
C75   H74   S    
C87   H17   S    
C104  C105  S    
C73   N3    A    
C110  H51   S    
N1    N7    A    
C96   N15   T    
C74   N4    A    
C27   C34   A    
C25   C29   S    
N3    Ni1   S    
C28   C45   A    
C17   C24   T    
C91   H18   S    
C13   C19   S    
C2    C20   S    
C42   C95   S    
C77   N7    A    
C109  N19   T    
C92   H21   S    
C17   C89   S    
C84   C85   S    
C93   H24   S    
C91   C92   S    
C79   C81   A    
C21   C100  S    
N29   Ni3   S    
C86   C87   S    
C59   C62   S    
C4    O2    S    
C28   N25   A    
N26   N30   A    
C59   C107  S    
C99   O9    S    
C4    H58   S    
C30   C37   S    
C58   C106  S    
C62   O2    S    
C85   H10   S    
C92   H20   S    
C6    N20   T    
C19   C21   S    
C18   O5    S    
C84   O1    S    
C93   O7    S    
C103  H44   S    
C40   C42   S    
C105  H48   S    
C73   C78   A    
C56   C71   A    
C72   N2    A    
N2    Ni1   S    
C46   C54   T    
C25   C33   S    
C102  O10   S    
C43   C96   S    
C5    H61   S    
C31   C34   S    
C69   N28   A    
C42   C48   S    
C104  H46   S    
C8    N22   T    
C2    C15   S    
C12   O4    S    
C14   H72   S    
C52   C67   A    
C3    H54   S    
C102  H40   S    
C63   O12   S    
C91   H19   S    
C103  H42   S    
C26   C36   S    
C99   C101  S    
C99   H36   S    
C20   C22   S    
C26   C30   S    
C79   N8    A    
N4    Ni2   S    
C98   H31   S    
C86   H14   S    
C94   H28   S    
C16   C78   S    
C55   C58   S    
C70   C89   A    
C19   O1    S    
C86   O5    S    
C21   C24   S    
N6    Ni3   S    
C87   H15   S    
C14   H71   S    
N5    Ni4   S    
C3    H55   S    
C57   C64   S    
C106  N16   T    
C77   C80   A    
C58   C63   S    
C94   H27   S    
C48   O10   S    
C74   O4    S    
C60   C80   S    
C11   H64   S    
C16   C22   T    
C23   C81   A    
C13   C20   S    
C35   C37   S    
C2    C19   S    
C55   C65   S    
C70   N29   A    
C82   C100  S    
C57   C63   S    
C12   C14   S    
C4    C5    S    
C93   H25   S    
C9    N24   T    
N4    N29   A    
C4    H57   S    
C43   C50   S    
C47   O11   S    
C1    N1    A    
C13   H5    S    
C71   N30   A    
C29   C35   S    
C34   C75   A    
C11   H65   S    
C31   C38   T    
C73   O3    S    
C55   C108  S    
C3    H53   S    
C83   N10   T    
C36   C38   S    
C62   C64   S    
C37   C39   S    
C61   C81   S    
C35   O6    S    
C59   C65   S    
C2    C83   S    
C26   H34   S    
C61   C68   T    
C101  H37   S    
C104  O11   S    
C105  H49   S    
N28   Ni4   S    
C13   C100  S    
C95   N14   T    
C40   C50   S    
C101  H39   S    
N23   Ni2   S    
C41   C48   S    
C18   C20   S    
N27   Ni4   S    
C40   O8    S    
C102  C103  S    
C14   H70   S    
C75   N5    A    
C49   C53   S    
C76   N6    A    
C10   C11   S    
C42   C49   S    
C7    N21   T    
N1    Ni1   S    
C26   C35   S    
C15   C21   S    
C12   H69   S    
N3    N28   A    
C84   H8    S    
C79   H4    S    
C46   C56   S    
C86   H13   S    
C1    C80   A    
C5    H59   S    
C15   H6    S    
C44   C67   S    
C67   C72   A    
C91   O6    S    
C51   H67   S    
C43   C47   S    
C97   H29   S    
C87   H16   S    
C1    H1    S    
C64   C66   S    
C8    C71   S    
C27   H45   S    
