data_mof_unit_10255.cif
_audit_creation_date              2012-12-10T18:46:21-0500
_audit_creation_method            fapswitch 2.2
_symmetry_space_group_name_H-M    P1
_symmetry_Int_Tables_number       1
_space_group_crystal_system       triclinic
_cell_length_a                    9.842608
_cell_length_b                    10.669152
_cell_length_c                    13.123966
_cell_angle_alpha                 90.145941
_cell_angle_beta                  69.995963
_cell_angle_gamma                 89.823546
_cell_volume                      1295.01445978

loop_
_atom_site_label
_atom_site_type_symbol
_atom_type_description
_atom_site_fract_x
_atom_site_fract_y
_atom_site_fract_z
_atom_type_partial_charge
C1    C     C_R   0.501028 0.739984 0.496905 0.883553
C2    C     C_R   0.431740 0.464341 0.984162 0.087002
C3    C     C_R   0.463329 0.434412 0.874253 0.046603
C4    C     C_R   0.543711 0.453194 0.028205 0.049111
C5    C     C_R   0.676482 0.392494 0.969040 0.114092
C6    C     C_R   0.696266 0.344947 0.865124 0.105509
C7    C     C_R   0.589861 0.365006 0.819376 -0.228760
C8    C     C_R   0.528045 0.505179 0.128770 -0.243689
C9    C     C_R   0.759342 0.421965 0.122007 -0.218501
C10   C     C_R   0.368282 0.476903 0.821710 -0.102532
C11   C     C_R   0.573394 0.935178 0.553446 -0.223213
C12   C     C_R   0.420091 0.491931 0.704082 0.860760
C13   C     C_R   0.574144 0.063498 0.554839 -0.183410
C14   C     C_R   0.502259 0.128147 0.496472 -0.058449
C15   C     C_R   0.433090 0.067163 0.434042 -0.166102
C16   C     C_R   0.433265 0.937884 0.430333 0.189944
C17   C     C_R   0.501989 0.872708 0.492888 -0.038075
C18   C     C_R   0.960965 0.427180 0.428285 -0.068973
C19   C     C_R   0.104818 0.427158 0.428336 -0.050137
C20   C     C_R   0.038959 0.572639 0.571866 -0.057129
C21   C     C_R   0.895098 0.572629 0.571836 -0.037616
C22   C     C_R   0.500357 0.260160 0.499621 0.872899
C23   C     C_R   0.580145 0.499575 0.295562 0.860848
C24   C     C_R   0.784558 0.379915 0.016411 -0.165682
C25   C     C_R   0.628751 0.481790 0.178868 -0.054444
C26   C     C_R   0.229224 0.519395 0.883000 -0.173664
C27   C     C_R   0.188582 0.528508 0.994994 -0.150333
C28   C     C_R   0.289516 0.504671 0.045396 -0.183499
H1    H     H_    0.838737 0.403255 0.160406 0.152405
H2    H     H_    0.627694 0.112194 0.603016 0.167415
H3    H     H_    0.380957 0.120674 0.387465 0.145895
H4    H     H_    0.932788 0.369048 0.370905 0.123920
H5    H     H_    0.185580 0.368854 0.371009 0.126320
H6    H     H_    0.067115 0.630688 0.629300 0.127669
H7    H     H_    0.814301 0.630801 0.629254 0.132927
H8    H     H_    0.886485 0.333962 0.974432 0.178135
H9    H     H_    0.434923 0.561805 0.171829 0.149959
H10   H     H_    0.153400 0.548727 0.844188 0.162499
H11   H     H_    0.252451 0.515301 0.132438 0.128269
H12   H     H_    0.080534 0.559573 0.042463 0.148293
H13   H     H_    0.606981 0.324286 0.740402 0.188628
H14   H     H_    0.626269 0.884613 0.601106 0.162564
N1    N     N_R   0.142790 0.500030 0.500030 -0.076793
N2    N     N_R   0.857180 0.499940 0.500010 -0.079363
O1    O     O_R   0.385370 0.683250 0.500010 -0.614617
O2    O     O_R   0.614700 0.683220 0.500010 -0.620667
O3    O     O_R   0.328400 0.499990 0.653620 -0.602706
O4    O     O_R   0.557730 0.499960 0.653620 -0.616977
O5    O     O_R   0.385300 0.316780 0.499990 -0.605684
O6    O     O_R   0.614630 0.316750 0.499990 -0.622387
O7    O     O_R   0.442270 0.500040 0.346380 -0.624334
O8    O     O_R   0.671600 0.500010 0.346380 -0.617184
Zn1   Zn    Zn3+2 0.346870 0.500020 0.500000 0.955635
Zn2   Zn    Zn3+2 0.653130 0.499980 0.500000 0.947231
C29   C     C_3   0.364638 0.873171 0.357635 -0.878761
H15   H     H_    0.441456 0.804175 0.304420 0.230773
H16   H     H_    0.264094 0.824995 0.407254 0.260699
H17   H     H_    0.335034 0.940843 0.304405 0.228963
I1    I     I_    0.885569 0.247577 0.768171 -0.424841

loop_
_geom_bond_atom_site_label_1
_geom_bond_atom_site_label_2
_ccdc_geom_bond_type
C2    C4    A    
C29   H15   S    
C9    C24   A    
C15   H3    S    
C6    C7    A    
C21   H7    S    
C18   N2    A    
C21   N2    A    
C4    C8    A    
C13   H2    S    
C1    C17   S    
C9    H1    S    
C27   H12   S    
C12   O4    A    
C20   H6    S    
C10   C26   A    
C23   C25   S    
C2    C3    A    
C23   O8    A    
C16   C29   S    
O1    Zn1   S    
C1    O1    A    
C3    C10   A    
O6    Zn2   S    
C13   C14   A    
O4    Zn2   S    
C8    C25   A    
C11   C13   A    
O2    Zn2   S    
C26   C27   A    
C24   H8    S    
C5    C24   A    
C10   C12   S    
C12   O3    A    
O5    Zn1   S    
O3    Zn1   S    
C19   N1    A    
C3    C7    A    
C7    H13   S    
C5    C6    A    
C1    O2    A    
C18   H4    S    
C8    H9    S    
C9    C25   A    
C15   C16   A    
N2    Zn2   S    
C22   O6    A    
C4    C5    A    
C20   N1    A    
C20   C21   A    
C11   H14   S    
C14   C22   S    
C18   C19   A    
C19   H5    S    
C29   H17   S    
C22   O5    A    
C27   C28   A    
C14   C15   A    
C11   C17   A    
C2    C28   A    
C28   H11   S    
C29   H16   S    
C23   O7    A    
C6    I1    S    
N1    Zn1   S    
C26   H10   S    
O8    Zn2   S    
C16   C17   A    
O7    Zn1   S    
