data_mof_unit_33523.cif
_audit_creation_date              2012-12-11T21:06:11-0500
_audit_creation_method            fapswitch 2.2
_symmetry_space_group_name_H-M    P1
_symmetry_Int_Tables_number       1
_space_group_crystal_system       triclinic
_cell_length_a                    36.219542
_cell_length_b                    39.75988
_cell_length_c                    8.785961
_cell_angle_alpha                 90.188778
_cell_angle_beta                  93.615781
_cell_angle_gamma                 90.126432
_cell_volume                      12627.2358531

loop_
_atom_site_label
_atom_site_type_symbol
_atom_type_description
_atom_site_fract_x
_atom_site_fract_y
_atom_site_fract_z
_atom_type_partial_charge
Ba1   Ba    Ba6+2 0.000060 0.523150 0.844950 1.610928
Ba2   Ba    Ba6+2 0.000060 0.476850 0.344950 1.639212
Ba3   Ba    Ba6+2 0.500060 0.023150 0.844950 1.614898
Ba4   Ba    Ba6+2 0.500060 0.976850 0.344950 1.612624
C1    C     C_3   0.014790 0.688385 0.520494 -0.340735
C2    C     C_2   0.909089 0.634370 0.299016 -0.069262
C3    C     C_R   0.638703 0.816196 0.754563 0.571584
C4    C     C_2   0.101799 0.627233 0.427171 -0.099452
C5    C     C_2   0.105145 0.378330 0.918676 -0.120258
C6    C     C_2   0.603557 0.124824 0.428702 -0.114649
C7    C     C_2   0.601259 0.872605 0.913494 -0.095670
C8    C     C_3   0.064473 0.611123 0.436996 -0.067023
C9    C     C_3   0.066576 0.391672 0.932694 -0.059704
C10   C     C_3   0.565517 0.110083 0.438849 -0.059831
C11   C     C_3   0.564932 0.890059 0.930757 -0.050840
C12   C     C_1   0.079865 0.575184 0.215253 0.021333
C13   C     C_2   0.410848 0.864655 0.802955 -0.088024
C14   C     C_1   0.076951 0.423958 0.701241 0.066471
C15   C     C_1   0.578999 0.075317 0.213287 0.021933
C16   C     C_1   0.578764 0.924524 0.706710 0.053222
C17   C     C_2   0.105712 0.597802 0.181934 -0.166636
C18   C     C_2   0.098713 0.398905 0.657549 -0.109479
C19   C     C_2   0.602522 0.099453 0.174348 -0.166412
C20   C     C_2   0.603793 0.901774 0.668169 -0.141513
C21   C     C_2   0.119393 0.624567 0.295884 0.213957
C22   C     C_2   0.117923 0.376016 0.776463 0.177372
C23   C     C_2   0.619214 0.124457 0.291718 0.189116
C24   C     C_2   0.416231 0.137037 0.318899 -0.059555
C25   C     C_2   0.617626 0.875004 0.779478 0.206226
C26   C     C_R   0.772457 0.267573 0.228261 0.016407
C27   C     C_R   0.746192 0.718535 0.608130 0.020225
C28   C     C_R   0.249896 0.780296 0.130282 0.021031
C29   C     C_R   0.269841 0.232015 0.715581 0.017284
C30   C     C_R   0.787574 0.266820 0.083304 0.052107
C31   C     C_R   0.781890 0.729253 0.569711 0.050564
C32   C     C_R   0.284536 0.769519 0.080711 0.049777
C33   C     C_R   0.284547 0.231778 0.569743 0.052114
C34   C     C_R   0.775860 0.241904 0.974381 0.020308
C35   C     C_3   0.945508 0.388946 0.786078 -0.126957
C36   C     C_R   0.790426 0.764178 0.564139 0.019578
C37   C     C_R   0.292171 0.734584 0.066540 0.019348
C38   C     C_R   0.272281 0.255725 0.458017 0.020250
C39   C     C_3   0.872238 0.514321 0.129407 0.426189
C40   C     C_3   0.871473 0.484826 0.622389 0.437255
C41   C     C_3   0.370182 0.013687 0.122260 0.428842
C42   C     C_3   0.374002 0.984044 0.629739 0.436294
C43   C     C_R   0.787902 0.290280 0.339002 -0.107863
C44   C     C_R   0.738659 0.683544 0.605632 -0.100272
C45   C     C_R   0.242783 0.815293 0.133533 -0.101128
C46   C     C_3   0.940809 0.610875 0.272344 -0.082660
C47   C     C_R   0.285491 0.209966 0.827825 -0.107201
C48   C     C_R   0.812354 0.270388 0.787637 -0.070538
C49   C     C_R   0.853537 0.749332 0.502307 -0.061446
C50   C     C_R   0.354523 0.749263 0.994117 -0.060338
C51   C     C_R   0.309274 0.226600 0.274306 -0.068688
C52   C     C_R   0.268768 0.675374 0.069898 -0.101061
C53   C     C_R   0.239251 0.309843 0.402560 -0.102753
C54   C     C_R   0.744319 0.186628 0.926891 -0.103608
C55   C     C_R   0.768509 0.823660 0.577020 -0.099753
C56   C     C_R   0.241539 0.651998 0.102657 -0.064518
C57   C     C_3   0.442177 0.888603 0.776046 -0.075722
C58   C     C_R   0.214301 0.334670 0.443028 -0.055441
C59   C     C_R   0.719518 0.161879 0.969943 -0.058735
C60   C     C_R   0.741374 0.847162 0.608116 -0.062784
C61   C     C_R   0.788553 0.244470 0.825996 -0.106598
C62   C     C_R   0.826896 0.773370 0.531744 -0.100221
C63   C     C_R   0.327842 0.725260 0.024607 -0.102214
C64   C     C_R   0.284965 0.252301 0.309817 -0.106643
C65   C     C_3   0.829628 0.519177 0.113671 -0.067264
C66   C     C_3   0.829505 0.478603 0.583325 -0.054071
C67   C     C_3   0.328313 0.019191 0.080102 -0.052237
C68   C     C_3   0.444456 0.110596 0.283380 -0.098119
C69   C     C_3   0.331475 0.978346 0.618211 -0.054585
C70   C     C_3   0.134796 0.503394 0.001118 0.318289
C71   C     C_3   0.122312 0.511954 0.522852 0.325901
C72   C     C_3   0.632686 0.001628 0.996778 0.316861
C73   C     C_3   0.620893 0.012514 0.517304 0.332318
C74   C     C_3   0.169049 0.525490 0.041392 -0.220247
C75   C     C_3   0.163481 0.511617 0.485130 -0.208070
C76   C     C_3   0.664915 0.027139 0.010944 -0.214923
C77   C     C_3   0.660414 0.010559 0.458920 -0.190785
C78   C     C_3   0.999887 0.655544 0.582063 0.461258
C79   C     C_1   0.919228 0.424471 0.981856 0.088378
C80   C     C_3   0.016350 0.342133 0.130898 0.527119
C81   C     C_3   0.500626 0.155375 0.582531 0.442462
C82   C     C_3   0.507941 0.844442 0.117396 0.493498
C83   C     C_R   0.857584 0.336519 0.122938 0.583978
C84   C     C_R   0.828146 0.646211 0.501282 0.593975
C85   C     C_R   0.330935 0.852527 0.013845 0.595492
C86   C     C_R   0.355105 0.162787 0.615062 0.592953
C87   C     C_3   0.145753 0.466492 0.982557 -0.298397
C88   C     C_3   0.111259 0.544445 0.598266 -0.305634
C89   C     C_3   0.646595 0.965252 0.996773 -0.316656
C90   C     C_1   0.920314 0.576150 0.484815 0.103923
C91   C     C_3   0.613466 0.044696 0.602568 -0.310945
C92   C     C_3   0.196833 0.527064 0.917763 -0.454516
C93   C     C_3   0.178303 0.545027 0.427841 -0.456167
C94   C     C_3   0.694990 0.021571 0.899215 -0.469195
C95   C     C_3   0.677977 0.044293 0.419932 -0.486014
C96   C     C_3   0.054951 0.698165 0.105466 -0.442141
C97   C     C_3   0.051105 0.299151 0.712697 -0.484362
C98   C     C_3   0.568053 0.186483 0.100448 -0.468826
C99   C     C_3   0.518633 0.792718 0.639751 -0.363636
C100  C     C_3   0.023192 0.561982 0.355128 -0.248300
C101  C     C_1   0.421223 0.923425 0.987111 0.115121
C102  C     C_3   0.022852 0.438822 0.853911 -0.229595
C103  C     C_3   0.523320 0.061471 0.356705 -0.246146
C104  C     C_3   0.523329 0.938503 0.853724 -0.235451
C105  C     C_3   0.890583 0.543523 0.053811 -0.224219
C106  C     C_3   0.893225 0.455888 0.557560 -0.264387
C107  C     C_3   0.391656 0.043105 0.060180 -0.243049
C108  C     C_3   0.392578 0.955138 0.551540 -0.250552
C109  C     C_3   0.028486 0.305400 0.132730 -0.311954
C110  C     C_1   0.418576 0.075169 0.480280 0.084874
C111  C     C_2   0.896147 0.400304 0.020045 -0.073062
C112  C     C_2   0.899926 0.601643 0.531937 -0.102147
C113  C     C_2   0.401935 0.897435 0.036523 -0.105330
C114  C     C_2   0.394854 0.099004 0.516281 -0.089139
C115  C     C_2   0.893850 0.367011 0.935116 0.194579
C116  C     C_2   0.890961 0.631448 0.429358 0.231527
C117  C     C_2   0.393019 0.867401 0.934114 0.201082
C118  C     C_2   0.392091 0.132003 0.429877 0.207506
C119  C     C_R   0.814391 0.291405 0.046614 -0.078298
C120  C     C_3   0.515265 0.187778 0.515525 -0.336475
C121  C     C_R   0.809350 0.704759 0.536463 -0.078677
C122  C     C_R   0.311818 0.793968 0.045021 -0.079277
C123  C     C_R   0.311563 0.207176 0.535070 -0.078063
C124  C     C_R   0.829504 0.313590 0.159102 -0.042179
C125  C     C_R   0.800959 0.670119 0.536820 -0.033994
C126  C     C_R   0.303999 0.828636 0.052049 -0.036471
C127  C     C_R   0.326908 0.185755 0.649340 -0.044560
C128  C     C_R   0.816487 0.312167 0.306124 -0.049469
C129  C     C_R   0.765355 0.660034 0.570795 -0.061284
C130  C     C_R   0.269164 0.838791 0.095124 -0.064674
C131  C     C_3   0.517382 0.807697 0.087431 -0.330733
C132  C     C_R   0.314002 0.187961 0.796300 -0.050787
C133  C     C_R   0.825867 0.293906 0.897318 -0.029859
C134  C     C_R   0.845200 0.714899 0.502866 -0.035124
C135  C     C_R   0.346898 0.783757 0.002366 -0.026259
C136  C     C_R   0.323068 0.203919 0.386062 -0.029520
C137  C     C_3   0.006380 0.652478 0.080538 0.362349
C138  C     C_3   0.003838 0.343411 0.639290 0.345874
C139  C     C_3   0.512811 0.147531 0.079323 0.363146
C140  C     C_3   0.515203 0.855212 0.587417 0.375582
C141  C     C_2   0.936735 0.422590 0.855148 -0.213692
C142  C     C_R   0.849992 0.320286 0.859843 0.587389
C143  C     C_2   0.935967 0.577636 0.352367 -0.236873
C144  C     C_2   0.436548 0.921933 0.854069 -0.231182
C145  C     C_2   0.436398 0.077007 0.354252 -0.230449
C146  C     C_2   0.057818 0.581139 0.330181 -0.176435
C147  C     C_2   0.057672 0.420345 0.824966 -0.190471
C148  C     C_2   0.558358 0.080104 0.333168 -0.182132
C149  C     C_2   0.557780 0.919465 0.824808 -0.194525
C150  C     C_R   0.223486 0.755956 0.173722 0.020508
C151  C     C_R   0.240189 0.254251 0.744363 0.020145
C152  C     C_R   0.742542 0.245649 0.257381 0.019610
C153  C     C_R   0.872115 0.690444 0.471072 0.595383
C154  C     C_R   0.719267 0.742916 0.646823 0.020181
C155  C     C_R   0.264219 0.710281 0.095828 0.020305
C156  C     C_R   0.247474 0.281835 0.497691 0.017943
C157  C     C_R   0.751409 0.215787 0.016823 0.018593
C158  C     C_R   0.762559 0.788611 0.592085 0.019720
C159  C     C_R   0.230328 0.721074 0.152625 0.049040
C160  C     C_R   0.230262 0.280054 0.638094 0.050786
C161  C     C_R   0.733348 0.218824 0.154736 0.050329
C162  C     C_R   0.727336 0.777855 0.636086 0.049492
C163  C     C_R   0.190391 0.765282 0.239726 -0.104575
C164  C     C_R   0.373781 0.808210 0.969667 0.583623
C165  C     C_R   0.219541 0.251263 0.874820 -0.112848
C166  C     C_R   0.720839 0.250015 0.383969 -0.112179
C167  C     C_R   0.684365 0.733598 0.697456 -0.102682
C168  C     C_R   0.164512 0.741428 0.278379 -0.063843
C169  C     C_R   0.190602 0.273182 0.900349 -0.064300
C170  C     C_R   0.691346 0.228526 0.408500 -0.062091
C171  C     C_R   0.658199 0.757519 0.732575 -0.063998
C172  C     C_R   0.170208 0.707078 0.252742 -0.022230
C173  C     C_R   0.182069 0.300019 0.800834 -0.023423
C174  C     C_R   0.683615 0.200645 0.313051 -0.023166
C175  C     C_R   0.347580 0.177673 0.350903 0.587690
C176  C     C_R   0.665396 0.791971 0.719014 -0.024407
C177  C     C_R   0.202993 0.696759 0.189363 -0.081768
C178  C     C_R   0.202613 0.304107 0.672165 -0.083335
C179  C     C_R   0.705518 0.195055 0.189619 -0.084586
C180  C     C_R   0.699883 0.802287 0.670219 -0.079308
C181  C     C_R   0.208500 0.662174 0.163791 -0.029718
C182  C     C_R   0.195161 0.331914 0.576680 -0.035268
C183  C     C_R   0.699204 0.166062 0.099796 -0.027370
C184  C     C_R   0.706929 0.837001 0.656169 -0.036338
C185  C     C_3   0.018055 0.687434 0.029204 -0.238441
C186  C     C_2   0.917759 0.362113 0.823113 -0.093831
C187  C     C_3   0.028946 0.316087 0.581174 -0.204831
C188  C     C_3   0.527406 0.182755 0.047467 -0.218404
C189  C     C_3   0.534340 0.822122 0.553361 -0.192078
C190  C     C_R   0.180888 0.638487 0.199723 0.591841
C191  C     C_R   0.169049 0.356533 0.617492 0.595945
C192  C     C_R   0.673011 0.141733 0.142483 0.591596
C193  C     C_R   0.679461 0.860846 0.690940 0.596764
C194  C     C_R   0.143598 0.683018 0.290491 0.572779
C195  C     C_R   0.152614 0.322159 0.826052 0.576317
C196  C     C_R   0.653529 0.179007 0.336066 0.576289
H1    H     H_    0.815649 0.497083 0.162590 0.081265
H2    H     H_    0.104974 0.508733 0.414923 0.063766
H3    H     H_    0.564326 0.824657 0.584609 0.117306
H4    H     H_    0.996586 0.706072 0.056488 0.119890
H5    H     H_    0.011927 0.296764 0.517467 0.129374
H6    H     H_    0.510953 0.201638 0.107489 0.111417
H7    H     H_    0.531204 0.816732 0.429803 0.149822
H8    H     H_    0.955390 0.638911 0.691892 0.203472
H9    H     H_    0.967203 0.678892 0.733992 0.204542
H10   H     H_    0.971993 0.370230 0.187469 0.200988
H11   H     H_    0.960689 0.332141 0.118387 0.135098
H12   H     H_    0.455715 0.139204 0.691244 0.223200
H13   H     H_    0.616260 0.004981 0.887847 0.090182
H14   H     H_    0.469707 0.178238 0.741576 0.209465
H15   H     H_    0.467466 0.871710 0.210746 0.199946
H16   H     H_    0.452203 0.836377 0.124151 0.169918
H17   H     H_    0.820786 0.545884 0.308237 0.222987
H18   H     H_    0.790168 0.553542 0.161969 0.182027
H19   H     H_    0.787301 0.449342 0.652358 0.175836
H20   H     H_    0.823754 0.427441 0.600094 0.188420
H21   H     H_    0.313265 0.047539 0.261503 0.192336
H22   H     H_    0.288035 0.054557 0.098604 0.177397
H23   H     H_    0.292447 0.950832 0.721232 0.183207
H24   H     H_    0.600575 0.010902 0.417330 0.056139
H25   H     H_    0.325089 0.927506 0.646241 0.182720
H26   H     H_    0.120483 0.450696 0.971959 0.090758
H27   H     H_    0.160919 0.462716 0.877996 0.094248
H28   H     H_    0.163098 0.457747 0.083476 0.112855
H29   H     H_    0.114964 0.565775 0.521853 0.037703
H30   H     H_    0.081831 0.542513 0.624045 0.134783
H31   H     H_    0.128105 0.549402 0.705127 0.113476
H32   H     H_    0.622879 0.947710 0.003672 0.099152
H33   H     H_    0.660166 0.959474 0.889903 0.115352
H34   H     H_    0.666380 0.960711 0.096357 0.112248
H35   H     H_    0.159704 0.551462 0.063253 0.139125
H36   H     H_    0.617425 0.066542 0.530011 0.045718
H37   H     H_    0.584464 0.043769 0.634810 0.139230
H38   H     H_    0.631927 0.047570 0.706852 0.118221
H39   H     H_    0.208393 0.501865 0.895109 0.132789
H40   H     H_    0.183950 0.537661 0.811272 0.126172
H41   H     H_    0.220138 0.543802 0.956923 0.155569
H42   H     H_    0.181158 0.563729 0.522016 0.141996
H43   H     H_    0.206133 0.541201 0.384595 0.150205
H44   H     H_    0.159443 0.555071 0.334981 0.154932
H45   H     H_    0.711829 0.999143 0.932165 0.142685
H46   H     H_    0.167048 0.491938 0.397153 0.120889
H47   H     H_    0.682739 0.018038 0.782355 0.141694
H48   H     H_    0.713648 0.043786 0.901035 0.154518
H49   H     H_    0.683325 0.059850 0.524213 0.142880
H50   H     H_    0.705043 0.039790 0.370893 0.141382
H51   H     H_    0.659774 0.058221 0.335805 0.146266
H52   H     H_    0.063544 0.722610 0.058038 0.142306
H53   H     H_    0.052073 0.701385 0.229267 0.176961
H54   H     H_    0.076449 0.679098 0.084752 0.155877
H55   H     H_    0.032365 0.284708 0.783644 0.134636
H56   H     H_    0.071558 0.281614 0.667173 0.157108
H57   H     H_    0.653452 0.052799 0.993786 0.146870
H58   H     H_    0.066008 0.318315 0.785039 0.173525
H59   H     H_    0.577527 0.212467 0.077984 0.150953
H60   H     H_    0.571797 0.181656 0.224555 0.167393
H61   H     H_    0.585159 0.168609 0.037876 0.146075
H62   H     H_    0.488530 0.789841 0.609931 0.156153
H63   H     H_    0.532849 0.769157 0.609181 0.127402
H64   H     H_    0.523271 0.796863 0.764175 0.135980
H65   H     H_    0.007193 0.551874 0.258857 0.155359
H66   H     H_    0.029165 0.541207 0.436707 0.130191
H67   H     H_    0.003313 0.580312 0.392952 0.038984
H68   H     H_    0.659425 0.994181 0.356172 0.123583
H69   H     H_    0.029089 0.459334 0.937511 0.146586
H70   H     H_    0.005994 0.449128 0.760288 0.149908
H71   H     H_    0.003930 0.419892 0.893370 0.030420
H72   H     H_    0.507125 0.051749 0.259829 0.153082
H73   H     H_    0.528843 0.040618 0.438360 0.134689
H74   H     H_    0.503794 0.080068 0.394125 0.041608
H75   H     H_    0.529847 0.959028 0.936996 0.145859
H76   H     H_    0.506732 0.948753 0.759647 0.153695
H77   H     H_    0.503797 0.919942 0.892607 0.032421
H78   H     H_    0.871542 0.492262 0.325775 0.183451
H79   H     H_    0.183690 0.515809 0.146755 0.121724
H80   H     H_    0.911945 0.511044 0.300223 0.170525
H81   H     H_    0.860901 0.504448 0.821295 0.183751
H82   H     H_    0.904931 0.491223 0.811185 0.174936
H83   H     H_    0.359487 0.993509 0.320556 0.179041
H84   H     H_    0.403195 0.008133 0.312276 0.181934
H85   H     H_    0.374007 0.006302 0.826190 0.185125
H86   H     H_    0.414451 0.988402 0.797229 0.165157
H87   H     H_    0.920549 0.538717 0.048059 0.127720
H88   H     H_    0.877551 0.549047 0.939563 0.108321
H89   H     H_    0.886449 0.566480 0.122489 0.095001
H90   H     H_    0.181118 0.504128 0.587410 0.132171
H91   H     H_    0.922876 0.462180 0.553463 0.132408
H92   H     H_    0.890142 0.433590 0.630594 0.081004
H93   H     H_    0.881342 0.447332 0.445103 0.111510
H94   H     H_    0.421432 0.037310 0.056985 0.119295
H95   H     H_    0.380047 0.051484 0.947245 0.120152
H96   H     H_    0.387932 0.065274 0.134172 0.096857
H97   H     H_    0.422412 0.960416 0.544231 0.141478
H98   H     H_    0.389276 0.932047 0.619291 0.073552
H99   H     H_    0.379055 0.949427 0.438179 0.104992
H100  H     H_    0.678402 0.025859 0.126950 0.127487
H101  H     H_    0.813755 0.500898 0.620260 0.104978
H102  H     H_    0.679481 0.997804 0.543987 0.134822
H103  H     H_    0.994998 0.638086 0.483531 -0.035976
H104  H     H_    0.014225 0.349855 0.008665 -0.132356
H105  H     H_    0.495139 0.137500 0.486207 -0.031137
H106  H     H_    0.503236 0.856479 0.003157 -0.081014
H107  H     H_    0.995824 0.697936 0.426175 0.112557
H108  H     H_    0.008726 0.289938 0.060221 0.058741
H109  H     H_    0.495334 0.197292 0.424491 0.081252
H110  H     H_    0.495560 0.796073 0.009619 0.100287
H111  H     H_    0.017654 0.707692 0.612174 0.113196
H112  H     H_    0.311985 0.997729 0.122040 0.093711
H113  H     H_    0.029781 0.295403 0.250654 0.112540
H114  H     H_    0.519559 0.207304 0.605671 0.119022
H115  H     H_    0.519431 0.793114 0.194933 0.115695
H116  H     H_    0.874913 0.406626 0.096999 0.113353
H117  H     H_    0.887896 0.600295 0.641813 0.117054
H118  H     H_    0.390610 0.898565 0.147861 0.123570
H119  H     H_    0.373663 0.092578 0.593216 0.112733
H120  H     H_    0.827716 0.328698 0.395866 0.158181
H121  H     H_    0.757839 0.633637 0.570576 0.117809
H122  H     H_    0.262046 0.865218 0.099657 0.117733
H123  H     H_    0.317814 0.001235 0.661333 0.091073
H124  H     H_    0.325336 0.172003 0.887351 0.161971
H125  H     H_    0.111319 0.644705 0.516357 0.118241
H126  H     H_    0.119094 0.366836 0.017870 0.142234
H127  H     H_    0.615660 0.138000 0.527663 0.139571
H128  H     H_    0.610494 0.854043 0.997772 0.106884
H129  H     H_    0.139707 0.750187 0.328708 0.119927
H130  H     H_    0.175200 0.269277 0.000643 0.120938
H131  H     H_    0.674920 0.233546 0.504901 0.120875
H132  H     H_    0.632024 0.748744 0.771035 0.118278
H133  H     H_    0.183870 0.790932 0.266790 0.067531
H134  H     H_    0.819866 0.520435 0.991390 0.082553
H135  H     H_    0.224088 0.231228 0.956245 0.071442
H136  H     H_    0.724927 0.270908 0.461937 0.072005
H137  H     H_    0.676399 0.707852 0.714208 0.067322
H138  H     H_    0.779175 0.290835 0.454096 0.073623
H139  H     H_    0.712016 0.673260 0.627581 0.066748
H140  H     H_    0.216602 0.825537 0.162067 0.066654
H141  H     H_    0.276957 0.209919 0.943084 0.071203
H142  H     H_    0.919656 0.337938 0.766892 0.118406
H143  H     H_    0.903353 0.655163 0.221412 0.101585
H144  H     H_    0.405039 0.843919 0.724370 0.113335
H145  H     H_    0.823279 0.476058 0.458276 0.043285
H146  H     H_    0.417979 0.161132 0.262390 0.120904
H147  H     H_    0.820773 0.271535 0.671661 0.113090
H148  H     H_    0.880953 0.757987 0.478348 0.118903
H149  H     H_    0.381364 0.740548 0.963039 0.119541
H150  H     H_    0.317884 0.224968 0.158757 0.112245
H151  H     H_    0.292929 0.665204 0.021260 0.066861
H152  H     H_    0.252754 0.313809 0.298099 0.069499
H153  H     H_    0.758693 0.181761 0.825200 0.068767
H154  H     H_    0.793831 0.833957 0.538952 0.067484
H155  H     H_    0.042444 0.683942 0.476929 0.109052
H156  H     H_    0.323044 0.019684 0.954150 0.079276
H157  H     H_    0.056319 0.303280 0.087237 0.123023
H158  H     H_    0.542095 0.182861 0.465387 0.108903
H159  H     H_    0.544254 0.806206 0.033476 0.112799
H160  H     H_    0.246612 0.625660 0.079971 0.113889
H161  H     H_    0.209468 0.355811 0.366928 0.119182
H162  H     H_    0.715565 0.139764 0.898337 0.114016
H163  H     H_    0.747647 0.873602 0.594594 0.118250
H164  H     H_    0.115777 0.598248 0.068225 0.114254
H165  H     H_    0.099601 0.393149 0.537127 0.145519
H166  H     H_    0.606289 0.103432 0.054413 0.146629
H167  H     H_    0.320790 0.974907 0.497702 0.045450
H168  H     H_    0.614029 0.902001 0.554688 0.123716
H169  H     H_    0.779199 0.227515 0.735345 0.069785
H170  H     H_    0.836136 0.799111 0.530565 0.067449
H171  H     H_    0.336426 0.699424 0.017251 0.067707
H172  H     H_    0.275410 0.268456 0.217156 0.068995
H173  H     H_    0.945331 0.445324 0.800041 0.026030
H174  H     H_    0.946973 0.555316 0.302065 0.029711
H175  H     H_    0.447576 0.944140 0.803726 0.028404
H176  H     H_    0.445519 0.054250 0.300268 0.030534
H177  H     H_    0.028173 0.633886 0.055936 0.057499
H178  H     H_    0.121293 0.511086 0.891102 0.091339
H179  H     H_    0.021633 0.363808 0.690554 -0.030400
H180  H     H_    0.530723 0.128536 0.027245 0.077820
H181  H     H_    0.531426 0.875739 0.537599 0.048111
H182  H     H_    0.002582 0.653215 0.205214 -0.060587
H183  H     H_    0.986781 0.332375 0.727487 -0.023955
H184  H     H_    0.513636 0.143910 0.205153 -0.080910
H185  H     H_    0.515203 0.858650 0.713178 -0.063990
H186  H     H_    0.020538 0.687562 0.904194 0.156675
H187  H     H_    0.048353 0.327503 0.502856 0.144067
H188  H     H_    0.524257 0.188006 0.923312 0.152597
N1    N     N_R   0.866928 0.340859 0.972920 -0.424856
N2    N     N_3   0.979836 0.344948 0.191665 -0.415733
N3    N     N_3   0.465323 0.161914 0.648617 -0.486772
N4    N     N_3   0.473670 0.846297 0.195841 -0.433492
N5    N     N_3   0.818335 0.549872 0.190411 -0.492596
N6    N     N_3   0.816220 0.448780 0.660626 -0.492523
N7    N     N_3   0.315059 0.050647 0.144034 -0.502495
N8    N     N_3   0.320927 0.949437 0.708828 -0.463437
N9    N     N_3   0.883453 0.514011 0.287231 -0.474172
N10   N     N_3   0.877364 0.485088 0.784178 -0.456963
N11   N     N_3   0.375467 0.013361 0.284384 -0.482017
N12   N     N_R   0.863381 0.656409 0.468464 -0.424687
N13   N     N_3   0.386035 0.984705 0.786745 -0.448044
N14   N     N_R   0.365571 0.842312 0.973584 -0.423039
N15   N     N_R   0.364662 0.157855 0.465597 -0.423442
N16   N     N_R   0.148465 0.648897 0.261702 -0.418720
N17   N     N_R   0.147125 0.351567 0.740528 -0.416916
N18   N     N_R   0.649211 0.148365 0.257802 -0.417206
N19   N     N_R   0.645700 0.850407 0.740425 -0.421543
N20   N     N_3   0.964067 0.661470 0.644766 -0.456274
O1    O     O_2   0.072110 0.546320 0.923350 -0.479280
O2    O     O_3   0.980750 0.355501 0.517151 -0.545755
O3    O     O_3   0.476551 0.144850 0.013653 -0.585981
O4    O     O_3   0.479016 0.854899 0.519673 -0.564585
O5    O     O_3   0.958050 0.483830 0.034350 -0.507874
O6    O     O_3   0.958050 0.516170 0.534350 -0.509453
O7    O     O_3   0.458050 0.983830 0.034350 -0.510447
O8    O     O_3   0.458050 0.016170 0.534350 -0.504943
O9    O     O_2   0.873968 0.352249 0.226096 -0.567757
O10   O     O_2   0.820205 0.616313 0.497540 -0.598432
O11   O     O_2   0.323287 0.882453 0.014492 -0.590002
O12   O     O_2   0.072110 0.453680 0.423350 -0.430527
O13   O     O_2   0.371405 0.147573 0.719394 -0.568200
O14   O     O_2   0.115795 0.692740 0.348558 -0.632979
O15   O     O_2   0.131311 0.314425 0.922385 -0.626551
O16   O     O_2   0.630589 0.188342 0.422871 -0.620618
O17   O     O_2   0.609022 0.806674 0.797714 -0.626277
O18   O     O_2   0.855203 0.325222 0.725739 -0.601586
O19   O     O_2   0.903458 0.699523 0.446805 -0.594732
O20   O     O_2   0.404639 0.799058 0.938957 -0.615801
O21   O     O_2   0.353022 0.172175 0.217310 -0.597457
O22   O     O_2   0.186133 0.608589 0.177967 -0.628416
O23   O     O_2   0.572110 0.046320 0.923350 -0.483513
O24   O     O_2   0.166308 0.382446 0.543580 -0.598135
O25   O     O_2   0.671891 0.114605 0.077141 -0.628128
O26   O     O_2   0.685917 0.890877 0.679420 -0.600036
O27   O     O_3   0.042000 0.516250 0.155330 -0.476685
O28   O     O_3   0.042000 0.483750 0.655330 -0.514833
O29   O     O_3   0.542000 0.016250 0.155330 -0.476350
O30   O     O_3   0.542000 0.983750 0.655330 -0.513194
O31   O     O_3   0.012540 0.574900 0.645500 -0.470483
O32   O     O_3   0.012540 0.425100 0.145500 -0.480368
O33   O     O_3   0.512540 0.074900 0.645500 -0.472167
O34   O     O_2   0.572110 0.953680 0.423350 -0.434700
O35   O     O_3   0.512540 0.925100 0.145500 -0.479755
O36   O     O_2   0.077160 0.599775 0.761839 -0.481336
O37   O     O_2   0.085042 0.414067 0.227055 -0.449286
O38   O     O_2   0.577421 0.099328 0.763480 -0.484546
O39   O     O_2   0.583449 0.909458 0.236019 -0.465209
O40   O     O_3   0.110799 0.504855 0.121531 -0.625037
O41   O     O_3   0.117640 0.486128 0.627891 -0.650177
O42   O     O_3   0.610956 0.005198 0.123302 -0.629442
O43   O     O_3   0.617512 0.986456 0.622195 -0.652488
O44   O     O_3   0.025214 0.643321 0.698029 -0.586421
O45   O     O_3   0.879814 0.516988 0.564979 -0.640039
O46   O     O_3   0.042412 0.360932 0.223519 -0.579367
O47   O     O_3   0.526496 0.143530 0.697219 -0.583731
O48   O     O_3   0.537041 0.858996 0.211158 -0.594819
O49   O     O_2   0.928110 0.546600 0.766510 -0.483036
O50   O     O_2   0.928110 0.453400 0.266510 -0.488094
O51   O     O_2   0.428110 0.046600 0.766510 -0.483110
O52   O     O_2   0.428110 0.953400 0.266510 -0.494509
O53   O     O_3   0.987780 0.574950 0.044470 -0.485953
O54   O     O_3   0.987780 0.425050 0.544470 -0.485586
O55   O     O_3   0.487780 0.074950 0.044470 -0.497654
O56   O     O_3   0.880037 0.482968 0.064067 -0.647210
O57   O     O_3   0.487780 0.925050 0.544470 -0.500066
O58   O     O_2   0.922548 0.600377 0.950913 -0.484646
O59   O     O_2   0.924471 0.394615 0.461783 -0.427644
O60   O     O_2   0.423010 0.102760 0.961746 -0.430935
O61   O     O_2   0.424568 0.895030 0.450249 -0.489689
O62   O     O_3   0.380681 0.015606 0.564380 -0.655883
O63   O     O_3   0.379356 0.981811 0.063749 -0.622706
O64   O     O_3   0.973254 0.644226 0.997798 -0.585764
P1    P     P_3+3 0.075650 0.535480 0.098240 0.966716
P2    P     P_3+3 0.958076 0.391351 0.578853 0.993070
P3    P     P_3+3 0.456775 0.107701 0.076720 0.975376
P4    P     P_3+3 0.456996 0.891767 0.572951 0.938635
P5    P     P_3+3 0.051833 0.398758 0.132272 0.992464
P6    P     P_3+3 0.046356 0.606685 0.635759 0.954340
P7    P     P_3+3 0.550297 0.897035 0.131430 0.971821
P8    P     P_3+3 0.546877 0.106344 0.636623 0.952455
P9    P     P_3+3 0.075650 0.464520 0.598240 0.989145
P10   P     P_3+3 0.575650 0.035480 0.098240 0.965402
P11   P     P_3+3 0.575650 0.964520 0.598240 0.976552
P12   P     P_3+3 0.924520 0.535770 0.591580 0.968299
P13   P     P_3+3 0.924520 0.464230 0.091580 0.956641
P14   P     P_3+3 0.424520 0.035770 0.591580 0.957731
P15   P     P_3+3 0.424520 0.964230 0.091580 0.971433
P16   P     P_3+3 0.955333 0.607066 0.068530 0.939907

loop_
_geom_bond_atom_site_label_1
_geom_bond_atom_site_label_2
_ccdc_geom_bond_type
C46   C143  S    
C140  O4    S    
O49   P12   D    
C165  H135  S    
C86   N15   Am   
C42   C108  S    
C25   N19   S    
C139  O3    S    
Ba2   O6    S    
C37   C63   A    
Ba2   O32   S    
C138  O2    S    
Ba1   O1    S    
C8    P6    S    
H86   N13   S    
C84   C125  A    
Ba3   O23   S    
C39   N9    S    
C173  C178  A    
C124  C128  A    
C130  H122  S    
O55   P3    S    
C100  C146  S    
C33   C38   A    
C5    C9    S    
C106  H92   S    
C13   C57   S    
C79   C141  D    
C7    C11   S    
C72   H13   S    
C104  C149  S    
C9    P5    S    
O33   P8    S    
C77   H68   S    
C100  H67   S    
C40   C66   S    
O2    P2    S    
H19   N6    S    
C44   H139  S    
O56   P13   S    
C76   C94   S    
C26   C152  A    
C107  H94   S    
C186  H142  S    
C126  C130  A    
C96   H54   S    
O61   P4    D    
C75   C93   S    
C171  H132  S    
C21   N16   S    
C69   H123  S    
C106  H93   S    
C17   H164  S    
C161  C179  A    
C75   H46   S    
C8    C146  S    
C133  C142  A    
C162  C180  A    
C9    C147  S    
C94   H45   S    
C95   H51   S    
H8    N20   S    
C117  N14   S    
C24   H146  S    
C77   C95   S    
C26   C43   A    
Ba2   P9    S    
C15   C19   D    
C36   C158  A    
C97   H56   S    
H9    N20   S    
C44   C129  A    
C57   P4    S    
C164  N14   Am   
C35   C141  S    
C48   C133  A    
C120  H109  S    
H84   N11   S    
C115  N1    S    
C28   C150  A    
C86   C127  A    
C131  H115  S    
C170  H131  S    
C27   C44   A    
C121  C134  A    
C92   H39   S    
C152  C161  A    
C150  C163  A    
Ba4   O7    S    
O62   P14   S    
Ba1   O53   S    
C166  C170  A    
C55   H154  S    
C63   H171  S    
C50   H149  S    
C103  H72   S    
C81   O47   S    
C32   C122  A    
C1    H155  S    
C169  H130  S    
C97   C187  S    
C53   H152  S    
C41   C107  S    
C140  C189  S    
O29   P10   S    
C137  H177  S    
C78   O44   S    
C189  H3    S    
C109  H113  S    
C31   C36   A    
C40   O45   S    
C55   C158  A    
C1    C78   S    
C65   H134  S    
C54   H153  S    
C51   H150  S    
H78   N9    S    
C152  C166  A    
C98   H60   S    
C91   H36   S    
C194  O14   D    
C65   N5    S    
C103  H73   S    
H85   N13   S    
C78   N20   S    
Ba4   P15   S    
C121  C125  A    
C82   H106  S    
C175  O21   D    
H11   N2    S    
C76   H57   S    
C79   P13   S    
C71   C75   S    
O44   P6    S    
C48   C61   A    
C188  H188  S    
O36   P6    D    
C6    C23   D    
C106  H91   S    
C109  H157  S    
C12   C17   D    
C87   H28   S    
C159  C177  A    
H25   N8    S    
C95   H49   S    
C104  H75   S    
C49   H148  S    
H23   N8    S    
C12   P1    S    
C118  N15   S    
O54   P2    S    
C59   H162  S    
C81   N3    S    
C3    N19   Am   
C28   C32   A    
C82   N4    S    
C97   H55   S    
C57   C144  S    
C3    O17   D    
C187  H5    S    
Ba3   O8    S    
O37   P5    D    
Ba2   O27   S    
C193  N19   Am   
C91   H37   S    
C31   C121  A    
C62   H170  S    
C93   H42   S    
C80   H104  S    
C153  N12   Am   
C116  N12   S    
C88   H30   S    
C71   H2    S    
C67   H156  S    
C175  N15   Am   
C58   C182  A    
Ba1   O5    S    
C102  H71   S    
C39   C65   S    
C185  H186  S    
C83   C124  A    
C123  C127  A    
C144  H175  S    
C11   P7    S    
C122  C135  A    
C107  H95   S    
C16   C149  D    
C26   C30   A    
C79   C111  D    
C164  O20   D    
C100  H65   S    
C127  C132  A    
C6    C10   S    
C74   C92   S    
C101  C144  D    
H15   N4    S    
C85   O11   D    
C108  H98   S    
C112  C116  S    
C82   O48   S    
O7    P15   S    
C33   C123  A    
C94   H48   S    
C195  O15   D    
C47   C132  A    
C83   N1    Am   
C98   C188  S    
C50   C135  A    
Ba2   O50   S    
C34   C61   A    
C4    C8    S    
C47   H141  S    
C58   H161  S    
C131  H159  S    
C2    C46   S    
O3    P3    S    
C111  H116  S    
C4    H125  S    
C60   C184  A    
C101  P15   S    
Ba4   O35   S    
C10   P8    S    
C15   P10   S    
C59   C183  A    
C87   H26   S    
C18   C22   S    
O8    P14   S    
Ba4   O52   S    
C42   N13   S    
C123  C136  A    
C104  H77   S    
O6    P12   S    
C43   H138  S    
O59   P2    D    
C17   C21   S    
Ba2   P13   S    
C14   C18   D    
O57   P4    S    
C38   C156  A    
C72   C76   S    
C172  C194  A    
C42   O62   S    
C29   C151  A    
C171  C176  A    
C191  N17   Am   
C119  C133  A    
C111  C115  S    
C41   N11   S    
O43   P11   S    
C6    H127  S    
O41   P9    S    
C93   H44   S    
C88   H29   S    
C137  H182  S    
Ba3   P14   S    
O64   P16   S    
C3    C176  A    
C69   H167  S    
C155  C159  A    
C85   N14   Am   
C167  H137  S    
C157  C161  A    
C92   H41   S    
C11   C149  S    
C75   H90   S    
C176  C180  A    
C82   C131  S    
C5    H126  S    
C102  H69   S    
C173  C195  A    
Ba2   O12   S    
C165  C169  A    
C7    H128  S    
O53   P16   S    
C67   N7    S    
C39   C105  S    
H82   N10   S    
C67   H112  S    
C42   C69   S    
C153  O19   D    
C2    H143  S    
Ba3   Ba4   S    
C56   C181  A    
C189  H7    S    
C183  C192  A    
C128  H120  S    
C115  C186  D    
C181  C190  A    
C51   C64   A    
C105  H89   S    
H22   N7    S    
C196  O16   D    
C80   C109  S    
O23   P10   D    
C64   H172  S    
C70   O40   S    
C156  C160  A    
C83   O9    D    
C74   H79   S    
C66   N6    S    
C52   C155  A    
C142  O18   D    
C168  H129  S    
O30   P11   S    
C41   C67   S    
C113  H118  S    
C122  C126  A    
O28   P9    S    
C90   C143  D    
C109  H108  S    
C60   H163  S    
C178  C182  A    
C68   P3    S    
C20   C25   S    
C39   O56   S    
C158  C162  A    
C105  H88   S    
C1    H111  S    
C34   C157  A    
C190  O22   D    
O34   P11   D    
H81   N10   S    
C5    C22   D    
H83   N11   S    
C99   H64   S    
H21   N7    S    
C69   N8    S    
C193  O26   D    
C170  C174  A    
O1    P1    D    
C174  C179  A    
C191  O24   D    
Ba3   O55   S    
C73   O43   S    
C36   C62   A    
O27   P1    S    
C140  H185  S    
C92   H40   S    
C101  C113  D    
C32   C37   A    
C24   C68   S    
O40   P1    S    
Ba2   O5    S    
C89   H34   S    
C41   O63   S    
C145  H176  S    
C196  N18   Am   
C185  H4    S    
O32   P5    S    
Ba3   O30   S    
C120  H158  S    
C194  N16   Am   
C49   C134  A    
C108  H99   S    
H18   N5    S    
C137  C185  S    
C90   C112  D    
C48   H147  S    
C88   H31   S    
C89   H33   S    
C84   N12   Am   
C29   C33   A    
C51   C136  A    
C52   C56   A    
C70   C87   S    
O38   P8    D    
C72   C89   S    
C35   P2    S    
C20   H168  S    
C141  H173  S    
H80   N9    S    
C97   H58   S    
Ba1   O31   S    
C98   H61   S    
O4    P4    S    
C120  H114  S    
C16   P11   S    
O50   P13   D    
C89   H32   S    
C40   N10   S    
C53   C156  A    
C110  P14   S    
C151  C160  A    
O63   P15   S    
C4    C21   D    
C14   C147  D    
C71   O41   S    
C154  C162  A    
C182  C191  A    
C129  H121  S    
Ba4   O34   S    
C174  C196  A    
C102  C147  S    
C87   H27   S    
C188  H6    S    
C138  H183  S    
C104  H76   S    
C140  H181  S    
C139  H180  S    
O51   P14   D    
Ba1   P1    S    
H12   N3    S    
C46   P16   S    
C163  C168  A    
Ba2   O54   S    
C29   C47   A    
C114  H119  S    
C43   C128  A    
Ba3   O7    S    
O35   P7    S    
C184  C193  A    
O31   P6    S    
Ba3   O33   S    
C99   H62   S    
C24   C118  D    
C139  H184  S    
C135  C164  A    
C27   C154  A    
C160  C178  A    
C85   C126  A    
C192  O25   D    
C143  H174  S    
C70   C74   S    
O58   P16   D    
O47   P8    S    
C99   C189  S    
C110  C145  D    
C54   C157  A    
C45   C130  A    
C65   H1    S    
C30   C119  A    
C14   P9    S    
C187  H187  S    
C190  N16   Am   
C96   C185  S    
C18   H165  S    
C77   H102  S    
O5    P13   S    
C53   C58   A    
C98   H59   S    
Ba3   P10   S    
C55   C60   A    
C72   O42   S    
Ba1   P12   S    
C100  H66   S    
C23   N18   S    
C179  C183  A    
C86   O13   D    
C114  C118  S    
C154  C167  A    
C66   H145  S    
C13   H144  S    
C136  C175  A    
C172  C177  A    
H16   N4    S    
C81   C120  S    
Ba1   Ba2   S    
O39   P7    D    
C103  H74   S    
C19   H166  S    
C151  C165  A    
Ba4   O8    S    
C113  C117  S    
C73   H24   S    
C131  H110  S    
C37   C155  A    
C61   H169  S    
C16   C20   D    
C74   H35   S    
H10   N2    S    
C139  C188  S    
C166  H136  S    
O12   P9    D    
C73   C77   S    
C38   C64   A    
C95   H50   S    
C84   O10   D    
C163  H133  S    
C2    C116  D    
C22   N17   S    
H17   N5    S    
C28   C45   A    
C150  C159  A    
O46   P5    S    
C35   C186  S    
C177  C181  A    
C1    H107  S    
C50   C63   A    
C56   H160  S    
C167  C171  A    
C73   C91   S    
C180  C184  A    
C91   H38   S    
C52   H151  S    
C93   H43   S    
Ba3   O51   S    
C169  C173  A    
Ba1   O49   S    
C15   C148  D    
C49   C62   A    
C80   N2    S    
C195  N17   Am   
C71   C88   S    
C142  N1    Am   
C103  C148  S    
C45   H140  S    
Ba1   O6    S    
C102  H70   S    
C19   C23   S    
Ba1   O28   S    
C125  C129  A    
C192  N18   Am   
C10   C148  S    
H14   N3    S    
C78   H103  S    
C81   H105  S    
Ba4   P11   S    
C13   C117  D    
C54   C59   A    
C110  C114  D    
C107  H96   S    
C30   C34   A    
O48   P7    S    
C96   H52   S    
C12   C146  D    
C112  H117  S    
O60   P3    D    
Ba4   O29   S    
C108  H97   S    
C90   P12   S    
H20   N6    S    
O42   P10   S    
O52   P15   D    
C94   H47   S    
C134  C153  A    
C119  C124  A    
C138  C187  S    
C137  O64   S    
C66   H101  S    
C132  H124  S    
C27   C31   A    
C76   H100  S    
C105  H87   S    
O45   P12   S    
C168  C172  A    
C7    C25   D    
C68   C145  S    
C99   H63   S    
C138  H179  S    
C80   O46   S    
Ba4   O57   S    
C96   H53   S    
C70   H178  S    
C40   C106  S    
