data_mof_unit_41962.cif
_audit_creation_date              2012-12-11T14:29:48-0500
_audit_creation_method            fapswitch 2.2
_symmetry_space_group_name_H-M    P1
_symmetry_Int_Tables_number       1
_space_group_crystal_system       triclinic
_cell_length_a                    6.937799
_cell_length_b                    14.649302
_cell_length_c                    16.347677
_cell_angle_alpha                 90.317752
_cell_angle_beta                  89.793064
_cell_angle_gamma                 90.035494
_cell_volume                      1661.441693

loop_
_atom_site_label
_atom_site_type_symbol
_atom_type_description
_atom_site_fract_x
_atom_site_fract_y
_atom_site_fract_z
_atom_type_partial_charge
O1    O     O_R   0.494400 0.416610 0.413880 -0.551969
O2    O     O_R   0.823920 0.406790 0.585520 -0.547001
O3    O     O_R   0.994250 0.583390 0.586120 -0.528719
C1    C     C_R   0.654560 0.385211 0.613646 0.738339
O4    O     O_R   0.824110 0.405730 0.414490 -0.547991
O5    O     O_R   0.994440 0.582310 0.413870 -0.532041
C2    C     C_R   0.655040 0.383758 0.386266 0.722284
O6    O     O_R   0.494210 0.417690 0.586130 -0.547769
O7    O     O_3   0.660810 0.557940 0.500000 -0.355589
V1    V     V_3+5 0.935650 0.489250 0.500000 1.439750
O8    O     O_R   0.324160 0.593210 0.414480 -0.530670
C3    C     C_R   0.156626 0.609611 0.382468 0.858517
O9    O     O_R   0.323970 0.594270 0.585510 -0.529511
C4    C     C_R   0.154239 0.618979 0.611947 0.803843
V2    V     V_3+5 0.435660 0.510750 0.500000 1.462186
O10   O     O_3   0.160630 0.442060 0.500000 -0.389921
H1    H     H_    0.327777 0.939455 0.523434 0.157499
C5    C     C_R   0.034229 0.565349 0.773196 -0.145710
C6    C     C_R   0.973781 0.536064 0.850035 -0.118036
C7    C     C_R   0.960509 0.597686 0.914615 -0.124311
C8    C     C_R   0.008370 0.689024 0.902960 -0.146575
C9    C     C_R   0.068622 0.721075 0.825404 0.077273
C10   C     C_R   0.080915 0.658182 0.758725 0.057393
C11   C     C_R   0.122453 0.813408 0.814569 -0.158577
C12   C     C_R   0.188934 0.843215 0.737125 0.034129
C13   C     C_R   0.187153 0.782719 0.668054 -0.001666
C14   C     C_R   0.140305 0.688148 0.679762 -0.178421
C15   C     C_R   0.251489 0.934648 0.726731 -0.147519
C16   C     C_R   0.310177 0.966692 0.651131 -0.203080
C17   C     C_R   0.295128 0.911108 0.582974 -0.102827
C18   C     C_R   0.227422 0.821716 0.589884 0.365406
H2    H     H_    0.044376 0.513887 0.725734 0.099223
H3    H     H_    0.938023 0.464945 0.859569 0.114713
H4    H     H_    0.914632 0.574366 0.974282 0.107561
H5    H     H_    0.999598 0.733780 0.955699 0.102103
H6    H     H_    0.254846 0.983434 0.776448 0.127712
H7    H     H_    0.358605 0.036594 0.644755 0.135978
C19   C     C_2   0.986772 0.702026 0.278117 -0.209689
C20   C     C_2   0.152699 0.671809 0.311117 -0.311807
H8    H     H_    0.851486 0.680216 0.305302 0.156975
H9    H     H_    0.290453 0.690396 0.284496 0.128826
C21   C     C_2   0.972274 0.762191 0.204131 0.445546
C22   C     C_2   0.120487 0.815933 0.179302 -0.377172
H10   H     H_    0.257796 0.813105 0.210561 0.122803
C23   C     C_2   0.779931 0.209846 0.782664 -0.129000
C24   C     C_2   0.614456 0.179664 0.816670 -0.310740
H11   H     H_    0.916370 0.183481 0.804734 0.134500
H12   H     H_    0.476138 0.204628 0.796184 0.124132
C25   C     C_2   0.791697 0.278336 0.715650 -0.139735
C26   C     C_2   0.638055 0.317746 0.680127 -0.304454
H13   H     H_    0.935530 0.296591 0.694972 0.131762
H14   H     H_    0.492984 0.301079 0.699481 0.126065
C27   C     C_2   0.778710 0.209170 0.213621 -0.124815
C28   C     C_2   0.613563 0.181756 0.177471 -0.310001
H15   H     H_    0.914647 0.180751 0.192399 0.136732
H16   H     H_    0.475898 0.209431 0.196635 0.125643
C29   C     C_2   0.791489 0.277492 0.281580 -0.136432
C30   C     C_2   0.638434 0.315702 0.319390 -0.306555
H17   H     H_    0.935564 0.296297 0.301275 0.131856
H18   H     H_    0.493271 0.297607 0.301414 0.128636
O11   O     O_R   0.770210 0.079270 0.910680 -0.540559
O12   O     O_R   0.440150 0.091160 0.082270 -0.546638
O13   O     O_R   0.269970 0.914530 0.082860 -0.543307
C31   C     C_R   0.608629 0.113257 0.110509 0.751924
O14   O     O_R   0.440480 0.090100 0.911240 -0.551816
O15   O     O_R   0.270310 0.913460 0.910610 -0.541683
C32   C     C_R   0.609320 0.111808 0.883181 0.736807
O16   O     O_R   0.769870 0.080340 0.082930 -0.539270
O17   O     O_3   0.603660 0.938980 0.996790 -0.361150
V3    V     V_3+5 0.328750 0.007610 0.996740 1.409942
O18   O     O_R   0.940600 0.902510 0.911180 -0.541245
C33   C     C_R   0.110092 0.879617 0.883892 0.683298
O19   O     O_R   0.940270 0.903570 0.082200 -0.503490
C34   C     C_R   0.108695 0.881464 0.110311 0.772270
V4    V     V_3+5 0.828770 0.986010 0.996670 1.465053
O20   O     O_3   0.103730 0.054750 0.996710 -0.382195
O21   O     O_3   0.795822 0.769926 0.164712 -0.534801
C35   C     C_3   0.730200 0.683142 0.138812 0.079377
H19   H     H_    0.658694 0.647213 0.190410 0.109524
H20   H     H_    0.849734 0.639949 0.114200 0.092747
C36   C     C_3   0.583111 0.695357 0.070925 -0.673622
H21   H     H_    0.649824 0.731661 0.018499 0.224932
H22   H     H_    0.531031 0.627607 0.049651 0.161355
H23   H     H_    0.458410 0.735581 0.093755 0.215214
Cl1   Cl    Cl    0.162014 0.772559 0.496680 -0.691753

loop_
_geom_bond_atom_site_label_1
_geom_bond_atom_site_label_2
_ccdc_geom_bond_type
O18   V4    S    
C18   Cl1   S    
O19   C34   A    
C6    C7    A    
C1    O6    A    
C36   H21   S    
C20   H9    S    
C27   C28   D    
O11   V4    S    
O16   V4    S    
C13   C14   A    
C31   O16   A    
C15   C16   A    
C19   C21   S    
O5    C3    A    
C17   C18   A    
C35   H20   S    
C29   H17   S    
C30   H18   S    
V2    O10   S    
O12   V3    S    
C5    C6    A    
O12   C31   A    
O8    V2    S    
O15   C33   A    
O14   C32   A    
C26   H14   S    
O1    V2    S    
C10   C14   A    
C4    C14   S    
O7    V1    S    
C2    C30   S    
C7    H4    S    
C22   C34   S    
C23   H11   S    
C13   C18   A    
O9    C4    A    
H1    C17   S    
O19   V4    S    
C24   C32   S    
C36   H22   S    
C24   H12   S    
C27   H15   S    
C19   C20   D    
C28   H16   S    
C5    C10   A    
C11   C12   A    
C6    H3    S    
O4    C2    A    
C27   C29   S    
C35   H19   S    
C25   H13   S    
C12   C13   A    
O21   C35   S    
C1    C26   S    
C12   C15   A    
O2    C1    A    
V4    O20   S    
C16   C17   A    
O11   C32   A    
O13   V3    S    
C23   C25   S    
O3    C4    A    
O6    V2    S    
O9    V2    S    
C22   H10   S    
V3    O20   S    
C9    C11   A    
C5    H2    S    
C21   C22   D    
O2    V1    S    
C36   H23   S    
C11   C33   S    
O1    C2    A    
O5    V1    S    
O8    C3    A    
C8    H5    S    
O13   C34   A    
C3    C20   S    
O7    V2    S    
O4    V1    S    
O3    V1    S    
V1    O10   S    
C19   H8    S    
C35   C36   S    
C29   C30   D    
O15   V3    S    
C28   C31   S    
O17   V4    S    
O17   V3    S    
C23   C24   D    
O18   C33   A    
C7    C8    A    
C15   H6    S    
C21   O21   S    
C25   C26   D    
C16   H7    S    
C9    C10   A    
C8    C9    A    
O14   V3    S    
