data_mof_unit_43485.cif
_audit_creation_date              2012-12-10T17:42:40-0500
_audit_creation_method            fapswitch 2.2
_symmetry_space_group_name_H-M    P1
_symmetry_Int_Tables_number       1
_space_group_crystal_system       triclinic
_cell_length_a                    9.987105
_cell_length_b                    10.618242
_cell_length_c                    13.101431
_cell_angle_alpha                 92.904027
_cell_angle_beta                  70.129153
_cell_angle_gamma                 90.043072
_cell_volume                      1304.7490851

loop_
_atom_site_label
_atom_site_type_symbol
_atom_type_description
_atom_site_fract_x
_atom_site_fract_y
_atom_site_fract_z
_atom_type_partial_charge
C1    C     C_R   0.501207 0.739000 0.497209 0.885796
C2    C     C_R   0.432829 0.488206 0.983680 -0.009908
C3    C     C_R   0.439335 0.542683 0.886162 0.088843
C4    C     C_R   0.530085 0.529749 0.035239 0.118478
C5    C     C_R   0.617113 0.635303 0.997116 0.153038
C6    C     C_R   0.604126 0.699465 0.910939 -0.240201
C7    C     C_R   0.517183 0.653073 0.855237 -0.156513
C8    C     C_R   0.542253 0.470800 0.124550 -0.219735
C9    C     C_R   0.715287 0.622845 0.141543 -0.185058
C10   C     C_R   0.367874 0.485342 0.821028 -0.179977
C11   C     C_R   0.461576 0.857417 0.314102 -0.234312
C12   C     C_R   0.420060 0.500252 0.704057 0.923002
C13   C     C_R   0.442494 0.917449 0.227716 -0.239799
C14   C     C_R   0.443599 0.049477 0.226708 0.509645
C15   C     C_R   0.463769 0.119797 0.313220 -0.193064
C16   C     C_R   0.481974 0.059928 0.401864 0.015145
C17   C     C_R   0.481346 0.928029 0.402148 0.082958
C18   C     C_R   0.504566 0.870997 0.489866 -0.060907
C19   C     C_R   0.532402 0.940327 0.573090 -0.161645
C20   C     C_R   0.532456 0.068985 0.573035 -0.183014
C21   C     C_R   0.504865 0.127843 0.489671 -0.065261
C22   C     C_R   0.804082 0.685508 0.623044 -0.185894
C23   C     C_R   0.501381 0.260703 0.496922 0.849908
C24   C     C_R   0.846332 0.786485 0.674861 -0.456184
C25   C     C_R   0.981755 0.786318 0.681899 0.417883
C26   C     C_R   0.075564 0.686249 0.632415 0.631104
C27   C     C_R   0.043258 0.591421 0.563422 -0.062909
C28   C     C_R   0.900230 0.591437 0.561371 0.121940
C29   C     C_R   0.955480 0.412988 0.440277 -0.083214
C30   C     C_R   0.098208 0.413333 0.439901 -0.081789
C31   C     C_R   0.579265 0.500208 0.296329 0.821736
C32   C     C_R   0.712410 0.678311 0.048371 -0.184832
C33   C     C_R   0.624937 0.522825 0.181875 -0.046301
C34   C     C_R   0.266652 0.392903 0.862778 -0.283511
C35   C     C_R   0.244657 0.350821 0.965869 0.697843
C36   C     C_R   0.329535 0.394834 0.024879 -0.273520
H1    H     H_    0.777807 0.665078 0.187136 0.164827
H2    H     H_    0.462477 0.755639 0.310231 0.169644
H3    H     H_    0.428113 0.860785 0.161223 0.150363
H4    H     H_    0.467171 0.221282 0.309120 0.147986
H5    H     H_    0.551148 0.123098 0.639253 0.152755
H6    H     H_    0.924314 0.341632 0.391228 0.154847
H7    H     H_    0.694114 0.682400 0.635577 0.227669
H8    H     H_    0.770122 0.861135 0.715267 0.170659
H9    H     H_    0.661796 0.785366 0.886798 0.152777
H10   H     H_    0.173269 0.342344 0.390480 0.148377
H11   H     H_    0.778567 0.759081 0.019982 0.166079
H12   H     H_    0.480076 0.389831 0.157126 0.165433
H13   H     H_    0.209909 0.348861 0.813508 0.188498
H14   H     H_    0.309691 0.356162 0.103048 0.187641
H15   H     H_    0.507963 0.705261 0.789121 0.132210
H16   H     H_    0.550968 0.894609 0.639374 0.134605
N1    N     N_R   0.856860 0.501200 0.500990 -0.100108
N2    N     N_R   0.142450 0.501280 0.501020 -0.094904
O1    O     O_R   0.385310 0.683220 0.500000 -0.551355
O2    O     O_R   0.614640 0.683250 0.500010 -0.651055
O3    O     O_R   0.328400 0.499950 0.653610 -0.526430
O4    O     O_R   0.557730 0.499970 0.653620 -0.635244
O5    O     O_R   0.385360 0.316750 0.499990 -0.620678
O6    O     O_R   0.614690 0.316780 0.500000 -0.611556
O7    O     O_R   0.442270 0.500030 0.346380 -0.628880
O8    O     O_R   0.671600 0.500050 0.346390 -0.601407
Zn1   Zn    Zn3+2 0.346880 0.499980 0.499990 0.998989
Zn2   Zn    Zn3+2 0.653120 0.500020 0.500010 0.952556
O9    O     O_3   0.426573 0.112438 0.142273 -0.783515
H17   H     H_    0.413775 0.049649 0.087796 0.342664
O10   O     O_3   0.023523 0.879039 0.742015 -0.702918
H18   H     H_    0.944797 0.941865 0.772914 0.334772
F1    F     F_    0.189332 0.681210 0.663815 -0.616313
F2    F     F_    0.146688 0.261225 0.006136 -0.648765

loop_
_geom_bond_atom_site_label_1
_geom_bond_atom_site_label_2
_ccdc_geom_bond_type
C1    O2    A    
C11   H2    S    
C2    C4    A    
C28   N1    A    
C8    H12   S    
O3    Zn1   S    
C16   C21   A    
C6    H9    S    
C29   H6    S    
C11   C13   A    
C31   O7    A    
O5    Zn1   S    
C19   C20   A    
C25   O10   S    
O6    Zn2   S    
C4    C8    A    
C5    C32   A    
C12   O4    A    
O2    Zn2   S    
C2    C3    A    
C1    O1    A    
C27   N2    A    
C7    H15   S    
C10   C34   A    
C3    C10   A    
C22   C28   A    
C13   C14   A    
C24   C25   A    
O9    H17   S    
C23   O5    A    
C30   N2    A    
C31   O8    A    
C1    C18   S    
C29   C30   A    
C10   C12   S    
C9    C33   A    
C20   H5    S    
C5    C6    A    
C9    H1    S    
N1    Zn2   S    
C14   O9    S    
C17   C18   A    
C6    C7    A    
C3    C7    A    
C8    C33   A    
C21   C23   S    
C26   C27   A    
C23   O6    A    
C24   H8    S    
C32   H11   S    
C22   C24   A    
C15   H4    S    
C13   H3    S    
C16   C17   A    
C31   C33   S    
C12   O3    A    
C15   C16   A    
C9    C32   A    
C36   H14   S    
C20   C21   A    
C34   C35   A    
N2    Zn1   S    
C2    C36   A    
C27   C28   A    
O7    Zn1   S    
C26   F1    S    
C14   C15   A    
C18   C19   A    
C34   H13   S    
O8    Zn2   S    
O4    Zn2   S    
C25   C26   A    
C19   H16   S    
C30   H10   S    
C22   H7    S    
C11   C17   A    
O10   H18   S    
C35   F2    S    
C4    C5    A    
C29   N1    A    
C35   C36   A    
O1    Zn1   S    
