data_mof_unit_57762.cif
_audit_creation_date              2012-12-10T17:22:51-0500
_audit_creation_method            fapswitch 2.2
_symmetry_space_group_name_H-M    P1
_symmetry_Int_Tables_number       1
_space_group_crystal_system       triclinic
_cell_length_a                    10.192045
_cell_length_b                    10.525852
_cell_length_c                    10.833187
_cell_angle_alpha                 90.057359
_cell_angle_beta                  93.4638
_cell_angle_gamma                 81.18934
_cell_volume                      1146.33176796

loop_
_atom_site_label
_atom_site_type_symbol
_atom_type_description
_atom_site_fract_x
_atom_site_fract_y
_atom_site_fract_z
_atom_type_partial_charge
C1    C     C_R   0.446174 0.504110 0.267789 0.961240
C2    C     C_3   0.500999 0.121755 0.500317 -0.099946
C3    C     C_3   0.614964 0.942873 0.555693 0.613204
C4    C     C_3   0.387595 0.054835 0.448415 0.591098
C5    C     C_2   0.418587 0.494334 0.136706 -0.462000
C6    C     C_2   0.576388 0.462089 0.864505 -0.474441
C7    C     C_2   0.505053 0.422338 0.066335 0.412625
C8    C     C_2   0.476894 0.435303 0.932765 0.395511
C9    C     C_2   0.073512 0.490755 0.490441 -0.034571
C10   C     C_2   0.926006 0.511575 0.507274 -0.024546
C11   C     C_3   0.812351 0.946806 0.676092 0.076947
C12   C     C_R   0.553175 0.487391 0.732818 0.949638
C13   C     C_3   0.894010 0.017824 0.592332 -0.393454
C14   C     C_3   0.005214 0.070092 0.666864 -0.969671
C15   C     C_3   0.182348 0.037174 0.349972 0.057089
C16   C     C_3   0.169324 0.041554 0.208817 -0.349712
C17   C     C_3   0.062959 0.964761 0.157878 -0.973693
C18   C     C_3   0.278693 0.347826 0.917436 0.062659
C19   C     C_3   0.322541 0.227288 0.842552 -0.339326
C20   C     C_3   0.259250 0.114014 0.885039 -0.981796
C21   C     C_3   0.661328 0.234500 0.064946 0.038630
C22   C     C_3   0.576094 0.138295 0.109945 -0.380252
C23   C     C_R   0.499716 0.257213 0.498873 0.894298
C24   C     C_3   0.618848 0.004632 0.057740 -0.949152
C25   C     C_3   0.888491 0.346545 0.364046 -0.623218
C26   C     C_3   0.112828 0.647684 0.642025 -0.616764
C27   C     C_R   0.500891 0.742233 0.502936 0.904561
C28   C     C_3   0.603960 0.024106 0.437109 -0.292928
C29   C     C_3   0.398388 0.973444 0.567064 -0.299363
C30   C     C_3   0.488038 0.956845 0.384154 -0.340834
C31   C     C_3   0.514274 0.040877 0.619980 -0.357812
C32   C     C_3   0.501089 0.876737 0.503560 -0.094365
H1    H     H_    0.475546 0.916785 0.290280 0.151873
H2    H     H_    0.753920 0.015404 0.737615 0.116229
H3    H     H_    0.937777 0.951546 0.520602 0.225023
H4    H     H_    0.829063 0.100400 0.546136 0.230915
H5    H     H_    0.962636 0.136913 0.738627 0.267613
H6    H     H_    0.061227 0.123453 0.605268 0.278474
H7    H     H_    0.075044 0.989617 0.711510 0.262969
H8    H     H_    0.083216 0.069535 0.385568 0.159704
H9    H     H_    0.212569 0.935513 0.382053 0.142973
H10   H     H_    0.142858 0.143008 0.176544 0.230322
H11   H     H_    0.266362 0.000738 0.172798 0.210958
H12   H     H_    0.528605 0.076888 0.714685 0.138371
H13   H     H_    0.088600 0.862404 0.187173 0.272627
H14   H     H_    0.056450 0.969739 0.055236 0.266944
H15   H     H_    0.964438 0.005144 0.191497 0.257011
H16   H     H_    0.170594 0.378799 0.895777 0.164793
H17   H     H_    0.289461 0.326447 0.018189 0.116144
H18   H     H_    0.294795 0.247056 0.742838 0.254262
H19   H     H_    0.431935 0.201663 0.855316 0.201492
H20   H     H_    0.298155 0.083992 0.979725 0.265698
H21   H     H_    0.284324 0.031224 0.822967 0.272700
H22   H     H_    0.149658 0.140425 0.884740 0.269282
H23   H     H_    0.689457 0.045437 0.386451 0.150685
H24   H     H_    0.766633 0.199663 0.095827 0.168465
H25   H     H_    0.658527 0.236583 0.962401 0.119267
H26   H     H_    0.584766 0.134694 0.211870 0.236102
H27   H     H_    0.470251 0.170589 0.082058 0.214263
H28   H     H_    0.612738 0.008292 0.955010 0.259692
H29   H     H_    0.551954 0.938210 0.087511 0.263599
H30   H     H_    0.722427 0.966604 0.091715 0.266857
H31   H     H_    0.802486 0.302558 0.326726 0.254297
H32   H     H_    0.934561 0.385969 0.285037 0.192007
H33   H     H_    0.959565 0.270341 0.413261 0.182104
H34   H     H_    0.313853 0.947910 0.616702 0.160488
H35   H     H_    0.199856 0.687562 0.683371 0.240914
H36   H     H_    0.042900 0.728187 0.597507 0.188553
H37   H     H_    0.065807 0.603394 0.717659 0.191014
H38   H     H_    0.676698 0.459983 0.905644 0.145490
H39   H     H_    0.325161 0.546413 0.097052 0.145241
H40   H     H_    0.884862 0.583847 0.571401 0.167651
H41   H     H_    0.114169 0.420987 0.423827 0.165238
H42   H     H_    0.882059 0.881087 0.738628 0.171619
N1    N     N_2   0.157310 0.552180 0.551120 -0.056977
N2    N     N_2   0.842690 0.447820 0.448880 -0.057308
O1    O     O_R   0.568940 0.489500 0.307530 -0.543168
O2    O     O_3   0.268554 0.123116 0.393441 -0.654364
O3    O     O_3   0.345318 0.449782 0.883156 -0.619139
O4    O     O_3   0.625763 0.357237 0.117943 -0.630327
O5    O     O_R   0.431060 0.510500 0.692470 -0.539633
O6    O     O_R   0.348880 0.522990 0.340350 -0.632870
O7    O     O_R   0.651120 0.477010 0.659650 -0.629301
O8    O     O_R   0.610000 0.297210 0.483560 -0.638829
O9    O     O_R   0.390000 0.702790 0.516440 -0.641887
O10   O     O_R   0.389940 0.330700 0.516390 -0.597723
O11   O     O_R   0.610060 0.669300 0.483610 -0.587735
O12   O     O_3   0.733356 0.869347 0.607085 -0.653768
Zn1   Zn    Zn3+2 0.646930 0.477640 0.478080 0.975737
Zn2   Zn    Zn3+2 0.353070 0.522360 0.521920 0.967713

loop_
_geom_bond_atom_site_label_1
_geom_bond_atom_site_label_2
_ccdc_geom_bond_type
C24   H29   S    
C1    O1    A    
C19   C20   S    
C7    C8    S    
C21   H25   S    
O1    Zn1   S    
C1    C5    S    
C26   H35   S    
C3    C28   S    
C17   H13   S    
C13   H3    S    
C29   C32   S    
C6    C12   S    
C15   O2    S    
C15   C16   S    
C18   C19   S    
C25   H31   S    
C27   O9    A    
N1    Zn2   S    
C14   H7    S    
C10   N2    D    
C18   O3    S    
C23   O10   A    
C8    O3    S    
C9    C10   S    
C4    C29   S    
N2    Zn1   S    
C3    C31   S    
C27   C32   S    
C13   C14   S    
C9    H41   S    
C28   H23   S    
O7    Zn1   S    
C31   H12   S    
C25   H33   S    
C17   H14   S    
C15   H9    S    
C13   H4    S    
C20   H22   S    
O10   Zn2   S    
C22   H27   S    
C5    C7    D    
C16   C17   S    
C6    C8    D    
C23   O8    A    
C1    O6    A    
C12   O7    A    
C2    C31   S    
C25   H32   S    
C2    C4    S    
C4    O2    S    
C14   H6    S    
C11   O12   S    
C24   H28   S    
C26   N1    S    
C27   O11   A    
C16   H11   S    
O5    Zn2   S    
O11   Zn1   S    
C22   C24   S    
O8    Zn1   S    
C16   H10   S    
C6    H38   S    
C24   H30   S    
C30   H1    S    
C3    O12   S    
C11   H2    S    
C17   H15   S    
C20   H21   S    
C11   H42   S    
C18   H16   S    
C22   H26   S    
C21   H24   S    
O9    Zn2   S    
O6    Zn2   S    
C20   H20   S    
C25   N2    S    
C26   H36   S    
C28   C30   S    
C5    H39   S    
C14   H5    S    
C30   C32   S    
C11   C13   S    
C19   H18   S    
C21   O4    S    
C12   O5    A    
C3    C32   S    
C15   H8    S    
C29   H34   S    
C19   H19   S    
C29   C31   S    
C2    C23   S    
C26   H37   S    
C2    C28   S    
C9    N1    D    
C21   C22   S    
C4    C30   S    
C18   H17   S    
C7    O4    S    
C10   H40   S    
