data_mof_unit_10282.cif
_audit_creation_date              2013-03-05T16:46:59-0500
_audit_creation_method            fapswitch 2.2
_symmetry_space_group_name_H-M    P1
_symmetry_Int_Tables_number       1
_space_group_crystal_system       triclinic
_cell_length_a                    14.900407
_cell_length_b                    9.173946
_cell_length_c                    8.104499
_cell_angle_alpha                 90.000381
_cell_angle_beta                  90.012997
_cell_angle_gamma                 87.796474
_cell_volume                      1107.02955476

loop_
_atom_site_label
_atom_site_type_symbol
_atom_site_description
_atom_site_fract_x
_atom_site_fract_y
_atom_site_fract_z
_atom_type_partial_charge
O1    O     O_R   0.500000 0.285350 0.636850 -0.614427
O2    O     O_R   0.500000 0.714650 0.363150 -0.615441
O3    O     O_R   0.500000 0.714650 0.636850 -0.614423
O4    O     O_R   0.500000 0.285350 0.363150 -0.615435
C1    C     C_R   0.500138 0.217556 0.500000 0.918076
C2    C     C_R   0.499862 0.782444 0.500000 0.918086
O5    O     O_R   0.367850 0.500000 0.636890 -0.614350
O6    O     O_R   0.632150 0.500000 0.363110 -0.614188
O7    O     O_R   0.632150 0.500000 0.636890 -0.614383
O8    O     O_R   0.367850 0.500000 0.363110 -0.614204
C3    C     C_R   0.326547 0.506889 0.499951 0.869200
C4    C     C_R   0.673452 0.493109 0.499989 0.869167
Zn1   Zn    Zn3+2 0.500000 0.500000 0.682780 1.011057
Zn2   Zn    Zn3+2 0.500000 0.500000 0.317220 1.009364
N1    N     N_1   0.500000 0.500000 0.073640 -0.028882
N2    N     N_1   0.500000 0.500000 0.926360 -0.028552
C5    C     C_R   0.809271 0.624753 0.517261 -0.154019
C6    C     C_R   0.190745 0.375206 0.517234 -0.153923
C7    C     C_R   0.817969 0.362352 0.477873 -0.220623
C8    C     C_R   0.182011 0.637576 0.477604 -0.220444
C9    C     C_R   0.768590 0.492745 0.499518 -0.060815
C10   C     C_R   0.231411 0.507217 0.499389 -0.061069
C11   C     C_R   0.911587 0.363625 0.476384 -0.032290
C12   C     C_R   0.088400 0.636270 0.476242 -0.032249
C13   C     C_R   0.901965 0.628857 0.508409 0.020535
C14   C     C_R   0.098047 0.371076 0.508385 0.020497
C15   C     C_R   0.953290 0.498077 0.491380 -0.067647
C16   C     C_R   0.046707 0.501832 0.491333 -0.067795
C17   C     C_R   0.965262 0.234244 0.467767 0.327773
C18   C     C_R   0.034747 0.765650 0.467710 0.327628
C19   C     C_R   0.944019 0.761409 0.513699 0.419829
C20   C     C_R   0.056005 0.238525 0.513719 0.420026
C21   C     C_1   0.500045 0.064677 0.499999 -0.170885
C22   C     C_1   0.499955 0.935323 0.500000 -0.170873
H1    H     H_    0.767951 0.724020 0.531235 0.180280
H2    H     H_    0.232077 0.275958 0.531284 0.180327
H3    H     H_    0.782857 0.261261 0.470744 0.147057
H4    H     H_    0.217087 0.738693 0.470279 0.147633
O9    O     O_3   0.934796 0.108186 0.399817 -0.675199
H5    H     H_    0.882323 0.131751 0.328247 0.345350
O10   O     O_3   0.065298 0.891705 0.399967 -0.675242
H6    H     H_    0.117200 0.867876 0.327246 0.345327
O11   O     O_3   0.895153 0.883707 0.562826 -0.726404
H7    H     H_    0.935681 0.941856 0.631005 0.356273
O12   O     O_3   0.104900 0.116248 0.562860 -0.725967
H8    H     H_    0.064404 0.058112 0.631086 0.356246

loop_
_geom_bond_atom_site_label_1
_geom_bond_atom_site_label_2
_geom_bond_distance
_ccdc_geom_bond_type
O3    Zn1   2.004063 S    
C13   C19   1.389891 A    
C7    C11   1.395493 A    
O11   H7    0.989533 S    
C18   O10   1.373529 S    
C14   C20   1.389814 A    
C7    H3    1.083709 S    
C11   C15   1.407560 A    
C13   C15   1.404577 A    
C8    H4    1.083743 S    
C20   O12   1.372870 S    
C3    C10   1.417463 S    
C14   C16   1.404499 A    
C6    C14   1.385056 A    
O6    C4    1.268889 A    
O3    C2    1.271545 A    
C5    C13   1.385018 A    
C17   O9    1.373672 S    
C21   C22   1.186734 T    
O12   H8    0.989543 S    
O5    C3    1.269309 A    
O2    C2    1.271540 A    
C2    C22   1.402558 S    
C19   O11   1.372868 S    
O1    C1    1.271542 A    
C11   C17   1.407249 A    
C7    C9    1.391201 A    
C8    C10   1.391192 A    
C17   C20   1.404386 A    
O4    Zn2   2.004064 S    
C18   C19   1.404377 A    
O2    Zn2   2.004058 S    
O7    C4    1.269282 A    
C12   C18   1.407019 A    
O1    Zn1   2.004059 S    
O8    C3    1.268866 A    
N1    N2    1.193630 T    
C12   C16   1.407463 A    
O5    Zn1   2.003821 S    
O10   H6    0.990168 S    
Zn1   N2    1.974094 S    
O9    H5    0.990601 S    
O7    Zn1   2.003986 S    
Zn2   N1    1.974094 S    
O6    Zn2   2.003820 S    
C5    H1    1.085410 S    
C6    C10   1.382470 A    
C6    H2    1.085409 S    
C4    C9    1.417470 S    
C5    C9    1.382437 A    
C8    C12   1.395404 A    
O8    Zn2   2.003987 S    
O4    C1    1.271543 A    
C15   C16   1.393701 A    
C1    C21   1.402558 S    
