data_mof_unit_59987.cif
_audit_creation_date              2012-10-26T18:44:12-0400
_audit_creation_method            fapswitch 2.2
_symmetry_space_group_name_H-M    P1
_symmetry_Int_Tables_number       1
_space_group_crystal_system       triclinic
_cell_length_a                    19.314929
_cell_length_b                    9.065088
_cell_length_c                    7.883547
_cell_angle_alpha                 90.037163
_cell_angle_beta                  90.876079
_cell_angle_gamma                 89.804476
_cell_volume                      1380.17267511

loop_
_atom_site_label
_atom_site_type_symbol
_atom_type_description
_atom_site_fract_x
_atom_site_fract_y
_atom_site_fract_z
_atom_type_partial_charge
C1    C     C_R   0.499420 0.220463 0.499922 0.535358
C2    C     C_R   0.253373 0.562814 0.340288 0.006823
C3    C     C_R   0.183203 0.596128 0.636788 0.005809
C4    C     C_R   0.815566 0.544488 0.356227 0.004897
C5    C     C_R   0.822886 0.430223 0.638685 0.010186
C6    C     C_R   0.180085 0.546387 0.336761 0.010410
C7    C     C_R   0.144575 0.571256 0.488532 0.034491
C8    C     C_R   0.854431 0.506696 0.503191 0.027772
C9    C     C_R   0.289679 0.530906 0.494732 0.007279
C10   C     C_R   0.710319 0.471692 0.497412 0.005777
C11   C     C_R   0.929931 0.525272 0.502214 0.324380
C12   C     C_R   0.500164 0.779554 0.500046 0.545053
C13   C     C_R   0.068974 0.556013 0.498085 0.325045
C14   C     C_3   0.275604 0.466755 0.810339 -0.267684
C15   C     C_3   0.286468 0.300150 0.792158 -0.416925
C16   C     C_3   0.716518 0.442568 0.177154 -0.250265
C17   C     C_3   0.695496 0.279131 0.190558 -0.414015
C18   C     C_3   0.713889 0.312300 0.762407 -0.275503
C19   C     C_3   0.684090 0.173876 0.678202 -0.426267
C20   C     C_3   0.288883 0.642244 0.196456 -0.261827
C21   C     C_3   0.318518 0.791034 0.253284 -0.412344
C22   C     C_3   0.157755 0.705812 0.766497 -0.276054
C23   C     C_R   0.366701 0.507140 0.498687 0.527885
C24   C     C_3   0.154940 0.862173 0.693325 -0.420740
C25   C     C_3   0.846779 0.640308 0.217792 -0.269887
C26   C     C_3   0.840731 0.803487 0.263974 -0.425160
C27   C     C_3   0.867992 0.373227 0.785963 -0.265441
C28   C     C_3   0.886696 0.210171 0.764647 -0.418215
C29   C     C_3   0.140935 0.498413 0.177603 -0.266683
C30   C     C_3   0.154474 0.335653 0.140333 -0.432532
C31   C     C_R   0.633065 0.489447 0.500389 0.531479
C32   C     C_1   0.499593 0.065527 0.499898 -0.068716
C33   C     C_1   0.499869 0.934496 0.500029 -0.064953
C34   C     C_R   0.250799 0.536592 0.646077 0.000028
C35   C     C_R   0.745923 0.499728 0.345300 0.011862
C36   C     C_R   0.749437 0.411902 0.635439 0.000879
Cu1   Cu    Cu3+1 0.500000 0.500000 0.669080 0.975732
Cu2   Cu    Cu3+1 0.500000 0.500000 0.330920 0.972690
H1    H     H_    0.236861 0.246308 0.755350 0.141000
H2    H     H_    0.755308 0.445937 0.077149 0.110046
H3    H     H_    0.663920 0.098600 0.776795 0.140024
H4    H     H_    0.640821 0.201786 0.590515 0.154917
H5    H     H_    0.724850 0.114944 0.606624 0.143906
H6    H     H_    0.749377 0.271965 0.862434 0.140156
H7    H     H_    0.673046 0.373443 0.829500 0.175036
H8    H     H_    0.358574 0.778088 0.354117 0.168008
H9    H     H_    0.342479 0.846900 0.143547 0.140659
H10   H     H_    0.276446 0.862671 0.301990 0.137027
H11   H     H_    0.328834 0.572749 0.137414 0.173509
H12   H     H_    0.325675 0.273204 0.695656 0.170757
H13   H     H_    0.251992 0.670114 0.095654 0.115165
H14   H     H_    0.207578 0.897254 0.655460 0.140770
H15   H     H_    0.120016 0.869474 0.580855 0.182918
H16   H     H_    0.135930 0.939914 0.791235 0.137985
H17   H     H_    0.106379 0.673106 0.815052 0.160570
H18   H     H_    0.194569 0.713245 0.873059 0.123794
H19   H     H_    0.785322 0.836002 0.270507 0.144167
H20   H     H_    0.866040 0.827038 0.388146 0.181698
H21   H     H_    0.865857 0.871457 0.165399 0.139438
H22   H     H_    0.901815 0.610906 0.196598 0.159326
H23   H     H_    0.304433 0.253689 0.915526 0.134884
H24   H     H_    0.820739 0.627630 0.092969 0.129609
H25   H     H_    0.839969 0.139662 0.761506 0.145142
H26   H     H_    0.915258 0.192357 0.645386 0.186904
H27   H     H_    0.920234 0.174335 0.872712 0.140158
H28   H     H_    0.916807 0.436554 0.799384 0.160127
H29   H     H_    0.843127 0.392000 0.909224 0.118251
H30   H     H_    0.210878 0.313033 0.133551 0.148236
H31   H     H_    0.132393 0.266110 0.241909 0.174141
H32   H     H_    0.129656 0.305061 0.017327 0.141921
H33   H     H_    0.084257 0.514506 0.186654 0.167145
H34   H     H_    0.322496 0.521972 0.860332 0.171456
H35   H     H_    0.154090 0.566630 0.069161 0.112322
H36   H     H_    0.236033 0.479589 0.907443 0.132660
H37   H     H_    0.742488 0.208870 0.204214 0.136074
H38   H     H_    0.661621 0.257112 0.299280 0.165199
H39   H     H_    0.665818 0.243912 0.076634 0.133358
H40   H     H_    0.673355 0.512432 0.129024 0.178605
N1    N     N_1   0.500000 0.500000 0.076820 -0.096176
N2    N     N_1   0.500000 0.500000 0.923180 -0.095825
N3    N     N_R   0.027616 0.674055 0.528210 -0.250752
N4    N     N_R   0.971241 0.407323 0.472412 -0.246921
N5    N     N_R   0.959139 0.658825 0.531146 -0.250528
N6    N     N_R   0.039635 0.422266 0.471151 -0.245541
O1    O     O_R   0.500000 0.288390 0.642760 -0.496032
O2    O     O_R   0.500000 0.711610 0.357240 -0.495674
O3    O     O_R   0.500000 0.711610 0.642760 -0.490101
O4    O     O_R   0.500000 0.288390 0.357240 -0.494816
O5    O     O_R   0.400140 0.500000 0.642830 -0.506563
O6    O     O_R   0.599860 0.500000 0.357170 -0.505139
O7    O     O_R   0.599860 0.500000 0.642830 -0.506116
O8    O     O_R   0.400140 0.500000 0.357170 -0.507507

loop_
_geom_bond_atom_site_label_1
_geom_bond_atom_site_label_2
_ccdc_geom_bond_type
C24   H14   S    
C13   N3    A    
C4    C8    A    
C4    C25   S    
C13   N6    A    
C29   C30   S    
Cu2   O2    S    
C14   H36   S    
Cu1   O1    S    
Cu1   Cu2   S    
C20   H13   S    
C3    C7    A    
C16   C35   S    
C29   H35   S    
Cu2   N1    S    
C24   H16   S    
C5    C36   A    
Cu2   O8    S    
C18   C19   S    
C15   H12   S    
N3    N5    A    
C5    C27   S    
C10   C31   S    
C16   C17   S    
C17   H38   S    
C23   O5    A    
C10   C35   A    
C25   H22   S    
C26   H21   S    
C19   H4    S    
C21   H10   S    
C1    O4    A    
C4    C35   A    
C2    C6    A    
C30   H32   S    
C19   H5    S    
C11   N4    A    
C1    O1    A    
Cu1   N2    S    
Cu1   O7    S    
C2    C20   S    
C9    C23   S    
C22   H18   S    
C3    C34   A    
C11   N5    A    
C24   H15   S    
C1    C32   S    
Cu2   O4    S    
C20   H11   S    
C18   H6    S    
C31   O6    A    
C17   H39   S    
C15   H23   S    
C26   H20   S    
C15   H1    S    
C22   H17   S    
C16   H2    S    
C28   H26   S    
N4    N6    A    
C9    C34   A    
C22   C24   S    
C18   H7    S    
C30   H31   S    
C21   H8    S    
C12   O3    A    
C14   C15   S    
C14   H34   S    
Cu1   O3    S    
C14   C34   S    
C5    C8    A    
C6    C7    A    
Cu1   O5    S    
Cu2   O6    S    
C31   O7    A    
C12   O2    A    
C32   C33   T    
C28   H27   S    
C25   C26   S    
C27   H28   S    
C8    C11   S    
C16   H40   S    
C25   H24   S    
C26   H19   S    
C27   H29   S    
N1    N2    T    
C28   H25   S    
C7    C13   S    
C6    C29   S    
C20   C21   S    
C27   C28   S    
C17   H37   S    
C23   O8    A    
C3    C22   S    
C10   C36   A    
C21   H9    S    
C12   C33   S    
C2    C9    A    
C18   C36   S    
C30   H30   S    
C19   H3    S    
C29   H33   S    
