data_mof_unit_61582.cif
_audit_creation_date              2012-12-10T19:32:00-0500
_audit_creation_method            fapswitch 2.2
_symmetry_space_group_name_H-M    P1
_symmetry_Int_Tables_number       1
_space_group_crystal_system       triclinic
_cell_length_a                    18.770811
_cell_length_b                    18.706942
_cell_length_c                    18.672657
_cell_angle_alpha                 109.26764
_cell_angle_beta                  109.625837
_cell_angle_gamma                 109.505134
_cell_volume                      5048.32626303

loop_
_atom_site_label
_atom_site_type_symbol
_atom_type_description
_atom_site_fract_x
_atom_site_fract_y
_atom_site_fract_z
_atom_type_partial_charge
C1    C     C_R   0.380039 0.380098 0.499960 0.885161
C2    C     C_3   0.808966 0.497412 0.805960 0.039228
C3    C     C_3   0.833387 0.500963 0.734572 0.267660
C4    C     C_3   0.804494 0.580955 0.849131 -0.599582
C5    C     C_R   0.320122 0.245308 0.503676 0.126243
C6    C     C_R   0.313159 0.314952 0.498781 -0.097018
C7    C     C_R   0.238981 0.320647 0.494032 -0.218882
C8    C     C_R   0.173868 0.255555 0.493395 -0.211639
C9    C     C_R   0.184671 0.186665 0.500255 -0.100127
C10   C     C_R   0.259342 0.184722 0.506148 0.133016
C11   C     C_3   0.306635 0.135170 0.513589 -0.480135
C12   C     C_R   0.622644 0.502200 0.620934 0.876722
C13   C     C_3   0.377016 0.205467 0.511737 -0.490855
C14   C     C_R   0.243078 0.424675 0.241109 0.129426
C15   C     C_R   0.315137 0.501464 0.313363 -0.095994
C16   C     C_R   0.322149 0.581465 0.321573 -0.213553
C17   C     C_R   0.257198 0.581500 0.256561 -0.210592
C18   C     C_R   0.184057 0.501540 0.185089 -0.092330
C19   C     C_R   0.179329 0.424715 0.180629 0.129327
C20   C     C_3   0.126035 0.327579 0.127587 -0.485802
C21   C     C_3   0.198747 0.327540 0.197669 -0.486112
C22   C     C_R   0.763824 0.687474 0.515640 0.088210
C23   C     C_R   0.619505 0.620244 0.499523 0.872280
C24   C     C_R   0.686275 0.687506 0.501868 -0.078498
C25   C     C_R   0.677910 0.758979 0.500836 -0.211160
C26   C     C_R   0.742147 0.823271 0.500683 -0.216662
C27   C     C_R   0.815417 0.816832 0.504315 -0.089256
C28   C     C_R   0.828309 0.752176 0.517844 0.130951
C29   C     C_3   0.850259 0.689729 0.469208 -0.463731
C30   C     C_3   0.778799 0.618222 0.466614 -0.462094
C31   C     C_R   0.998003 0.380089 0.878131 0.884956
C32   C     C_R   0.876626 0.498019 0.874594 0.891601
C33   C     C_R   0.997558 0.620205 0.117526 0.879435
C34   C     C_R   0.379529 0.499950 0.379190 0.879503
C35   C     C_R   0.117875 0.500065 0.118060 0.876805
C36   C     C_R   0.999739 0.120048 0.619677 0.880799
C37   C     C_R   0.119784 0.120095 0.499992 0.879248
C38   C     C_R   0.000454 0.880146 0.380150 0.875015
C39   C     C_R   0.880083 0.879779 0.500103 0.873265
C40   C     C_R   0.923838 0.245130 0.740151 0.122862
C41   C     C_R   0.000180 0.314883 0.814707 -0.093899
C42   C     C_R   0.080170 0.320441 0.825824 -0.221202
C43   C     C_R   0.080560 0.255252 0.761842 -0.212885
C44   C     C_R   0.001124 0.186397 0.685912 -0.096024
C45   C     C_3   0.646908 0.418405 0.693063 -0.497474
C46   C     C_R   0.924394 0.184430 0.677600 0.132641
C47   C     C_3   0.827729 0.135246 0.619879 -0.505700
C48   C     C_3   0.827240 0.205699 0.691412 -0.440902
C49   C     C_R   0.923641 0.691742 0.169194 -0.002832
C50   C     C_R   0.999234 0.687020 0.183906 -0.061102
C51   C     C_R   0.079236 0.754389 0.259166 -0.184248
C52   C     C_R   0.080433 0.818958 0.324569 -0.206176
C53   C     C_R   0.001934 0.817329 0.312603 -0.048742
C54   C     C_R   0.925417 0.757494 0.232109 0.047717
C55   C     C_3   0.835471 0.700756 0.212304 -0.524908
C56   C     C_3   0.716699 0.416186 0.763972 0.342784
C57   C     C_3   0.833382 0.626535 0.143173 0.373173
C58   C     C_3   0.760905 0.500016 0.663484 -0.368298
C59   C     C_3   0.734305 0.583589 0.779680 -0.401130
C60   C     C_3   0.690122 0.501667 0.688381 0.053379
H1    H     H_    0.613863 0.359080 0.627884 0.186445
H2    H     H_    0.868748 0.640661 0.880379 0.202433
H3    H     H_    0.789687 0.557756 0.655926 0.117856
H4    H     H_    0.894874 0.563782 0.764968 0.111173
H5    H     H_    0.231097 0.374178 0.489820 0.160398
H6    H     H_    0.116452 0.259661 0.488959 0.164507
H7    H     H_    0.329216 0.136661 0.577514 0.214265
H8    H     H_    0.270746 0.069343 0.454589 0.196301
H9    H     H_    0.440006 0.247967 0.574813 0.201500
H10   H     H_    0.382264 0.180192 0.451971 0.212536
H11   H     H_    0.377697 0.643134 0.377075 0.155735
H12   H     H_    0.595189 0.418310 0.709713 0.150343
H13   H     H_    0.263363 0.643194 0.262624 0.155563
H14   H     H_    0.062911 0.301991 0.126663 0.215239
H15   H     H_    0.121553 0.301974 0.062443 0.201264
H16   H     H_    0.177804 0.302596 0.237697 0.202869
H17   H     H_    0.235808 0.301244 0.172845 0.212935
H18   H     H_    0.620098 0.762584 0.495677 0.152181
H19   H     H_    0.733799 0.876336 0.495659 0.155633
H20   H     H_    0.835504 0.682388 0.403483 0.203359
H21   H     H_    0.916818 0.703030 0.510453 0.213147
H22   H     H_    0.722422 0.569387 0.399323 0.221171
H23   H     H_    0.699228 0.420979 0.816136 0.153483
H24   H     H_    0.804095 0.590203 0.506314 0.199681
H25   H     H_    0.141385 0.373993 0.883661 0.159018
H26   H     H_    0.142174 0.259354 0.770804 0.163087
H27   H     H_    0.807530 0.136895 0.557521 0.218810
H28   H     H_    0.797222 0.069389 0.612927 0.198294
H29   H     H_    0.807557 0.248431 0.670485 0.235375
H30   H     H_    0.795819 0.180545 0.725400 0.217858
H31   H     H_    0.139566 0.754502 0.269028 0.143661
H32   H     H_    0.141635 0.868524 0.384611 0.152116
H33   H     H_    0.835514 0.692755 0.268766 0.187978
H34   H     H_    0.789371 0.721897 0.184583 0.203278
H35   H     H_    0.730968 0.440663 0.599192 0.219519
H36   H     H_    0.764688 0.644161 0.776887 0.185301
H37   H     H_    0.684946 0.586000 0.799295 0.207056
H38   H     H_    0.788758 0.581986 0.901763 0.209115
O1    O     O_R   0.408690 0.356690 0.448570 -0.621957
O2    O     O_R   0.049530 0.460080 0.906210 -0.629286
O3    O     O_R   0.853510 0.448360 0.905260 -0.587047
O4    O     O_R   0.956950 0.551730 0.905200 -0.656012
O5    O     O_R   0.945130 0.540000 0.088470 -0.613746
O6    O     O_R   0.048570 0.643360 0.088400 -0.628750
O7    O     O_R   0.037700 0.448350 0.089480 -0.618257
O8    O     O_R   0.141150 0.551720 0.089410 -0.628066
O9    O     O_R   0.051500 0.091600 0.643170 -0.623786
O10   O     O_R   0.947510 0.091650 0.539220 -0.622732
O11   O     O_R   0.143610 0.091630 0.552030 -0.624727
O12   O     O_R   0.408080 0.460090 0.551420 -0.620037
O13   O     O_R   0.039620 0.091690 0.448080 -0.622793
O14   O     O_R   0.052490 0.908450 0.460880 -0.623589
O15   O     O_R   0.948500 0.908500 0.356930 -0.618389
O16   O     O_R   0.960380 0.908410 0.552020 -0.617075
O17   O     O_R   0.856390 0.908470 0.448070 -0.624247
O18   O     O_R   0.592400 0.448300 0.540680 -0.633742
O19   O     O_R   0.591790 0.551700 0.643540 -0.628367
O20   O     O_R   0.591920 0.539910 0.448580 -0.623056
O21   O     O_R   0.591310 0.643310 0.551430 -0.625977
O22   O     O_R   0.408210 0.448300 0.356460 -0.620151
O23   O     O_R   0.407600 0.551700 0.459320 -0.624808
O24   O     O_R   0.946090 0.356720 0.906270 -0.614067
Zn1   Zn    Zn3+2 0.500410 0.430960 0.431320 0.945897
Zn2   Zn    Zn3+2 0.499590 0.569040 0.568680 0.950534
Zn3   Zn    Zn3+2 0.928260 0.431020 0.997380 0.993900
Zn4   Zn    Zn3+2 0.066400 0.569060 0.997290 0.943221
Zn5   Zn    Zn3+2 0.069430 0.000010 0.569450 0.955066
Zn6   Zn    Zn3+2 0.930570 0.000090 0.430650 0.953651
O25   O     O_3   0.716240 0.336342 0.731602 -0.754249
H39   H     H_    0.713824 0.321215 0.674428 0.372162
C61   C     C_2   0.827927 0.552838 0.161797 0.481702
H40   H     H_    0.778505 0.485872 0.111101 0.081036
O26   O     O_2   0.878399 0.567287 0.233257 -0.602085
O27   O     O_3   0.770352 0.595444 0.056641 -0.811540
H41   H     H_    0.779404 0.645786 0.046344 0.333334
O28   O     O_3   0.845545 0.430728 0.696225 -0.791347
H42   H     H_    0.906289 0.447234 0.735295 0.337035

loop_
_geom_bond_atom_site_label_1
_geom_bond_atom_site_label_2
_ccdc_geom_bond_type
C45   C60   S    
C8    H6    S    
O18   Zn1   S    
C4    H38   S    
C36   O10   A    
C33   O6    A    
C41   C42   A    
C19   C20   S    
C32   O3    A    
C55   H33   S    
C1    O1    A    
C23   O20   A    
C7    C8    A    
O15   Zn6   S    
C53   C54   A    
C52   C53   A    
C40   C46   A    
C38   C53   S    
C21   H16   S    
C26   C27   A    
O2    Zn4   S    
C14   C21   S    
C28   C29   S    
O19   Zn2   S    
C18   C19   A    
C23   O21   A    
C5    C6    A    
C13   H10   S    
C58   C60   S    
C15   C16   A    
C30   H24   S    
C4    H2    S    
C49   C57   S    
C2    C32   S    
C3    O28   S    
O23   Zn2   S    
C51   H31   S    
C54   C55   S    
O11   Zn5   S    
C45   C56   S    
C44   C46   A    
C8    C9    A    
O14   Zn5   S    
O3    Zn3   S    
C23   C24   S    
C31   C41   S    
C18   C35   S    
C15   C34   S    
C37   O11   A    
C56   O25   S    
O22   Zn1   S    
O12   Zn2   S    
C59   C60   S    
C48   H30   S    
C36   O9    A    
C17   H13   S    
C16   H11   S    
C55   H34   S    
C11   H7    S    
C50   C51   A    
C34   O22   A    
C51   C52   A    
C58   H35   S    
C24   C25   A    
C27   C39   S    
C38   O15   A    
C16   C17   A    
C61   O26   D    
C33   C50   S    
O21   Zn2   S    
O17   Zn6   S    
C25   H18   S    
C20   H15   S    
C47   H27   S    
C30   H22   S    
C2    C4    S    
C43   C44   A    
C29   H21   S    
C29   C30   S    
C35   O7    A    
C1    O12   A    
C7    H5    S    
C47   C48   S    
C39   O16   A    
C9    C37   S    
C17   C18   A    
C20   H14   S    
C42   H25   S    
C31   O2    A    
O10   Zn6   S    
C6    C7    A    
C40   C41   A    
C34   O23   A    
C39   O17   A    
C48   H29   S    
C55   C57   S    
C59   H37   S    
C32   O4    A    
C57   O27   S    
C52   H32   S    
C59   H36   S    
C38   O14   A    
C61   H40   S    
O13   Zn6   S    
C11   H8    S    
C56   H23   S    
O1    Zn1   S    
O25   H39   S    
C9    C10   A    
C58   H3    S    
C40   C48   S    
O8    Zn4   S    
C46   C47   S    
C22   C30   S    
C33   O5    A    
C43   H26   S    
C5    C13   S    
C14   C19   A    
C57   C61   S    
C31   O24   A    
O28   H42   S    
O4    Zn4   S    
O27   H41   S    
C1    C6    S    
C26   H19   S    
O7    Zn3   S    
C47   H28   S    
O24   Zn3   S    
C2    C3    S    
C25   C26   A    
O9    Zn5   S    
C5    C10   A    
C35   O8    A    
C2    C56   S    
O16   Zn5   S    
C11   C13   S    
C29   H20   S    
C13   H9    S    
C4    C59   S    
C45   H1    S    
C22   C24   A    
O20   Zn1   S    
C3    H4    S    
O5    Zn3   S    
C37   O13   A    
C36   C44   S    
C10   C11   S    
C12   O19   A    
C12   C60   S    
C3    C58   S    
O6    Zn4   S    
C20   C21   S    
C49   C50   A    
C42   C43   A    
C21   H17   S    
C27   C28   A    
C14   C15   A    
C22   C28   A    
C12   O18   A    
C49   C54   A    
C45   H12   S    
