data_mof_unit_14226.cif
_audit_creation_date              2012-12-10T16:51:34-0500
_audit_creation_method            fapswitch 2.2
_symmetry_space_group_name_H-M    P1
_symmetry_Int_Tables_number       1
_space_group_crystal_system       triclinic
_cell_length_a                    7.823166
_cell_length_b                    8.571781
_cell_length_c                    12.195704
_cell_angle_alpha                 92.365449
_cell_angle_beta                  101.720387
_cell_angle_gamma                 94.152548
_cell_volume                      797.358459034

loop_
_atom_site_label
_atom_site_type_symbol
_atom_type_description
_atom_site_fract_x
_atom_site_fract_y
_atom_site_fract_z
_atom_type_partial_charge
C1    C     C_R   0.044639 0.794716 0.497325 0.972658
C2    C     C_R   0.161534 0.509607 0.831013 -0.072531
C3    C     C_2   0.067953 0.958448 0.495982 -0.378877
C4    C     C_R   0.107087 0.505630 0.709964 0.860405
C5    C     C_2   0.932471 0.041632 0.504742 -0.363129
C6    C     C_R   0.955491 0.205306 0.502901 0.959037
C7    C     C_R   0.891822 0.488795 0.289741 0.886474
C8    C     C_R   0.801088 0.272993 0.010099 -0.130133
C9    C     C_R   0.828825 0.454226 0.170551 -0.069087
C10   C     C_R   0.079963 0.607527 0.895546 -0.208448
C11   C     C_R   0.143231 0.630151 0.009888 -0.179403
C12   C     C_R   0.389631 0.477008 0.992617 0.006690
C13   C     C_R   0.295619 0.563973 0.060303 -0.013060
C14   C     C_2   0.334587 0.568420 0.183814 0.880934
C15   C     C_R   0.306728 0.431704 0.881445 0.024181
C16   C     C_R   0.563368 0.436032 0.029121 0.022043
C17   C     C_R   0.632441 0.319668 0.967860 0.115186
C18   C     C_R   0.532243 0.252550 0.866321 0.418044
C19   C     C_R   0.371361 0.311069 0.822905 -0.305135
C20   C     C_R   0.673898 0.514283 0.122028 -0.176569
C21   C     C_R   0.896445 0.336373 0.113340 -0.229208
H1    H     H_    0.018131 0.288867 0.150441 0.185007
H2    H     H_    0.195617 0.009936 0.487701 0.182069
H3    H     H_    0.510218 0.102459 0.738727 0.332962
H4    H     H_    0.354593 0.696213 0.329039 0.360462
H5    H     H_    0.804853 0.990150 0.513107 0.185286
H6    H     H_    0.471268 0.366172 0.424938 0.238649
H7    H     H_    0.529671 0.630095 0.578866 0.190063
H8    H     H_    0.856193 0.183099 0.966271 0.193221
H9    H     H_    0.637616 0.617933 0.162172 0.145441
H10   H     H_    0.966671 0.666551 0.857472 0.171145
H11   H     H_    0.071221 0.697776 0.059424 0.176526
H12   H     H_    0.295865 0.259977 0.743623 0.162006
N1    N     N_2   0.434800 0.456690 0.470850 -0.158185
N2    N     N_2   0.565200 0.543310 0.529150 -0.177769
O1    O     O_R   0.893060 0.738880 0.507150 -0.614550
O2    O     O_2   0.379895 0.451291 0.231679 -0.637341
O3    O     O_R   0.317147 0.705573 0.245260 -0.809144
O4    O     O_R   0.172250 0.711130 0.488470 -0.635340
O5    O     O_R   0.944700 0.520730 0.667600 -0.610487
O6    O     O_R   0.223890 0.492980 0.648920 -0.622254
O7    O     O_R   0.827750 0.288870 0.511530 -0.617868
O8    O     O_R   0.106940 0.261120 0.492850 -0.619397
O9    O     O_R   0.776110 0.507020 0.351080 -0.591405
O10   O     O_R   0.055300 0.479270 0.332400 -0.590958
O11   O     O_3   0.596238 0.134974 0.809008 -0.785471
Zn1   Zn    Zn3+2 0.813580 0.518530 0.512470 0.967857
Zn2   Zn    Zn3+2 0.186420 0.481470 0.487530 0.959402

loop_
_geom_bond_atom_site_label_1
_geom_bond_atom_site_label_2
_ccdc_geom_bond_type
O5    Zn1   S    
C2    C4    S    
O9    Zn1   S    
C13   C14   S    
H4    O3    S    
C14   O3    S    
O8    Zn2   S    
O4    Zn2   S    
C9    C20   A    
C3    H2    S    
C8    C17   A    
C12   C15   A    
C16   C20   A    
N2    Zn1   S    
C8    C21   A    
C10   C11   A    
H3    O11   S    
C20   H9    S    
C7    O9    A    
C14   O2    D    
C15   C19   A    
C2    C15   A    
C11   C13   A    
C9    C21   A    
C12   C16   A    
C8    H8    S    
C7    O10   A    
O6    Zn2   S    
C11   H11   S    
C17   C18   A    
O7    Zn1   S    
H6    N1    S    
C19   H12   S    
C5    C6    S    
N1    Zn2   S    
C4    O6    A    
C1    O4    A    
C5    H5    S    
C2    C10   A    
C18   O11   S    
C12   C13   A    
C1    O1    A    
O1    Zn1   S    
N1    N2    D    
C6    O7    A    
O10   Zn2   S    
C7    C9    S    
C6    O8    A    
C18   C19   A    
C3    C5    D    
C21   H1    S    
C10   H10   S    
C4    O5    A    
H7    N2    S    
C16   C17   A    
C1    C3    S    
