data_mof_unit_39801.cif
_audit_creation_date              2012-12-10T16:50:13-0500
_audit_creation_method            fapswitch 2.2
_symmetry_space_group_name_H-M    P1
_symmetry_Int_Tables_number       1
_space_group_crystal_system       triclinic
_cell_length_a                    23.238489
_cell_length_b                    8.752431
_cell_length_c                    7.469308
_cell_angle_alpha                 103.283082
_cell_angle_beta                  93.961694
_cell_angle_gamma                 93.954174
_cell_volume                      1469.38912923

loop_
_atom_site_label
_atom_site_type_symbol
_atom_type_description
_atom_site_fract_x
_atom_site_fract_y
_atom_site_fract_z
_atom_type_partial_charge
C1    C     C_R   0.492205 0.199488 0.453713 0.825481
C2    C     C_R   0.495476 0.798127 0.546191 0.796446
C3    C     C_R   0.253709 0.693572 0.406766 0.547404
C4    C     C_R   0.767145 0.439177 0.515585 0.586045
C5    C     C_R   0.310020 0.647830 0.404815 0.444063
C6    C     C_R   0.707234 0.414756 0.517420 0.485244
C7    C     C_R   0.328899 0.542489 0.509717 -0.336169
C8    C     C_R   0.671827 0.533974 0.496235 -0.325480
C9    C     C_R   0.288626 0.481640 0.616772 -0.081871
C10   C     C_R   0.696886 0.680738 0.475510 -0.100017
C11   C     C_R   0.232154 0.530280 0.618087 0.600957
C12   C     C_R   0.757324 0.703618 0.474801 0.618451
C13   C     C_R   0.214300 0.633609 0.511668 -0.044475
C14   C     C_R   0.792213 0.583288 0.493980 -0.041856
C15   C     C_2   0.477042 0.030201 0.425708 -0.051721
C16   C     C_2   0.481193 0.960653 0.570998 -0.066375
C17   C     C_R   0.390466 0.504268 0.502845 0.849369
C18   C     C_R   0.609055 0.505762 0.498345 0.929782
C19   C     C_R   0.886627 0.678932 0.652193 0.745078
C20   C     C_R   0.121132 0.604823 0.335010 0.712441
C21   C     C_R   0.878241 0.560259 0.328657 0.705738
C22   C     C_R   0.129626 0.732772 0.655832 0.707857
C23   C     C_R   0.938736 0.579054 0.323520 -0.148881
C24   C     C_R   0.068972 0.730452 0.656666 -0.150991
C25   C     C_R   0.973316 0.648744 0.489126 -0.083399
C26   C     C_R   0.034343 0.662639 0.490745 -0.084217
C27   C     C_R   0.947068 0.701239 0.654161 -0.081184
C28   C     C_R   0.060637 0.604546 0.327330 -0.085639
C29   C     C_R   0.965693 0.528161 0.159304 0.638675
C30   C     C_R   0.041941 0.787585 0.819322 0.640117
C31   C     C_R   0.025924 0.540527 0.162023 -0.176969
C32   C     C_R   0.981726 0.772288 0.817518 -0.178167
Cu1   Cu    Cu3+1 0.506340 0.517380 0.684380 1.097125
Cu2   Cu    Cu3+1 0.493660 0.482620 0.315620 1.102807
H1    H     H_    0.045262 0.497117 0.034228 0.217635
H2    H     H_    0.962405 0.814328 0.945676 0.212442
N1    N     N_R   0.853796 0.608082 0.491624 -0.427047
N2    N     N_R   0.154220 0.664333 0.498688 -0.432158
N3    N     N_2   0.484110 0.456420 0.038520 0.223624
N4    N     N_2   0.515890 0.543580 0.961480 0.235651
O1    O     O_R   0.504120 0.286130 0.619770 -0.574917
O2    O     O_R   0.495880 0.713870 0.380230 -0.578299
O3    O     O_R   0.493410 0.256770 0.308360 -0.592259
O4    O     O_R   0.506590 0.743230 0.691640 -0.601913
O5    O     O_R   0.423230 0.514630 0.655730 -0.555467
O6    O     O_R   0.576770 0.485370 0.344270 -0.539266
O7    O     O_R   0.412530 0.485280 0.344320 -0.515487
O8    O     O_R   0.587470 0.514720 0.655680 -0.537958
O9    O     O_2   0.860819 0.726350 0.809573 -0.454017
O10   O     O_2   0.146499 0.540364 0.181551 -0.433385
O11   O     O_2   0.843984 0.493854 0.173067 -0.395402
O12   O     O_2   0.163912 0.798806 0.811492 -0.385562
F1    F     F_    0.934338 0.463198 0.995991 -0.585814
F2    F     F_    0.073292 0.854183 0.982198 -0.593829
F3    F     F_    0.237257 0.795322 0.304420 -0.568076
F4    F     F_    0.801044 0.322835 0.535133 -0.532251
F5    F     F_    0.346347 0.707266 0.298795 -0.642204
F6    F     F_    0.683571 0.274322 0.538312 -0.621070
C33   C     C_3   0.301606 0.357565 0.720576 -0.293954
C34   C     C_3   0.270703 0.197079 0.621160 -0.701893
H3    H     H_    0.223284 0.203141 0.599823 0.313483
H4    H     H_    0.287678 0.155370 0.484630 0.246907
H5    H     H_    0.277832 0.109704 0.705224 0.243427
H6    H     H_    0.348165 0.346677 0.736474 0.246165
H7    H     H_    0.287656 0.392671 0.862599 0.273897
C35   C     C_3   0.660557 0.815664 0.461288 -0.284558
C36   C     C_3   0.650330 0.912086 0.652434 -0.673507
H8    H     H_    0.628070 0.836686 0.732008 0.240361
H9    H     H_    0.692225 0.965476 0.729563 0.308269
H10   H     H_    0.622721 0.008006 0.638284 0.249088
H11   H     H_    0.682264 0.894808 0.384727 0.287020
H12   H     H_    0.618342 0.771770 0.381497 0.226553
F7    F     F_    0.193179 0.471744 0.718379 -0.606205
F8    F     F_    0.782701 0.843441 0.457397 -0.577806
C37   C     C_3   0.449198 0.945654 0.233619 -0.338657
C38   C     C_3   0.392012 0.011757 0.187936 -0.731625
H13   H     H_    0.362237 0.007018 0.296778 0.282357
H14   H     H_    0.398490 0.135062 0.174817 0.251777
H15   H     H_    0.370660 0.938760 0.055318 0.265263
H16   H     H_    0.480753 0.957587 0.132599 0.197398
H17   H     H_    0.436778 0.819259 0.213499 0.299543
C39   C     C_3   0.458576 0.034179 0.754664 -0.350434
C40   C     C_3   0.394947 0.060030 0.724701 -0.750458
H18   H     H_    0.389065 0.131029 0.621109 0.248636
H19   H     H_    0.368844 0.944967 0.673710 0.239612
H20   H     H_    0.378998 0.122329 0.855643 0.267830
H21   H     H_    0.460094 0.953661 0.847920 0.208630
H22   H     H_    0.484849 0.142076 0.831788 0.261655
F9    F     F_    0.434556 0.393669 0.941620 -0.600007
F10   F     F_    0.563689 0.616123 0.063318 -0.567404

loop_
_geom_bond_atom_site_label_1
_geom_bond_atom_site_label_2
_ccdc_geom_bond_type
C15   C37   S    
C12   F8    S    
Cu1   O5    S    
C6    F6    S    
Cu2   O2    S    
C38   H15   S    
C30   F2    S    
C33   H6    S    
C34   H5    S    
C32   H2    S    
C24   C26   A    
C39   H21   S    
C22   N2    A    
C34   H4    S    
C20   O10   S    
C19   N1    A    
C3    F3    S    
C1    O3    A    
C35   H12   S    
C40   H18   S    
C2    O4    A    
C7    C17   S    
C1    C15   S    
C19   C27   A    
C37   H16   S    
C3    C13   A    
C35   C36   S    
C33   C34   S    
C4    F4    S    
C18   O6    A    
C10   C35   S    
C17   O5    A    
Cu1   N4    S    
C36   H8    S    
C38   H13   S    
C4    C6    A    
C11   F7    S    
N3    N4    D    
C5    C7    A    
C37   H17   S    
C6    C8    A    
C20   C28   A    
C25   C26   A    
C8    C18   S    
Cu2   N3    S    
C34   H3    S    
C36   H9    S    
C37   C38   S    
C20   N2    A    
C19   O9    S    
C35   H11   S    
C16   C39   S    
Cu1   Cu2   S    
C9    C11   A    
C13   N2    S    
C10   C12   A    
Cu2   O6    S    
C1    O1    A    
C40   H19   S    
C12   C14   A    
C21   C23   A    
C22   C24   A    
C23   C29   A    
C21   O11   S    
C2    C16   S    
C22   O12   S    
C7    C9    A    
C27   C32   A    
Cu1   O4    S    
C28   C31   A    
Cu2   O3    S    
C17   O7    A    
C38   H14   S    
C3    C5    A    
C18   O8    A    
C25   C27   A    
C26   C28   A    
C5    F5    S    
C36   H10   S    
Cu1   O1    S    
C29   C31   A    
C33   H7    S    
C14   N1    S    
C30   C32   A    
C11   C13   A    
C29   F1    S    
C2    O2    A    
C39   H22   S    
C31   H1    S    
C23   C25   A    
C4    C14   A    
C24   C30   A    
C40   H20   S    
C21   N1    A    
C8    C10   A    
C39   C40   S    
Cu1   O8    S    
Cu2   O7    S    
N4    F10   S    
C9    C33   S    
N3    F9    S    
C15   C16   D    
