data_mof_unit_53991.cif
_audit_creation_date              2012-12-11T17:19:13-0500
_audit_creation_method            fapswitch 2.2
_symmetry_space_group_name_H-M    P1
_symmetry_Int_Tables_number       1
_space_group_crystal_system       triclinic
_cell_length_a                    14.301384
_cell_length_b                    7.250895
_cell_length_c                    14.268073
_cell_angle_alpha                 89.968258
_cell_angle_beta                  99.597456
_cell_angle_gamma                 90.152414
_cell_volume                      1458.8542262

loop_
_atom_site_label
_atom_site_type_symbol
_atom_type_description
_atom_site_fract_x
_atom_site_fract_y
_atom_site_fract_z
_atom_type_partial_charge
O1    O     O_R   0.648180 0.355050 0.151550 -0.537674
O2    O     O_R   0.351820 0.644950 0.848450 -0.551095
O3    O     O_R   0.851820 0.855050 0.348450 -0.537849
O4    O     O_R   0.148180 0.144950 0.651550 -0.545938
O5    O     O_R   0.835240 0.681980 0.154280 -0.548443
O6    O     O_R   0.164760 0.318020 0.845720 -0.542361
O7    O     O_R   0.664760 0.181980 0.345720 -0.548865
O8    O     O_R   0.335240 0.818020 0.654280 -0.536010
H1    H     H_    0.698601 0.182580 0.776146 0.163282
H2    H     H_    0.301440 0.878683 0.193516 0.157976
H3    H     H_    0.808526 0.671665 0.719381 0.157694
H4    H     H_    0.197539 0.374737 0.308079 0.157571
C1    C     C_R   0.866933 0.514276 0.136525 0.767003
C2    C     C_R   0.137605 0.484710 0.868761 0.839032
C3    C     C_R   0.633066 0.013987 0.363506 0.765988
C4    C     C_R   0.364037 0.985233 0.632799 0.773809
O9    O     O_R   0.647870 0.684600 0.139630 -0.542058
O10   O     O_R   0.352130 0.315400 0.860370 -0.530164
O11   O     O_R   0.852130 0.184600 0.360370 -0.542381
O12   O     O_R   0.147870 0.815400 0.639630 -0.518576
O13   O     O_R   0.663110 0.857440 0.333700 -0.536307
O14   O     O_R   0.336890 0.142560 0.666300 -0.549628
O15   O     O_R   0.836890 0.357440 0.166300 -0.537746
O16   O     O_R   0.163110 0.642560 0.833700 -0.517427
C5    C     C_R   0.615167 0.515835 0.112684 0.792845
C6    C     C_R   0.386816 0.484909 0.885200 0.787629
C7    C     C_R   0.884813 0.015991 0.387350 0.794180
C8    C     C_R   0.113169 0.984719 0.614806 0.803409
O17   O     O_3   0.755220 0.522230 0.313690 -0.398551
O18   O     O_3   0.244780 0.477770 0.686310 -0.405956
O19   O     O_3   0.744780 0.022230 0.186310 -0.397048
O20   O     O_3   0.255220 0.977770 0.813690 -0.404223
V1    V     V_3+5 0.749030 0.796100 0.238190 1.351288
V2    V     V_3+5 0.250970 0.203900 0.761810 1.362610
V3    V     V_3+5 0.750970 0.296100 0.261810 1.349396
V4    V     V_3+5 0.249030 0.703900 0.738190 1.386774
C9    C     C_1   0.964189 0.006750 0.468940 -0.174665
C10   C     C_1   0.031033 0.998058 0.536024 -0.218764
C11   C     C_1   0.535782 0.506601 0.031103 -0.176175
C12   C     C_1   0.468931 0.498311 0.964005 -0.188820
H5    H     H_    0.191747 0.901641 0.303285 0.145263
H6    H     H_    0.803471 0.027083 0.683031 0.145366
H7    H     H_    0.308001 0.396260 0.198904 0.144042
H8    H     H_    0.699337 0.534016 0.814350 0.157775
C13   C     C_R   0.570466 0.110088 0.683470 0.187221
C14   C     C_R   0.426328 0.916941 0.298413 0.164616
C15   C     C_R   0.934399 0.599371 0.815883 0.193977
C16   C     C_R   0.073241 0.415054 0.202712 0.165055
C17   C     C_R   0.668558 0.116986 0.710669 -0.180992
C18   C     C_R   0.329126 0.911612 0.266675 -0.173509
C19   C     C_R   0.836440 0.611689 0.786879 -0.261107
C20   C     C_R   0.170367 0.407865 0.234823 -0.173792
C21   C     C_R   0.728181 0.036318 0.656199 -0.263945
C22   C     C_R   0.266609 0.922472 0.329402 -0.246831
C23   C     C_R   0.774504 0.540844 0.842212 -0.233576
C24   C     C_R   0.233323 0.417927 0.172475 -0.239708
C25   C     C_R   0.691681 0.973103 0.565936 0.383991
C26   C     C_R   0.300458 0.920355 0.426666 0.385773
C27   C     C_R   0.808895 0.478962 0.933398 0.385194
C28   C     C_R   0.199962 0.417539 0.075138 0.380453
C29   C     C_R   0.594357 0.000499 0.528130 -0.047009
C30   C     C_R   0.397973 0.959220 0.462694 -0.040453
C31   C     C_R   0.906469 0.502425 0.972220 -0.065126
C32   C     C_R   0.102743 0.457115 0.038853 -0.056701
C33   C     C_R   0.529839 0.037040 0.592074 -0.032018
C34   C     C_R   0.463282 0.960255 0.395791 -0.034187
C35   C     C_R   0.972102 0.533863 0.908850 0.014052
C36   C     C_R   0.036885 0.458903 0.105249 -0.027916
C37   C     C_R   0.561969 0.991683 0.429272 -0.151161
C38   C     C_R   0.430952 0.997758 0.561715 -0.154625
C39   C     C_R   0.938346 0.492436 0.071210 -0.151910
C40   C     C_R   0.070529 0.495171 0.939883 -0.156236
N1    N     N_3   0.517719 0.198067 0.747167 -0.701233
H9    H     H_    0.478855 0.101094 0.778885 0.235408
H10   H     H_    0.478085 0.306701 0.712874 0.245809
N2    N     N_3   0.482638 0.851187 0.231840 -0.683439
H11   H     H_    0.526710 0.954569 0.212819 0.228992
H12   H     H_    0.518056 0.731315 0.257923 0.245725
N3    N     N_3   0.993714 0.663543 0.751606 -0.653657
H13   H     H_    0.991795 0.566748 0.697201 0.217991
H14   H     H_    0.969627 0.791634 0.723815 0.212267
N4    N     N_3   0.016257 0.350859 0.269152 -0.683496
H15   H     H_    0.972583 0.454933 0.287672 0.228835
H16   H     H_    0.980504 0.230857 0.243332 0.246679
O21   O     O_3   0.751798 0.878160 0.517012 -0.581195
C41   C     C_3   0.737335 0.685688 0.525854 0.108713
H17   H     H_    0.687589 0.633691 0.463509 0.156195
H18   H     H_    0.705185 0.647137 0.589244 0.084232
C42   C     C_3   0.832862 0.588988 0.530648 -0.297905
H19   H     H_    0.857681 0.594699 0.461489 0.228692
H20   H     H_    0.886217 0.664570 0.580868 0.181678
C43   C     C_3   0.828652 0.388217 0.560817 -0.813260
H21   H     H_    0.808323 0.378402 0.632207 0.231876
H22   H     H_    0.899415 0.324069 0.563887 0.226812
H23   H     H_    0.776095 0.311830 0.509108 0.261534
O22   O     O_3   0.239511 0.853193 0.483560 -0.579567
C44   C     C_3   0.228862 0.659213 0.469612 0.126281
H24   H     H_    0.259629 0.589866 0.536020 0.187715
H25   H     H_    0.268247 0.598994 0.415577 0.064211
C45   C     C_3   0.123822 0.610188 0.442089 -0.353342
H26   H     H_    0.079418 0.707483 0.472716 0.220709
H27   H     H_    0.103038 0.623542 0.364413 0.186852
C46   C     C_3   0.100331 0.420550 0.477646 -0.742480
H28   H     H_    0.146847 0.312508 0.455257 0.236183
H29   H     H_    0.025052 0.386585 0.450975 0.235437
H30   H     H_    0.108130 0.424317 0.555943 0.251240
O23   O     O_3   0.747019 0.384582 0.981008 -0.580009
C47   C     C_3   0.760374 0.191752 0.971956 0.108525
H31   H     H_    0.808430 0.138842 0.035138 0.157951
H32   H     H_    0.794376 0.153110 0.909880 0.081209
C48   C     C_3   0.664209 0.094613 0.964534 -0.302091
H33   H     H_    0.637728 0.102020 0.032964 0.221866
H34   H     H_    0.611700 0.166296 0.911427 0.219617
C49   C     C_3   0.669753 0.892834 0.936640 -0.799584
H35   H     H_    0.691884 0.881244 0.866088 0.231880
H36   H     H_    0.598958 0.827454 0.932510 0.228430
H37   H     H_    0.721477 0.818825 0.990090 0.257804
O24   O     O_3   0.261152 0.352566 0.018102 -0.584035
C50   C     C_3   0.271424 0.158367 0.030728 0.121861
H38   H     H_    0.240752 0.090717 0.963771 0.190499
H39   H     H_    0.231754 0.096364 0.084184 0.066889
C51   C     C_3   0.376344 0.109434 0.058087 -0.351409
H40   H     H_    0.420827 0.205607 0.026448 0.220451
H41   H     H_    0.397552 0.124426 0.135652 0.187498
C52   C     C_3   0.398933 0.918845 0.023530 -0.745893
H42   H     H_    0.352319 0.811575 0.046940 0.235986
H43   H     H_    0.474231 0.885100 0.049811 0.236078
H44   H     H_    0.390493 0.921006 0.945210 0.250240

loop_
_geom_bond_atom_site_label_1
_geom_bond_atom_site_label_2
_ccdc_geom_bond_type
C26   C30   A    
C23   C27   A    
N1    H9    S    
C48   H33   S    
O10   C6    A    
C15   N3    S    
C32   C40   A    
C14   N2    S    
C44   H24   S    
C48   H34   S    
O21   C41   S    
C30   C38   A    
O16   V4    S    
C32   C36   A    
N2    H12   S    
C14   C34   A    
C16   C20   A    
H6    C21   S    
C41   H18   S    
C34   C37   A    
O13   V1    S    
O3    V1    S    
C29   C37   A    
C33   C38   A    
C47   H31   S    
C1    O15   A    
C13   N1    S    
C35   C40   A    
O8    V4    S    
C2    O16   A    
C26   O22   S    
O24   C50   S    
C43   H21   S    
C44   H25   S    
C47   H32   S    
O5    V1    S    
C52   H44   S    
O23   C47   S    
O19   V1    S    
C28   O24   S    
C8    C10   S    
C42   H20   S    
O11   C7    A    
O5    C1    A    
O7    C3    A    
O8    C4    A    
O1    C5    A    
N1    H10   S    
O9    V1    S    
O14   V2    S    
C15   C35   A    
H4    C20   S    
C49   H35   S    
O4    V2    S    
C50   H39   S    
C3    C37   S    
C31   C35   A    
C30   C34   A    
H1    C17   S    
N2    H11   S    
C46   H29   S    
C11   C12   T    
N3    H14   S    
C21   C25   A    
C41   H17   S    
C15   C19   A    
C1    C39   S    
C45   C46   S    
C27   O23   S    
O6    V2    S    
O20   V2    S    
C46   H30   S    
C9    C10   T    
O6    C2    A    
C13   C17   A    
O22   C44   S    
C43   H22   S    
C4    C38   S    
O2    C6    A    
C18   C22   A    
C16   C36   A    
C42   C43   S    
O10   V2    S    
C31   C39   A    
N4    H16   S    
C13   C33   A    
C52   H42   S    
C51   H41   S    
H2    C18   S    
C44   C45   S    
O1    V3    S    
C45   H27   S    
C22   C26   A    
C50   C51   S    
O2    V4    S    
C14   C18   A    
C4    O14   A    
C2    C40   S    
C41   C42   S    
C49   H36   S    
C50   H38   S    
C25   C29   A    
O12   C8    A    
O17   V3    S    
C27   C31   A    
C47   C48   S    
O18   V4    S    
C28   C32   A    
O9    C5    A    
C51   C52   S    
O3    C7    A    
C51   H40   S    
O11   V3    S    
C5    C11   S    
H8    C23   S    
C6    C12   S    
C7    C9    S    
C36   C39   A    
C17   C21   A    
O7    V3    S    
C45   H26   S    
C16   N4    S    
C48   C49   S    
C19   C23   A    
C43   H23   S    
O15   V3    S    
H5    C22   S    
C49   H37   S    
H3    C19   S    
N3    H13   S    
O12   V4    S    
C29   C33   A    
H7    C24   S    
C3    O13   A    
C24   C28   A    
N4    H15   S    
O4    C8    A    
C46   H28   S    
C52   H43   S    
C42   H19   S    
C25   O21   S    
C20   C24   A    
