data_mof_unit_6978.cif
_audit_creation_date              2012-10-26T19:52:26-0400
_audit_creation_method            fapswitch 2.2
_symmetry_space_group_name_H-M    P1
_symmetry_Int_Tables_number       1
_space_group_crystal_system       triclinic
_cell_length_a                    9.683586
_cell_length_b                    10.871839
_cell_length_c                    13.590513
_cell_angle_alpha                 92.932542
_cell_angle_beta                  77.07158
_cell_angle_gamma                 91.612207
_cell_volume                      1392.48644637

loop_
_atom_site_label
_atom_site_type_symbol
_atom_type_description
_atom_site_fract_x
_atom_site_fract_y
_atom_site_fract_z
_atom_type_partial_charge
C1    C     C_R   0.502604 0.736447 0.496479 0.572673
C2    C     C_R   0.397452 0.456937 0.801932 -0.035312
C3    C     C_R   0.394830 0.931067 0.470557 0.016535
C4    C     C_R   0.427560 0.492608 0.696903 0.545789
C5    C     C_R   0.506447 0.868783 0.492211 0.035404
C6    C     C_R   0.620265 0.939917 0.513587 -0.134557
C7    C     C_R   0.616395 0.068779 0.516667 -0.115862
C8    C     C_R   0.497799 0.129443 0.498431 0.013349
C9    C     C_R   0.386232 0.055451 0.478152 -0.033774
C10   C     C_3   0.249419 0.051945 0.442894 -0.066976
C11   C     C_3   0.263071 0.910470 0.432099 -0.044929
C12   C     C_R   0.458489 0.472616 0.966406 0.010428
C13   C     C_R   0.939604 0.407125 0.450922 0.142053
C14   C     C_R   0.913210 0.586629 0.555348 0.164307
C15   C     C_R   0.058309 0.579999 0.561473 0.155748
C16   C     C_R   0.498699 0.262801 0.498793 0.567214
C17   C     C_R   0.085508 0.406851 0.452811 0.130652
C18   C     C_3   0.131716 0.367469 0.346253 -0.215245
C19   C     C_3   0.976063 0.373449 0.339154 0.062980
C20   C     C_R   0.573122 0.506390 0.302286 0.564377
C21   C     C_R   0.686716 0.699044 0.075658 -0.085872
C22   C     C_R   0.605775 0.540935 0.196366 0.060022
C23   C     C_R   0.462637 0.522851 0.872551 -0.009006
C24   C     C_R   0.331921 0.340436 0.826670 0.006349
C25   C     C_R   0.306825 0.304115 0.927067 0.024154
C26   C     C_R   0.353858 0.382443 0.998246 0.017177
C27   C     C_2   0.121816 0.088747 0.524020 0.624935
C28   C     C_2   0.287577 0.860685 0.324037 0.575460
C29   C     C_2   0.836580 0.696033 0.606030 0.590778
C30   C     C_2   0.101300 0.645204 0.648578 0.639348
C31   C     C_2   0.952178 0.477430 0.274890 0.597230
C32   C     C_2   0.910214 0.251019 0.312690 0.645849
C33   C     C_2   0.300480 0.251069 0.748546 0.610552
C34   C     C_R   0.538326 0.528473 0.033361 0.069845
C35   C     C_2   0.251307 0.416443 0.091462 0.573511
C36   C     C_2   0.226073 0.189074 0.959988 0.665454
C37   C     C_R   0.612502 0.640531 0.008272 0.055494
C38   C     C_R   0.603419 0.696417 0.919500 -0.082790
C39   C     C_R   0.526370 0.639629 0.853930 -0.053320
C40   C     C_R   0.540646 0.477637 0.126692 -0.083325
C41   C     C_R   0.681568 0.650432 0.169621 -0.053795
Cu1   Cu    Cu3+1 0.359330 0.500020 0.500010 1.063740
Cu2   Cu    Cu3+1 0.640670 0.499980 0.499990 1.081158
H1    H     H_    0.204848 0.437257 0.306099 0.151967
H2    H     H_    0.849328 0.877596 0.643346 0.338551
H3    H     H_    0.090899 0.648803 0.798634 0.344508
H4    H     H_    0.952347 0.661186 0.258284 0.345512
H5    H     H_    0.653205 0.785531 0.901830 0.140347
H6    H     H_    0.735076 0.159553 0.289815 0.335936
H7    H     H_    0.742547 0.785693 0.057895 0.134117
H8    H     H_    0.326362 0.076977 0.688675 0.375385
H9    H     H_    0.191372 0.561744 0.192336 0.349692
H10   H     H_    0.202714 0.044232 0.049823 0.359457
H11   H     H_    0.511769 0.689492 0.790450 0.176362
H12   H     H_    0.177874 0.274798 0.337576 0.173228
H13   H     H_    0.712132 0.896609 0.527130 0.185892
H14   H     H_    0.486856 0.391179 0.148111 0.121864
H15   H     H_    0.729278 0.702390 0.223868 0.132823
H16   H     H_    0.706644 0.120199 0.533092 0.187857
H17   H     H_    0.013365 0.075886 0.668423 0.365292
H18   H     H_    0.259293 0.096319 0.369858 0.133987
H19   H     H_    0.179417 0.858232 0.483504 0.204940
H20   H     H_    0.204345 0.826596 0.201827 0.354877
N1    N     N_R   0.852320 0.499070 0.499340 -0.263116
N2    N     N_R   0.148230 0.499110 0.499340 -0.278596
O1    O     O_R   0.381190 0.680360 0.500000 -0.483870
O2    O     O_R   0.104637 0.046932 0.621676 -0.643797
O3    O     O_2   0.401608 0.816971 0.281299 -0.519052
O4    O     O_R   0.176984 0.863163 0.273508 -0.649985
O5    O     O_2   0.721953 0.685292 0.663321 -0.518914
O6    O     O_R   0.903527 0.811846 0.595638 -0.698309
O7    O     O_2   0.164109 0.744293 0.639457 -0.482566
O8    O     O_R   0.058692 0.596086 0.743952 -0.664191
O9    O     O_2   0.920787 0.454877 0.193382 -0.443477
O10   O     O_R   0.966271 0.600043 0.308868 -0.710179
O11   O     O_2   0.981753 0.158395 0.291606 -0.457234
O12   O     O_R   0.618780 0.680320 0.499990 -0.493190
O13   O     O_R   0.767186 0.245267 0.308980 -0.666837
O14   O     O_2   0.215570 0.275425 0.698419 -0.433624
O15   O     O_R   0.362409 0.135122 0.738056 -0.688130
O16   O     O_2   0.177316 0.338181 0.139699 -0.476587
O17   O     O_R   0.237419 0.542179 0.119866 -0.690208
O18   O     O_2   0.124922 0.155635 0.924576 -0.456052
O19   O     O_R   0.265759 0.119724 0.032748 -0.642421
O20   O     O_R   0.323230 0.500000 0.650990 -0.453841
O21   O     O_R   0.560820 0.499960 0.650980 -0.471757
O22   O     O_R   0.381220 0.319680 0.500010 -0.488526
O23   O     O_R   0.618810 0.319640 0.500000 -0.493460
O24   O     O_R   0.439180 0.500040 0.349020 -0.528820
O25   O     O_R   0.676770 0.500000 0.349010 -0.462342
O26   O     O_2   0.029244 0.149191 0.502769 -0.521318

loop_
_geom_bond_atom_site_label_1
_geom_bond_atom_site_label_2
_ccdc_geom_bond_type
C10   C27   S    
H2    O6    S    
C34   C37   A    
C1    O12   A    
C28   O4    S    
C11   H19   S    
C19   C31   S    
C35   O16   D    
C7    C8    A    
C12   C23   A    
H10   O19   S    
C1    C5    S    
Cu2   O23   S    
C28   O3    D    
C41   H15   S    
C38   C39   A    
C39   H11   S    
C4    O21   A    
C36   O18   D    
C15   N2    A    
H6    O13   S    
C18   C19   S    
H8    O15   S    
H20   O4    S    
H17   O2    S    
C8    C9    A    
C16   O22   A    
C27   O26   D    
C9    C10   S    
C38   H5    S    
C14   N1    A    
C8    C16   S    
C19   C32   S    
C7    H16   S    
C21   H7    S    
C35   O17   S    
Cu2   N1    S    
C1    O1    A    
Cu2   O25   S    
C13   C19   S    
C27   O2    S    
C24   C25   A    
C30   O8    S    
C33   O14   D    
C31   O9    D    
C4    O20   A    
C25   C26   A    
C20   O25   A    
C12   C26   A    
C2    C4    S    
C37   C38   A    
C3    C9    A    
C18   H1    S    
Cu1   N2    S    
C31   O10   S    
C22   C40   A    
C17   C18   S    
Cu1   O20   S    
H9    O17   S    
C18   H12   S    
C21   C41   A    
C20   C22   S    
C2    C24   A    
C34   C40   A    
C10   H18   S    
Cu1   Cu2   S    
C14   C29   S    
C12   C34   A    
C15   C30   S    
C16   O23   A    
C29   O5    D    
C40   H14   S    
Cu2   O21   S    
C6    H13   S    
C3    C5    A    
C32   O11   D    
C30   O7    D    
C33   O15   S    
C6    C7    A    
Cu2   O12   S    
C20   O24   A    
C17   N2    A    
C24   C33   S    
C13   C17   A    
Cu1   O24   S    
H4    O10   S    
C5    C6    A    
C13   N1    A    
C11   C28   S    
C36   O19   S    
C23   C39   A    
C3    C11   S    
C10   C11   S    
C25   C36   S    
C32   O13   S    
C22   C41   A    
C26   C35   S    
C21   C37   A    
C2    C23   A    
Cu1   O1    S    
C14   C15   A    
Cu1   O22   S    
H3    O8    S    
C29   O6    S    
