data_mof_unit_61440.cif
_audit_creation_date              2013-03-05T16:17:49-0500
_audit_creation_method            fapswitch 2.2
_symmetry_space_group_name_H-M    P1
_symmetry_Int_Tables_number       1
_space_group_crystal_system       triclinic
_cell_length_a                    44.664226
_cell_length_b                    39.026338
_cell_length_c                    21.760724
_cell_angle_alpha                 90.000311
_cell_angle_beta                  60.785659
_cell_angle_gamma                 90.000253
_cell_volume                      33105.9200735

loop_
_atom_site_label
_atom_site_type_symbol
_atom_site_description
_atom_site_fract_x
_atom_site_fract_y
_atom_site_fract_z
_atom_type_partial_charge
O1    O     O_R   0.049900 0.528860 0.450120 -0.583815
O2    O     O_R   0.950100 0.528860 0.549880 -0.583774
O3    O     O_R   0.549900 0.028860 0.450120 -0.583778
O4    O     O_R   0.450100 0.028860 0.549880 -0.583825
O5    O     O_R   0.049870 0.471090 0.450150 -0.585133
O6    O     O_R   0.950130 0.471090 0.549850 -0.585210
O7    O     O_R   0.549870 0.971090 0.450150 -0.585219
O8    O     O_R   0.450130 0.971090 0.549850 -0.585129
C1    C     C_R   0.066196 0.499954 0.433786 0.786585
C2    C     C_R   0.933804 0.499954 0.566213 0.786518
C3    C     C_R   0.566196 0.999954 0.433786 0.786501
C4    C     C_R   0.433804 0.999954 0.566214 0.786566
O9    O     O_R   0.000000 0.528860 0.590170 -0.576673
O10   O     O_R   0.000000 0.528860 0.409830 -0.576665
O11   O     O_R   0.500000 0.028860 0.590170 -0.576660
O12   O     O_R   0.500000 0.028860 0.409830 -0.576672
O13   O     O_R   0.999960 0.471090 0.590200 -0.594473
O14   O     O_R   0.000040 0.471090 0.409800 -0.594402
O15   O     O_R   0.499960 0.971090 0.590200 -0.594364
O16   O     O_R   0.500040 0.971090 0.409800 -0.594449
C5    C     C_R   0.000044 0.499907 0.618870 0.835345
C6    C     C_R   0.999951 0.499908 0.381137 0.835310
C7    C     C_R   0.500052 0.999908 0.618859 0.835292
C8    C     C_R   0.499953 0.999907 0.381134 0.835332
Cu1   Cu    Cu3+1 0.000000 0.534180 0.500000 0.977627
Cu2   Cu    Cu3+1 0.500000 0.034180 0.500000 0.977610
Cu3   Cu    Cu3+1 1.000000 0.465770 0.500000 0.967817
Cu4   Cu    Cu3+1 0.500000 0.965770 0.500000 0.967835
C9    C     C_R   0.995623 0.528714 0.724503 0.009189
C10   C     C_R   0.004689 0.528658 0.275184 0.009166
C11   C     C_R   0.495157 0.028629 0.724973 0.009185
C12   C     C_R   0.504473 0.028697 0.275402 0.009123
C13   C     C_R   0.000456 0.499286 0.685058 -0.143036
C14   C     C_R   0.999525 0.499288 0.314967 -0.142952
C15   C     C_R   0.500489 0.999290 0.685017 -0.142908
C16   C     C_R   0.499534 0.999287 0.314954 -0.142989
C17   C     C_R   0.005691 0.468278 0.712212 -0.176883
C18   C     C_R   0.993951 0.468336 0.288163 -0.176897
C19   C     C_R   0.506235 0.968368 0.711640 -0.176907
C20   C     C_R   0.494188 0.968297 0.287913 -0.176883
H1    H     H_    0.009769 0.444523 0.683432 0.187495
H2    H     H_    0.989603 0.444633 0.317227 0.187400
H3    H     H_    0.510721 0.944693 0.682431 0.187351
H4    H     H_    0.490022 0.944558 0.316785 0.187463
C21   C     C_R   0.005695 0.467464 0.777017 0.397864
C22   C     C_R   0.993946 0.467515 0.223360 0.397880
C23   C     C_R   0.506240 0.967543 0.776444 0.397896
C24   C     C_R   0.494185 0.967481 0.223107 0.397846
C25   C     C_R   0.000255 0.498498 0.815457 -0.159934
C26   C     C_R   0.999741 0.498482 0.184552 -0.160184
C27   C     C_R   0.500261 0.998474 0.815443 -0.160322
C28   C     C_R   0.499743 0.998494 0.184547 -0.160047
C29   C     C_R   0.995624 0.528242 0.786555 -0.019711
C30   C     C_R   0.004706 0.528175 0.213114 -0.019417
C31   C     C_R   0.495127 0.028139 0.787055 -0.019280
C32   C     C_R   0.504480 0.028222 0.213340 -0.019697
C33   C     C_3   0.988698 0.565816 0.798374 0.559821
C34   C     C_3   0.012027 0.565672 0.200882 0.559998
C35   C     C_3   0.487592 0.065593 0.799515 0.560053
C36   C     C_3   0.511546 0.065770 0.201380 0.559927
C37   C     C_3   0.988526 0.566269 0.727436 -0.482827
C38   C     C_3   0.012190 0.566136 0.271830 -0.483215
C39   C     C_3   0.487440 0.066064 0.728555 -0.483460
C40   C     C_3   0.511709 0.066225 0.272328 -0.483041
H5    H     H_    0.963089 0.571659 0.731965 0.214972
H6    H     H_    0.037679 0.571255 0.267264 0.214886
H7    H     H_    0.461925 0.071040 0.733133 0.214843
H8    H     H_    0.537164 0.071521 0.267793 0.214959
H9    H     H_    0.010347 0.580424 0.684645 0.207305
H10   H     H_    0.990519 0.580530 0.314448 0.207452
H11   H     H_    0.509031 0.080587 0.686037 0.207516
H12   H     H_    0.489939 0.080462 0.315058 0.207351
C41   C     C_R   0.377930 0.479341 0.085309 -0.236866
C42   C     C_R   0.622070 0.479340 0.914689 -0.236891
C43   C     C_R   0.877931 0.979338 0.085314 -0.236907
C44   C     C_R   0.122070 0.979357 0.914719 -0.236862
H13   H     H_    0.391349 0.460495 0.044305 0.169061
H14   H     H_    0.608650 0.460494 0.955693 0.169051
H15   H     H_    0.891350 0.960490 0.044314 0.169057
H16   H     H_    0.108651 0.960522 0.955746 0.169093
C45   C     C_R   0.342244 0.479470 0.121120 -0.194568
C46   C     C_R   0.657756 0.479469 0.878879 -0.194601
C47   C     C_R   0.842244 0.979466 0.121125 -0.194598
C48   C     C_R   0.157756 0.979486 0.878910 -0.194579
H17   H     H_    0.328840 0.460414 0.107465 0.161490
H18   H     H_    0.671160 0.460412 0.892532 0.161472
H19   H     H_    0.828840 0.960408 0.107475 0.161480
H20   H     H_    0.171160 0.960441 0.892589 0.161497
C49   C     C_R   0.323935 0.503359 0.174775 -0.065228
C50   C     C_R   0.676064 0.503359 0.825224 -0.065225
C51   C     C_R   0.823936 0.003358 0.174775 -0.065225
C52   C     C_R   0.176065 0.003362 0.825224 -0.065221
C53   C     C_R   0.342290 0.528015 0.191535 0.351521
C54   C     C_R   0.657710 0.528015 0.808466 0.351506
C55   C     C_R   0.842290 0.028016 0.191529 0.351506
C56   C     C_R   0.157711 0.028004 0.808434 0.351514
C57   C     C_R   0.378416 0.526791 0.157359 0.318549
C58   C     C_R   0.621584 0.526791 0.842642 0.318549
C59   C     C_R   0.878416 0.026792 0.157354 0.318542
C60   C     C_R   0.121585 0.026779 0.842611 0.318539
C61   C     C_R   0.396243 0.502390 0.103631 -0.209931
C62   C     C_R   0.603757 0.502389 0.896369 -0.209924
C63   C     C_R   0.896243 0.002389 0.103631 -0.209922
C64   C     C_R   0.103757 0.002391 0.896368 -0.209951
C65   C     C_R   0.267736 0.502789 0.287288 -0.157293
C66   C     C_R   0.732264 0.502788 0.712711 -0.157329
C67   C     C_R   0.767736 0.002791 0.287288 -0.157332
C68   C     C_R   0.232265 0.002770 0.712711 -0.157298
H21   H     H_    0.281285 0.504494 0.317057 0.171880
H22   H     H_    0.718715 0.504494 0.682942 0.171857
H23   H     H_    0.781285 0.004500 0.317057 0.171854
H24   H     H_    0.218716 0.004460 0.682940 0.171880
C69   C     C_R   0.231934 0.502275 0.323350 -0.172129
C70   C     C_R   0.768065 0.502274 0.676649 -0.172173
C71   C     C_R   0.731934 0.002278 0.323350 -0.172183
C72   C     C_R   0.268066 0.002256 0.676650 -0.172137
H25   H     H_    0.218359 0.503823 0.380296 0.146280
H26   H     H_    0.781640 0.503823 0.619702 0.146236
H27   H     H_    0.718359 0.003829 0.380296 0.146223
H28   H     H_    0.281642 0.003788 0.619701 0.146274
C73   C     C_R   0.213787 0.499406 0.286156 0.086997
C74   C     C_R   0.786213 0.499405 0.713842 0.087039
C75   C     C_R   0.713787 0.999405 0.286156 0.087037
C76   C     C_R   0.286214 0.999407 0.713848 0.086982
C77   C     C_R   0.231818 0.496932 0.212524 -0.165747
C78   C     C_R   0.768182 0.496929 0.787474 -0.165817
C79   C     C_R   0.731819 0.996926 0.212525 -0.165806
C80   C     C_R   0.268182 0.996953 0.787482 -0.165725
H29   H     H_    0.218140 0.494764 0.183069 0.143332
H30   H     H_    0.781860 0.494761 0.816928 0.143257
H31   H     H_    0.718140 0.994755 0.183070 0.143274
H32   H     H_    0.281860 0.994801 0.816940 0.143371
C81   C     C_R   0.267611 0.498249 0.176319 -0.159961
C82   C     C_R   0.732389 0.498246 0.823679 -0.159998
C83   C     C_R   0.767611 0.998243 0.176320 -0.159995
C84   C     C_R   0.232390 0.998271 0.823686 -0.159957
H33   H     H_    0.280997 0.497218 0.119339 0.141175
H34   H     H_    0.719003 0.497215 0.880659 0.141139
H35   H     H_    0.780998 0.997208 0.119341 0.141147
H36   H     H_    0.219003 0.997256 0.880668 0.141187
C85   C     C_R   0.285910 0.501543 0.213327 0.098300
C86   C     C_R   0.714090 0.501542 0.786671 0.098332
C87   C     C_R   0.785910 0.001541 0.213328 0.098331
C88   C     C_R   0.214091 0.001545 0.786674 0.098299
C89   C     C_R   0.157845 0.472081 0.316249 -0.155396
C90   C     C_R   0.842155 0.472079 0.683745 -0.155465
C91   C     C_R   0.657845 0.972078 0.316256 -0.155450
C92   C     C_R   0.342155 0.972085 0.683768 -0.155366
H37   H     H_    0.171396 0.450585 0.282607 0.138075
H38   H     H_    0.828604 0.450583 0.717385 0.138055
H39   H     H_    0.671395 0.950581 0.282620 0.138058
H40   H     H_    0.328604 0.950594 0.717422 0.138085
C93   C     C_R   0.122027 0.472072 0.352634 -0.168695
C94   C     C_R   0.877973 0.472071 0.647361 -0.168783
C95   C     C_R   0.622027 0.972070 0.352641 -0.168759
C96   C     C_R   0.377973 0.972076 0.647382 -0.168659
H41   H     H_    0.108463 0.450596 0.346135 0.153195
H42   H     H_    0.891537 0.450594 0.653858 0.153173
H43   H     H_    0.608462 0.950592 0.346147 0.153181
H44   H     H_    0.391538 0.950604 0.653891 0.153200
C97   C     C_R   0.103946 0.499840 0.395993 -0.030246
C98   C     C_R   0.896054 0.499839 0.604006 -0.030197
C99   C     C_R   0.603946 0.999839 0.395993 -0.030196
C100  C     C_R   0.396054 0.999839 0.604008 -0.030241
C101  C     C_R   0.122224 0.527412 0.403082 -0.168794
C102  C     C_R   0.877775 0.527412 0.596919 -0.168823
C103  C     C_R   0.622225 0.027414 0.403075 -0.168853
C104  C     C_R   0.377776 0.027408 0.596905 -0.168836
H45   H     H_    0.108819 0.549022 0.436481 0.155605
H46   H     H_    0.891181 0.549023 0.563524 0.155590
H47   H     H_    0.608820 0.049025 0.436468 0.155584
H48   H     H_    0.391181 0.049015 0.563495 0.155591
C105  C     C_R   0.158038 0.527016 0.368020 -0.150547
C106  C     C_R   0.841962 0.527015 0.631981 -0.150636
C107  C     C_R   0.658039 0.027017 0.368013 -0.150655
C108  C     C_R   0.341962 0.027012 0.631968 -0.150552
H49   H     H_    0.171749 0.548408 0.374362 0.142755
H50   H     H_    0.828250 0.548408 0.625642 0.142710
H51   H     H_    0.671750 0.048410 0.374350 0.142693
H52   H     H_    0.328251 0.048400 0.625616 0.142748
C109  C     C_R   0.176035 0.499446 0.324105 0.094956
C110  C     C_R   0.823964 0.499445 0.675892 0.094983
C111  C     C_R   0.676035 0.999445 0.324106 0.094995
C112  C     C_R   0.323965 0.999447 0.675898 0.094953
O17   O     O_R   0.971090 0.450020 0.028880 -0.595635
O18   O     O_R   0.028910 0.450020 0.971120 -0.595511
O19   O     O_R   0.471090 0.950020 0.028880 -0.595521
O20   O     O_R   0.528910 0.950020 0.971120 -0.595664
C113  C     C_R   1.000000 0.433691 0.000001 0.735999
C114  C     C_R   0.500000 0.933691 0.999999 0.735993
O21   O     O_R   0.971090 0.499930 0.938720 -0.563653
O22   O     O_R   0.028910 0.499930 0.061280 -0.563281
O23   O     O_R   0.471090 0.999930 0.938720 -0.563105
O24   O     O_R   0.528910 0.999930 0.061280 -0.563552
O25   O     O_R   0.028860 0.499970 0.880980 -0.560144
O26   O     O_R   0.971140 0.499970 0.119020 -0.560627
O27   O     O_R   0.528860 0.999970 0.880980 -0.560875
O28   O     O_R   0.471140 0.999970 0.119020 -0.560283
C115  C     C_R   0.000014 0.500047 0.881503 0.817438
C116  C     C_R   0.999985 0.500029 0.118499 0.817546
C117  C     C_R   0.500015 0.000019 0.881500 0.817577
C118  C     C_R   0.499986 0.000042 0.118497 0.817599
Cu5   Cu    Cu3+1 0.965770 0.499930 0.034210 1.050946
Cu6   Cu    Cu3+1 0.034230 0.499930 0.965790 1.051968
Cu7   Cu    Cu3+1 0.465770 0.999930 0.034210 1.052113
Cu8   Cu    Cu3+1 0.534230 0.999930 0.965790 1.050883
O29   O     O_R   0.971090 0.549840 0.028900 -0.561689
O30   O     O_R   0.028910 0.549840 0.971100 -0.561239
O31   O     O_R   0.471090 0.049840 0.028900 -0.561172
O32   O     O_R   0.528910 0.049840 0.971100 -0.561790
C119  C     C_R   0.000000 0.566136 0.999999 0.859747
C120  C     C_R   0.500000 0.066137 0.999998 0.860167
O33   O     O_R   0.499950 0.450000 0.052130 -0.592199
O34   O     O_R   0.500050 0.450000 0.947870 -0.592196
O35   O     O_R   0.999950 0.950000 0.052130 -0.592127
O36   O     O_R   0.000050 0.950000 0.947870 -0.592130
C121  C     C_R   0.500000 0.433765 0.000000 0.758923
C122  C     C_R   0.000000 0.933767 0.999999 0.758854
O37   O     O_R   0.450070 0.499910 0.102090 -0.555340
O38   O     O_R   0.549930 0.499910 0.897910 -0.555346
O39   O     O_R   0.950070 0.999910 0.102090 -0.555360
O40   O     O_R   0.049930 0.999910 0.897910 -0.555321
O41   O     O_R   0.450070 0.499980 0.997710 -0.586396
O42   O     O_R   0.549930 0.499980 0.002290 -0.586404
O43   O     O_R   0.950070 0.999980 0.997710 -0.586393
O44   O     O_R   0.049930 0.999980 0.002290 -0.586413
C123  C     C_R   0.433909 0.500551 0.066084 0.861704
C124  C     C_R   0.566091 0.500551 0.933916 0.861700
C125  C     C_R   0.933909 0.000550 0.066084 0.861664
C126  C     C_R   0.066091 0.000552 0.933916 0.861627
Cu9   Cu    Cu3+1 0.499980 0.499900 0.061820 1.015270
Cu10  Cu    Cu3+1 0.500020 0.499900 0.938180 1.015273
Cu11  Cu    Cu3+1 0.999980 0.999900 0.061820 1.015298
Cu12  Cu    Cu3+1 0.000020 0.999900 0.938180 1.015349
O45   O     O_R   0.500010 0.549820 0.052280 -0.573181
O46   O     O_R   0.499990 0.549820 0.947720 -0.573179
O47   O     O_R   0.000010 0.049820 0.052280 -0.573182
O48   O     O_R   0.999990 0.049820 0.947720 -0.573154
C127  C     C_R   0.500000 0.566061 0.000000 0.879085
C128  C     C_R   0.000001 0.066061 0.999999 0.879024
C129  C     C_R   0.500469 0.622067 0.055201 -0.122231
C130  C     C_R   0.499531 0.622067 0.944799 -0.122227
C131  C     C_R   0.000517 0.122067 0.055152 -0.122281
C132  C     C_R   0.999484 0.122067 0.944848 -0.122261
H53   H     H_    0.500741 0.608753 0.098585 0.165863
H54   H     H_    0.499260 0.608754 0.901415 0.165864
H55   H     H_    0.000827 0.108754 0.098496 0.165806
H56   H     H_    0.999174 0.108753 0.901503 0.165817
C133  C     C_R   0.500514 0.657802 0.055139 -0.153140
C134  C     C_R   0.499487 0.657802 0.944862 -0.153145
C135  C     C_R   0.000562 0.157802 0.055089 -0.153129
C136  C     C_R   0.999438 0.157802 0.944912 -0.153133
H57   H     H_    0.500507 0.671240 0.098691 0.138287
H58   H     H_    0.499494 0.671240 0.901310 0.138284
H59   H     H_    0.000594 0.171240 0.098602 0.138274
H60   H     H_    0.999406 0.171240 0.901399 0.138278
C137  C     C_R   0.500000 0.675985 0.000001 0.095062
C138  C     C_R   1.000000 0.175985 0.000001 0.095075
C139  C     C_R   0.500000 0.603845 0.000000 -0.003935
C140  C     C_R   0.000001 0.103845 1.000000 -0.003868
C141  C     C_R   0.478378 0.732018 0.981665 -0.159330
C142  C     C_R   0.521623 0.732018 0.018337 -0.159346
C143  C     C_R   0.978338 0.232017 0.981772 -0.159344
C144  C     C_R   0.021661 0.232018 0.018231 -0.159338
H61   H     H_    0.461239 0.718585 0.967952 0.137975
H62   H     H_    0.538762 0.718585 0.032051 0.137969
H63   H     H_    0.961169 0.218584 0.968142 0.137980
H64   H     H_    0.038830 0.218585 0.031861 0.137981
C145  C     C_R   0.978293 0.267753 0.981896 -0.162682
C146  C     C_R   0.021706 0.267753 0.018107 -0.162696
C147  C     C_R   0.478333 0.767753 0.981789 -0.162699
C148  C     C_R   0.521668 0.767754 0.018214 -0.162678
H65   H     H_    0.961545 0.281185 0.967108 0.137266
H66   H     H_    0.038453 0.281186 0.032895 0.137248
H67   H     H_    0.461616 0.781186 0.966919 0.137243
H68   H     H_    0.538385 0.781187 0.033084 0.137265
C149  C     C_R   0.999999 0.285938 0.000001 0.093460
C150  C     C_R   0.500000 0.785938 0.000002 0.093460
C151  C     C_R   0.500000 0.713834 0.000001 0.098135
C152  C     C_R   0.999999 0.213833 0.000001 0.098120
C153  C     C_R   0.031040 0.341971 0.971410 -0.155308
C154  C     C_R   0.968959 0.341971 0.028591 -0.155243
C155  C     C_R   0.531038 0.841971 0.971500 -0.155244
C156  C     C_R   0.468962 0.841971 0.028503 -0.155323
H69   H     H_    0.055337 0.328533 0.948311 0.135743
H70   H     H_    0.944661 0.328534 0.051690 0.135728
H71   H     H_    0.555335 0.828534 0.948472 0.135738
H72   H     H_    0.444666 0.828533 0.051532 0.135755
C157  C     C_R   0.031050 0.377707 0.971309 -0.156150
C158  C     C_R   0.968949 0.377708 0.028692 -0.156044
C159  C     C_R   0.531049 0.877708 0.971396 -0.156076
C160  C     C_R   0.468952 0.877708 0.028605 -0.156205
H73   H     H_    0.055395 0.391034 0.948699 0.160590
H74   H     H_    0.944605 0.391034 0.051302 0.160595
H75   H     H_    0.555391 0.891035 0.948857 0.160605
H76   H     H_    0.444609 0.891034 0.051144 0.160598
C161  C     C_R   1.000000 0.395921 0.000001 -0.023358
C162  C     C_R   0.500000 0.895922 0.000000 -0.023367
C163  C     C_R   0.999999 0.323787 0.000001 0.101080
C164  C     C_R   0.500000 0.823787 0.000002 0.101071
C165  C     C_R   0.514800 0.377909 0.936293 -0.176134
C166  C     C_R   0.485197 0.377910 0.063709 -0.176133
C167  C     C_R   0.014975 0.877919 0.936283 -0.176139
C168  C     C_R   0.985031 0.877917 0.063707 -0.176146
H77   H     H_    0.526692 0.391399 0.886445 0.152246
H78   H     H_    0.473305 0.391400 0.113557 0.152256
H79   H     H_    0.026998 0.891414 0.886442 0.152103
H80   H     H_    0.973006 0.891410 0.113550 0.152090
C169  C     C_R   0.515173 0.342138 0.936242 -0.158190
C170  C     C_R   0.484822 0.342139 0.063762 -0.158167
C171  C     C_R   0.015354 0.842149 0.936232 -0.158083
C172  C     C_R   0.984655 0.842146 0.063751 -0.158101
H81   H     H_    0.527802 0.328994 0.886100 0.132071
H82   H     H_    0.472192 0.328996 0.113904 0.132100
H83   H     H_    0.028122 0.829010 0.886099 0.132066
H84   H     H_    0.971888 0.829005 0.113882 0.132040
C173  C     C_R   0.499997 0.323731 0.000002 0.104390
C174  C     C_R   0.000006 0.823739 0.999990 0.104362
C175  C     C_R   0.499999 0.396057 0.000001 -0.024752
C176  C     C_R   0.000002 0.896063 0.999996 -0.024565
C177  C     C_R   0.502050 0.267177 0.053517 -0.168899
C178  C     C_R   0.497941 0.267176 0.946490 -0.168908
C179  C     C_R   0.001815 0.767180 0.053772 -0.168770
C180  C     C_R   0.998200 0.767182 0.946197 -0.168765
H85   H     H_    0.504430 0.280314 0.094715 0.135401
H86   H     H_    0.495562 0.280314 0.905292 0.135409
H87   H     H_    0.004004 0.780314 0.095196 0.135382
H88   H     H_    0.996010 0.780317 0.904775 0.135375
C181  C     C_R   0.001412 0.731410 0.054143 -0.148510
C182  C     C_R   0.998603 0.731411 0.945823 -0.148466
C183  C     C_R   0.501652 0.231406 0.053889 -0.148339
C184  C     C_R   0.498338 0.231406 0.946118 -0.148390
H89   H     H_    0.002747 0.717730 0.096065 0.161355
H90   H     H_    0.997268 0.717732 0.903900 0.161317
H91   H     H_    0.503180 0.217724 0.095596 0.161453
H92   H     H_    0.496811 0.217724 0.904411 0.161499
C185  C     C_R   0.000008 0.713406 0.999982 0.079517
C186  C     C_R   0.499996 0.213405 0.000003 0.079239
C187  C     C_R   0.499996 0.285587 0.000003 0.094286
C188  C     C_R   0.000007 0.785593 0.999986 0.094285
C189  C     C_R   0.027942 0.657771 0.947567 -0.118023
C190  C     C_R   0.972065 0.657775 0.052403 -0.118192
C191  C     C_R   0.527999 0.157780 0.947754 -0.118242
C192  C     C_R   0.471995 0.157778 0.052248 -0.118136
H93   H     H_    0.049699 0.671432 0.906830 0.148468
H94   H     H_    0.950310 0.671439 0.093135 0.148220
H95   H     H_    0.549801 0.171447 0.907152 0.148185
H96   H     H_    0.450193 0.171443 0.092853 0.148484
C193  C     C_R   0.028150 0.622003 0.948088 -0.062507
C194  C     C_R   0.971854 0.622007 0.051892 -0.062364
C195  C     C_R   0.528205 0.122012 0.948263 -0.062395
C196  C     C_R   0.471791 0.122010 0.051734 -0.062469
H97   H     H_    0.050094 0.608557 0.907413 0.185731
H98   H     H_    0.949907 0.608564 0.092568 0.185248
H99   H     H_    0.550198 0.108570 0.907712 0.184876
H100  H     H_    0.449799 0.108566 0.092285 0.185507
C197  C     C_R   0.000002 0.603839 0.999995 -0.015601
C198  C     C_R   0.499998 0.103843 0.999996 -0.015629
C199  C     C_R   0.000005 0.675784 0.999984 0.068243
C200  C     C_R   0.499996 0.175787 0.000002 0.068188
N1    N     N_R   0.396769 0.551879 0.174467 0.150615
O49   O     O_R   0.386901 0.559346 0.239884 -0.283547
O50   O     O_R   0.421425 0.569528 0.124849 -0.387103
N2    N     N_R   0.603231 0.551879 0.825535 0.150610
O51   O     O_R   0.613100 0.559347 0.760119 -0.283585
O52   O     O_R   0.578575 0.569528 0.875154 -0.387115
N3    N     N_R   0.896769 0.051883 0.174456 0.150612
O53   O     O_R   0.886900 0.059354 0.239871 -0.283576
O54   O     O_R   0.921425 0.069530 0.124834 -0.387089
N4    N     N_R   0.103232 0.051854 0.825473 0.150636
O55   O     O_R   0.113100 0.059299 0.760047 -0.283535
O56   O     O_R   0.078579 0.069516 0.875069 -0.387042
O57   O     O_3   0.010752 0.436124 0.800104 -0.718775
H101  H     H_    0.009306 0.438715 0.846686 0.313611
O58   O     O_3   0.988549 0.436228 0.200624 -0.718731
H102  H     H_    0.990100 0.438783 0.153942 0.313736
O59   O     O_3   0.511809 0.936284 0.799000 -0.718699
H103  H     H_    0.510203 0.938819 0.845735 0.313806
O60   O     O_3   0.489018 0.936158 0.200133 -0.718755
H104  H     H_    0.490500 0.938738 0.153517 0.313648
N5    N     N_R   0.955376 0.573493 0.859984 0.117252
O61   O     O_R   0.927731 0.557958 0.868944 -0.356532
O62   O     O_R   0.953334 0.594488 0.908351 -0.321082
N6    N     N_R   0.045432 0.572990 0.139194 0.117538
O63   O     O_R   0.072916 0.557204 0.130474 -0.356577
O64   O     O_R   0.047687 0.593883 0.090495 -0.320240
N7    N     N_R   0.454142 0.072715 0.861236 0.117677
O65   O     O_R   0.426748 0.056790 0.869814 -0.356656
O66   O     O_R   0.451766 0.093553 0.910116 -0.319942
N8    N     N_R   0.544900 0.073325 0.139753 0.117356
O67   O     O_R   0.572486 0.057693 0.130871 -0.356596
O68   O     O_R   0.547022 0.094302 0.091291 -0.320891
N9    N     N_R   0.017036 0.585612 0.796596 0.108999
O69   O     O_R   0.017856 0.618717 0.788894 -0.334568
O70   O     O_R   0.041135 0.570655 0.803984 -0.384895
N10   N     N_R   0.983903 0.585758 0.202419 0.109042
O71   O     O_R   0.983465 0.618879 0.209610 -0.334412
O72   O     O_R   0.959598 0.571037 0.195387 -0.385715
N11   N     N_R   0.515597 0.085836 0.798124 0.109131
O73   O     O_R   0.515825 0.118964 0.791216 -0.334195
O74   O     O_R   0.540008 0.071244 0.804981 -0.385953
N12   N     N_R   0.483285 0.085667 0.203063 0.109140
O75   O     O_R   0.482566 0.118772 0.210708 -0.334417
O76   O     O_R   0.459188 0.070808 0.195522 -0.385097
O77   O     O_3   0.326111 0.554585 0.238120 -0.677305
H105  H     H_    0.303757 0.559187 0.240602 0.329135
O78   O     O_3   0.673890 0.554585 0.761883 -0.677340
H106  H     H_    0.696243 0.559187 0.759400 0.329118
O79   O     O_3   0.826110 0.054588 0.238108 -0.677349
H107  H     H_    0.803757 0.059189 0.240589 0.329114
O80   O     O_3   0.173890 0.054562 0.761816 -0.677312
H108  H     H_    0.196243 0.059173 0.759329 0.329134

loop_
_geom_bond_atom_site_label_1
_geom_bond_atom_site_label_2
_geom_bond_distance
_ccdc_geom_bond_type
C59   C63   1.413878 A    
C34   C38   1.547552 S    
C31   C35   1.494741 S    
C146  H66   1.082980 S    
O35   Cu11  1.958867 S    
C84   H36   1.082991 S    
C59   N3    1.437724 S    
C136  C138  1.403774 A    
C133  H57   1.083006 S    
O44   Cu11  1.958122 S    
C129  H53   1.082848 S    
C127  C139  1.474591 S    
N10   O72   1.301571 A    
C94   H42   1.083125 S    
C55   C59   1.409793 A    
C177  C187  1.408902 A    
C5    C13   1.449579 S    
C194  H98   1.082862 S    
C9    C13   1.386182 A    
C60   C64   1.413888 A    
O23   C117  1.284201 A    
C38   H10   1.111862 S    
C108  C112  1.402549 A    
Cu11  O47   1.959153 S    
C75   C111  1.471664 S    
C149  C163  1.477120 S    
C150  C164  1.477112 S    
C192  H96   1.083278 S    
C156  C160  1.394682 A    
C179  C181  1.396064 A    
O4    C4    1.294667 A    
C91   C95   1.396314 A    
C20   H4    1.083282 S    
O25   C115  1.282859 A    
C41   C61   1.398360 A    
C2    C98   1.471613 S    
C43   C63   1.398360 A    
O27   Cu8   1.973724 S    
C158  C161  1.404713 A    
O21   Cu5   1.972886 S    
O42   C124  1.298811 A    
C41   C45   1.391174 A    
C66   C86   1.405807 A    
C101  H45   1.083129 S    
C114  C162  1.474013 S    
O48   C128  1.302489 A    
C102  C106  1.396322 A    
C71   C75   1.401781 A    
C33   N9    1.467160 S    
C180  C188  1.408910 A    
C100  C104  1.403974 A    
C129  C133  1.394619 A    
C173  C187  1.488628 S    
C78   H30   1.083271 S    
C38   H6    1.111521 S    
C103  H47   1.083128 S    
O16   Cu4   1.972904 S    
C58   C62   1.413878 A    
C157  H73   1.082875 S    
O7    Cu4   1.955131 S    
C93   C97   1.404610 A    
C3    C99   1.471617 S    
C143  H63   1.082986 S    
O4    Cu2   1.956298 S    
C90   C94   1.396318 A    
C165  H77   1.083278 S    
C24   O60   1.382072 S    
O22   Cu6   1.972890 S    
O9    C5    1.291499 A    
C26   C30   1.383027 A    
C39   H11   1.111862 S    
N5    O61   1.301983 A    
O8    Cu4   1.955140 S    
O42   Cu9   1.958122 S    
C17   C21   1.410635 A    
N7    O65   1.301985 A    
C68   C88   1.405817 A    
O41   Cu10  1.958122 S    
C19   C23   1.410659 A    
C170  H82   1.082138 S    
C168  C172  1.396103 A    
O40   Cu12  1.957119 S    
C148  C150  1.404168 A    
O3    Cu2   1.956299 S    
C48   H20   1.083246 S    
N6    O64   1.301459 A    
C107  H51   1.083295 S    
O58   H102  0.988925 S    
C33   C37   1.547530 S    
C47   C51   1.403267 A    
N9    O69   1.301022 A    
C166  H78   1.083279 S    
C35   C39   1.547567 S    
C177  C183  1.396082 A    
C61   C123  1.470082 S    
C36   C40   1.547541 S    
C157  C161  1.404709 A    
O77   H105  0.989614 S    
O17   Cu5   1.958814 S    
Cu5   O29   1.958813 S    
C25   C29   1.383023 A    
C142  C151  1.404161 A    
C27   C31   1.383024 A    
C131  C140  1.404850 A    
O22   C116  1.284186 A    
C79   H31   1.083274 S    
O3    C3    1.294670 A    
C143  C145  1.394624 A    
C37   H5    1.111523 S    
C24   C28   1.423826 A    
C78   C82   1.396256 A    
C41   H13   1.083652 S    
O79   H107  0.989611 S    
C43   H15   1.083650 S    
C97   C101  1.403978 A    
C171  H83   1.082122 S    
C132  C140  1.404853 A    
C106  C110  1.402550 A    
N4    O55   1.301191 A    
C73   C77   1.401990 A    
C10   C30   1.350458 A    
C8    C16   1.449553 S    
O43   Cu12  1.958122 S    
C12   C16   1.386175 A    
C146  C149  1.404167 A    
C65   C69   1.395790 A    
C32   C36   1.494796 S    
O36   C122  1.298346 A    
C76   C112  1.471656 S    
C135  C138  1.403773 A    
O41   C123  1.298813 A    
N11   O73   1.301039 A    
C171  C174  1.408056 A    
C89   C109  1.401957 A    
Cu10  O46   1.959150 S    
C91   C111  1.401954 A    
N2    O51   1.301186 A    
O20   C114  1.294679 A    
C190  C194  1.396011 A    
O5    Cu3   1.955131 S    
C154  C158  1.394678 A    
C194  C197  1.404522 A    
O28   C118  1.282857 A    
Cu7   O31   1.958813 S    
C120  C198  1.471539 S    
Cu11  Cu12  2.689627 S    
C179  H87   1.082067 S    
O33   Cu9   1.958867 S    
C144  H64   1.082984 S    
C83   C87   1.405554 A    
C179  C188  1.408907 A    
C90   H38   1.083270 S    
O29   C119  1.294064 A    
C190  C199  1.401026 A    
C181  C185  1.399593 A    
C154  C163  1.403845 A    
O7    C3    1.293816 A    
C51   C87   1.484077 S    
C6    C14   1.449497 S    
C9    C37   1.494278 S    
C131  C135  1.394623 A    
C10   C14   1.386181 A    
C95   H43   1.083127 S    
O13   Cu3   1.972898 S    
C11   C39   1.494349 S    
C160  H76   1.082870 S    
C12   C40   1.494271 S    
O35   C122  1.298346 A    
C167  C176  1.402060 A    
C95   C99   1.404608 A    
O44   C126  1.298816 A    
C165  C175  1.402121 A    
C72   H28   1.083266 S    
C51   C55   1.422231 A    
C91   H39   1.083270 S    
O5    C1    1.293816 A    
C77   H29   1.083272 S    
Cu8   O32   1.958814 S    
C75   C79   1.401990 A    
O8    C4    1.293815 A    
C178  C184  1.396082 A    
O19   Cu7   1.958814 S    
C62   C124  1.470085 S    
C145  C149  1.404172 A    
C1    C97   1.471609 S    
O15   Cu4   1.972898 S    
C35   N7    1.467820 S    
C69   H25   1.083258 S    
C137  C151  1.477096 S    
C71   H27   1.083258 S    
C138  C152  1.477084 S    
C172  C174  1.408059 A    
C56   O80   1.382000 S    
C182  C185  1.399588 A    
C53   C57   1.409794 A    
C103  C107  1.396326 A    
N12   O75   1.301020 A    
C25   C115  1.433269 S    
C104  C108  1.396321 A    
C65   H21   1.083049 S    
C144  C146  1.394624 A    
O39   Cu11  1.957124 S    
O14   C6    1.286970 A    
C67   H23   1.083049 S    
C94   C98   1.404611 A    
C92   H40   1.083272 S    
O37   Cu9   1.957124 S    
N7    O66   1.301463 A    
O1    Cu1   1.956299 S    
O17   C113  1.294687 A    
C170  C173  1.408020 A    
O32   C120  1.294090 A    
O46   C127  1.302491 A    
C76   C80   1.401994 A    
C11   C31   1.350459 A    
O10   C6    1.291463 A    
C142  H62   1.082984 S    
C178  H86   1.082079 S    
C36   N12   1.467154 S    
C56   C60   1.409794 A    
C28   C118  1.433296 S    
C49   C53   1.422230 A    
C18   C22   1.410652 A    
C142  C148  1.394624 A    
C168  H80   1.083280 S    
C69   C73   1.401781 A    
O40   C126  1.299074 A    
O47   C128  1.302490 A    
C181  H89   1.083454 S    
Cu9   O45   1.959153 S    
C119  C197  1.471437 S    
C45   H17   1.083246 S    
C55   O79   1.381994 S    
C134  H58   1.083005 S    
C47   H19   1.083243 S    
O36   Cu12  1.958869 S    
C130  C139  1.404852 A    
C160  C162  1.404707 A    
C81   H33   1.082981 S    
O34   Cu10  1.958869 S    
C44   C48   1.391178 A    
C196  C198  1.404576 A    
O60   H104  0.988930 S    
N1    O50   1.300885 A    
O20   Cu8   1.958814 S    
C130  H54   1.082845 S    
C79   C83   1.396256 A    
C191  H95   1.083279 S    
C80   C84   1.396261 A    
C66   H22   1.083048 S    
C195  H99   1.082870 S    
C54   C58   1.409797 A    
C77   C81   1.396256 A    
O24   C118  1.284167 A    
C36   N8    1.467801 S    
O31   C120  1.294071 A    
O38   C124  1.299070 A    
Cu12  O48   1.959150 S    
C34   N10   1.467164 S    
C159  C162  1.404706 A    
O19   C114  1.294688 A    
C98   C102  1.403978 A    
C167  C171  1.396100 A    
C191  C195  1.396024 A    
C132  C136  1.394619 A    
C106  H50   1.083296 S    
C134  C137  1.403776 A    
C189  C199  1.401031 A    
C195  C198  1.404570 A    
C42   C62   1.398364 A    
C45   C49   1.403264 A    
C105  C109  1.402553 A    
C158  H74   1.082872 S    
O28   Cu7   1.973724 S    
C153  H69   1.083009 S    
C42   C46   1.391174 A    
C192  C200  1.400958 A    
C22   O58   1.382078 S    
C50   C54   1.422229 A    
O12   Cu2   1.973117 S    
C90   C110  1.401957 A    
C155  H71   1.083009 S    
C130  C134  1.394619 A    
C44   H16   1.083656 S    
C156  H72   1.083007 S    
O1    C1    1.294670 A    
N10   O71   1.301036 A    
C190  H94   1.083280 S    
C193  C197  1.404528 A    
C29   C33   1.494795 S    
C23   C27   1.423872 A    
O25   Cu6   1.973724 S    
C155  C159  1.394682 A    
C46   H18   1.083248 S    
C156  C164  1.403841 A    
O43   C125  1.298811 A    
C132  H56   1.082846 S    
C15   C19   1.415266 A    
C44   C64   1.398365 A    
C141  H61   1.082978 S    
C82   C86   1.405557 A    
C135  H59   1.083008 S    
C141  C151  1.404165 A    
C21   C25   1.423807 A    
C148  H68   1.082982 S    
N3    O54   1.300885 A    
C128  C140  1.474591 S    
O26   Cu5   1.973724 S    
C50   C86   1.484073 S    
C7    C15   1.449467 S    
C10   C38   1.494321 S    
C11   C15   1.386192 A    
C40   H8    1.111528 S    
C58   N2    1.437725 S    
C73   C109  1.471660 S    
C185  C199  1.468249 S    
C174  C188  1.488695 S    
C169  H81   1.082139 S    
C72   C76   1.401780 A    
O45   C127  1.302488 A    
C133  C137  1.403774 A    
O6    C2    1.293813 A    
N4    O56   1.300891 A    
C18   H2    1.083294 S    
N8    O67   1.301987 A    
C96   H44   1.083125 S    
C26   C116  1.433354 S    
C83   H35   1.082982 S    
C81   C85   1.405560 A    
C46   C50   1.403266 A    
C145  H65   1.082981 S    
C166  C175  1.402124 A    
C57   N1    1.437725 S    
C68   C72   1.395791 A    
O18   C113  1.294685 A    
C35   N11   1.467185 S    
C84   C88   1.405558 A    
C43   C47   1.391178 A    
O30   C119  1.294043 A    
C196  H100  1.082867 S    
N2    O52   1.300885 A    
O2    Cu1   1.956298 S    
O10   Cu1   1.973117 S    
C93   H41   1.083127 S    
O13   C5    1.286969 A    
C68   H24   1.083050 S    
C104  H48   1.083129 S    
C60   N4    1.437722 S    
C42   H14   1.083651 S    
O39   C125  1.299070 A    
O80   H108  0.989612 S    
N5    O62   1.301434 A    
C159  H75   1.082874 S    
C92   C96   1.396318 A    
O37   C123  1.299072 A    
C101  C105  1.396322 A    
C183  H91   1.083456 S    
C12   C32   1.350460 A    
C89   H37   1.083270 S    
C27   C117  1.433390 S    
C113  C161  1.474013 S    
Cu5   Cu6   2.668770 S    
C192  C196  1.396024 A    
O15   C7    1.286976 A    
N3    O53   1.301187 A    
C52   C56   1.422229 A    
O26   C116  1.282863 A    
N6    O63   1.301982 A    
C153  C163  1.403841 A    
N11   O74   1.301569 A    
Cu7   Cu8   2.668770 S    
C34   N6    1.467813 S    
N9    O70   1.301544 A    
C66   C70   1.395790 A    
O21   C115  1.284154 A    
C147  H67   1.082981 S    
C65   C85   1.405806 A    
C49   C85   1.484073 S    
C168  C176  1.402057 A    
C4    C100  1.471609 S    
C180  C182  1.396072 A    
C21   O57   1.382072 S    
C20   C24   1.410643 A    
C178  C187  1.408902 A    
C64   C126  1.470095 S    
C155  C164  1.403839 A    
C147  C150  1.404167 A    
O16   C8    1.286974 A    
O78   H106  0.989609 S    
O27   C117  1.282860 A    
C180  H88   1.082063 S    
C136  H60   1.083005 S    
C122  C176  1.471437 S    
C89   C93   1.396314 A    
O11   C7    1.291437 A    
C165  C169  1.396108 A    
O12   C8    1.291486 A    
C17   H1    1.083280 S    
O9    Cu1   1.973119 S    
C189  C193  1.396012 A    
C80   H32   1.083275 S    
N12   O76   1.301520 A    
C19   H3    1.083299 S    
O24   Cu8   1.972890 S    
C39   H7    1.111525 S    
C141  C147  1.394624 A    
O38   Cu10  1.957119 S    
C16   C20   1.415305 A    
C184  C186  1.399544 A    
O33   C121  1.298382 A    
O11   Cu2   1.973119 S    
C167  H79   1.083280 S    
C143  C152  1.404155 A    
C169  C173  1.408023 A    
C172  H84   1.082123 S    
C74   C78   1.401991 A    
C99   C103  1.403977 A    
C108  H52   1.083297 S    
C53   O77   1.381997 S    
O6    Cu3   1.955140 S    
C105  H49   1.083297 S    
C92   C112  1.401956 A    
C166  C170  1.396109 A    
C121  C175  1.471590 S    
O18   Cu6   1.958814 S    
C67   C71   1.395790 A    
O59   H103  0.988927 S    
C70   H26   1.083258 S    
Cu6   O30   1.958814 S    
C154  H70   1.083005 S    
C33   N5    1.467803 S    
C23   O59   1.382078 S    
O2    C2    1.294673 A    
C193  H97   1.082864 S    
C13   C17   1.415319 A    
C30   C34   1.494762 S    
C37   H9    1.111856 S    
C186  C200  1.468069 S    
C129  C139  1.404853 A    
N8    O68   1.301434 A    
C14   C18   1.415287 A    
C107  C111  1.402553 A    
O14   Cu3   1.972904 S    
C184  H92   1.083458 S    
O34   C121  1.298386 A    
C82   H34   1.082983 S    
C63   C125  1.470081 S    
C183  C186  1.399541 A    
Cu1   Cu3   2.669792 S    
C48   C52   1.403269 A    
N1    O49   1.301187 A    
C22   C26   1.423849 A    
Cu2   Cu4   2.669792 S    
O57   H101  0.988929 S    
C9    C29   1.350457 A    
C177  H85   1.082077 S    
C144  C152  1.404161 A    
C102  H46   1.083129 S    
C40   H12   1.111855 S    
C52   C88   1.484077 S    
C131  H55   1.082848 S    
C191  C200  1.400960 A    
C70   C74   1.401779 A    
C74   C110  1.471660 S    
C96   C100  1.404608 A    
O23   Cu7   1.972886 S    
C189  H93   1.083283 S    
C182  H90   1.083453 S    
Cu9   Cu10  2.689627 S    
C54   O78   1.381998 S    
C67   C87   1.405808 A    
C57   C61   1.413882 A    
C28   C32   1.383028 A    
C153  C157  1.394678 A    
