data_mof_unit_41746.cif
_audit_creation_date              2012-10-26T19:07:29-0400
_audit_creation_method            fapswitch 2.2
_symmetry_space_group_name_H-M    P1
_symmetry_Int_Tables_number       1
_space_group_crystal_system       triclinic
_cell_length_a                    15.04545
_cell_length_b                    14.001027
_cell_length_c                    10.62793
_cell_angle_alpha                 89.029697
_cell_angle_beta                  85.670362
_cell_angle_gamma                 88.404991
_cell_volume                      2231.29098575

loop_
_atom_site_label
_atom_site_type_symbol
_atom_type_description
_atom_site_fract_x
_atom_site_fract_y
_atom_site_fract_z
_atom_type_partial_charge
C1    C     C_R   0.329470 0.500583 0.496177 0.528581
C2    C     C_R   0.959792 0.405462 0.311597 -0.142215
C3    C     C_R   0.440785 0.795374 0.582203 0.134096
C4    C     C_R   0.557588 0.202804 0.416728 0.128977
C5    C     C_R   0.554943 0.794605 0.411875 0.129883
C6    C     C_R   0.442027 0.206046 0.584448 0.128872
C7    C     C_R   0.547643 0.897165 0.402368 -0.001705
C8    C     C_R   0.439119 0.103416 0.582160 -0.006822
C9    C     C_R   0.442025 0.897762 0.584736 -0.004350
C10   C     C_R   0.546006 0.102418 0.402498 -0.013597
C11   C     C_R   0.493812 0.948631 0.492703 0.029001
C12   C     C_R   0.670287 0.498974 0.504019 0.533102
C13   C     C_R   0.492275 0.051717 0.491719 0.027700
C14   C     C_R   0.592584 0.950569 0.304131 -0.154667
C15   C     C_R   0.384826 0.050286 0.670079 -0.159945
C16   C     C_R   0.389235 0.951368 0.674868 -0.158966
C17   C     C_R   0.591187 0.050200 0.303945 -0.158879
C18   C     C_R   0.499557 0.500686 0.259790 0.526694
C19   C     C_R   0.499223 0.499730 0.740447 0.527401
C20   C     C_3   0.433600 0.560977 0.047296 -0.122079
C21   C     C_3   0.564386 0.441793 0.953607 -0.131198
C22   C     C_3   0.512679 0.590137 0.954775 -0.112833
C23   C     C_R   0.952426 0.497979 0.503836 0.045674
C24   C     C_3   0.484923 0.412752 0.045684 -0.119054
C25   C     C_3   0.419702 0.471972 0.967916 -0.134540
C26   C     C_3   0.578164 0.531176 0.032731 -0.134837
C27   C     C_3   0.498998 0.500504 0.877807 0.044552
C28   C     C_3   0.498949 0.501878 0.122746 0.047282
C29   C     C_R   0.817425 0.452558 0.413207 -0.166877
C30   C     C_R   0.181507 0.544589 0.587346 -0.164778
C31   C     C_R   0.766284 0.496954 0.511185 -0.000742
C32   C     C_R   0.232969 0.500167 0.489855 -0.004702
C33   C     C_R   0.806796 0.540886 0.610682 -0.016733
C34   C     C_R   0.046522 0.497935 0.497674 0.045865
C35   C     C_R   0.192244 0.448109 0.396964 -0.018951
C36   C     C_R   0.901315 0.542727 0.605327 0.023093
C37   C     C_R   0.097644 0.449657 0.399148 0.023997
C38   C     C_3   0.750308 0.579554 0.724993 -0.239545
C39   C     C_3   0.740925 0.689343 0.720644 -0.288033
C40   C     C_3   0.730608 0.731360 0.852742 -0.465763
C41   C     C_3   0.248718 0.383840 0.305926 -0.238415
C42   C     C_3   0.248341 0.280641 0.358269 -0.276741
C43   C     C_3   0.307269 0.213133 0.275637 -0.450100
C44   C     C_3   0.369725 0.747142 0.669607 -0.208032
C45   C     C_R   0.909744 0.451919 0.409286 0.008981
C46   C     C_3   0.274477 0.772663 0.632005 -0.312318
C47   C     C_3   0.206562 0.770701 0.746345 -0.472841
C48   C     C_3   0.648710 0.238803 0.365321 -0.201432
C49   C     C_3   0.649161 0.290491 0.236409 -0.276243
C50   C     C_3   0.732818 0.266290 0.151029 -0.487973
C51   C     C_3   0.625337 0.744466 0.322985 -0.210319
C52   C     C_3   0.720819 0.763485 0.357053 -0.314775
C53   C     C_3   0.789805 0.713385 0.266228 -0.459689
C54   C     C_3   0.384015 0.255562 0.689172 -0.205273
C55   C     C_3   0.419687 0.235799 0.819934 -0.306488
C56   C     C_R   0.089144 0.543700 0.592523 0.011530
C57   C     C_3   0.344568 0.235570 0.924537 -0.474417
C58   C     C_R   0.946495 0.586832 0.699273 -0.143908
C59   C     C_R   0.052254 0.403156 0.307192 -0.141417
C60   C     C_R   0.038971 0.586968 0.692871 -0.144679
Cu1   Cu    Cu3+1 0.500000 0.597420 0.500000 0.883506
Cu2   Cu    Cu3+1 0.500000 0.402580 0.500000 0.884421
H1    H     H_    0.354246 0.450805 0.937989 0.093791
H2    H     H_    0.086426 0.364277 0.230450 0.107987
H3    H     H_    0.071258 0.620676 0.767527 0.103897
H4    H     H_    0.927326 0.369775 0.238616 0.100934
H5    H     H_    0.630709 0.917243 0.225971 0.110153
H6    H     H_    0.338782 0.083117 0.739731 0.120374
H7    H     H_    0.348688 0.918631 0.750662 0.118062
H8    H     H_    0.626966 0.086033 0.225649 0.115250
H9    H     H_    0.673359 0.699938 0.908794 0.150446
H10   H     H_    0.792010 0.717090 0.902509 0.139170
H11   H     H_    0.719038 0.809867 0.845707 0.140751
H12   H     H_    0.642883 0.555453 0.062574 0.089267
H13   H     H_    0.799984 0.721479 0.668753 0.157198
H14   H     H_    0.681248 0.710533 0.670156 0.186534
H15   H     H_    0.682748 0.549420 0.732903 0.155983
H16   H     H_    0.779720 0.553657 0.812560 0.126114
H17   H     H_    0.276244 0.202703 0.185710 0.140337
H18   H     H_    0.375216 0.241795 0.257141 0.166543
H19   H     H_    0.313027 0.142597 0.324191 0.146961
H20   H     H_    0.272338 0.278680 0.454548 0.185937
H21   H     H_    0.179306 0.253791 0.365810 0.152820
H22   H     H_    0.225406 0.387661 0.209511 0.112677
H23   H     H_    0.380192 0.609756 0.088754 0.108458
H24   H     H_    0.318096 0.408409 0.290852 0.174909
H25   H     H_    0.212565 0.702688 0.800545 0.138828
H26   H     H_    0.217366 0.830665 0.809963 0.144698
H27   H     H_    0.138150 0.778657 0.714380 0.148626
H28   H     H_    0.269738 0.844277 0.586355 0.164866
H29   H     H_    0.255541 0.721850 0.560472 0.181499
H30   H     H_    0.375045 0.669855 0.674703 0.207921
H31   H     H_    0.378797 0.767439 0.768341 0.100122
H32   H     H_    0.793640 0.280687 0.199675 0.142997
H33   H     H_    0.734132 0.189962 0.124296 0.145528
H34   H     H_    0.617718 0.392826 0.912392 0.101982
H35   H     H_    0.733201 0.310845 0.063555 0.139318
H36   H     H_    0.590149 0.270849 0.186868 0.161569
H37   H     H_    0.648166 0.368644 0.250436 0.188417
H38   H     H_    0.681908 0.277959 0.435754 0.168187
H39   H     H_    0.697215 0.177482 0.357345 0.106056
H40   H     H_    0.779869 0.635038 0.268476 0.155751
H41   H     H_    0.784213 0.741096 0.168499 0.141856
H42   H     H_    0.857867 0.726834 0.294447 0.150639
H43   H     H_    0.734134 0.841009 0.355025 0.155790
H44   H     H_    0.729778 0.736395 0.453964 0.177949
H45   H     H_    0.522094 0.663148 0.914661 0.113631
H46   H     H_    0.619951 0.667763 0.321338 0.219314
H47   H     H_    0.615966 0.765487 0.223634 0.097265
H48   H     H_    0.301647 0.173156 0.916590 0.142549
H49   H     H_    0.374337 0.230458 0.016450 0.138076
H50   H     H_    0.302366 0.301541 0.920792 0.145533
H51   H     H_    0.457092 0.166498 0.824223 0.160009
H52   H     H_    0.467903 0.290627 0.840030 0.187328
H53   H     H_    0.375341 0.332385 0.678144 0.206462
H54   H     H_    0.314483 0.231448 0.685986 0.093798
H55   H     H_    0.472617 0.340498 0.086000 0.104081
H56   H     H_    0.784769 0.419665 0.338214 0.099278
H57   H     H_    0.214260 0.576342 0.662918 0.102893
H58   H     H_    0.911640 0.622162 0.778670 0.117461
N1    N     N_R   0.500000 0.743810 0.500000 -0.236560
N2    N     N_R   0.500000 0.256190 0.500000 -0.227055
O1    O     O_R   0.370260 0.582280 0.500030 -0.514250
O2    O     O_R   0.629740 0.417720 0.499970 -0.513759
O3    O     O_R   0.629740 0.582280 0.499970 -0.519691
O4    O     O_R   0.370260 0.417720 0.500030 -0.527037
O5    O     O_R   0.499980 0.582260 0.316850 -0.519071
O6    O     O_R   0.500020 0.417740 0.683150 -0.519255
O7    O     O_R   0.500020 0.582260 0.683150 -0.528777
O8    O     O_R   0.499980 0.417740 0.316850 -0.515714

loop_
_geom_bond_atom_site_label_1
_geom_bond_atom_site_label_2
_ccdc_geom_bond_type
C19   O7    A    
Cu2   O6    S    
C21   C26   S    
C34   C56   A    
C8    C13   A    
C23   C45   A    
C40   H9    S    
C34   C37   A    
C41   C42   S    
Cu2   O8    S    
C42   H20   S    
Cu2   O2    S    
C7    C11   A    
C41   H24   S    
C24   H55   S    
C35   C37   A    
C9    C16   A    
C36   C58   A    
C38   C39   S    
C50   H33   S    
C57   H50   S    
C20   C25   S    
C48   H39   S    
C10   C17   A    
C58   C60   A    
C15   C16   A    
C5    N1    A    
C19   O6    A    
C33   C36   A    
C40   H11   S    
Cu1   N1    S    
C25   H1    S    
C44   H31   S    
C49   H36   S    
C46   C47   S    
C7    C14   A    
C51   H46   S    
C54   H54   S    
C14   H5    S    
C31   C33   A    
C39   H13   S    
C19   C27   S    
C44   H30   S    
Cu1   O7    S    
C21   C27   S    
C52   H44   S    
C17   H8    S    
C51   H47   S    
C54   H53   S    
C47   H27   S    
C14   C17   A    
C22   H45   S    
C6    C54   S    
C44   C46   S    
C55   H51   S    
C2    C45   A    
C48   H38   S    
C3    C44   S    
C16   H7    S    
C51   C52   S    
C32   C35   A    
C18   C28   S    
C1    O4    A    
C39   C40   S    
C5    C7    A    
C2    C59   A    
C50   H32   S    
C6    C8    A    
C46   H29   S    
C38   H16   S    
C43   H18   S    
C41   H22   S    
C30   C56   A    
C1    C32   S    
C56   C60   A    
C29   C45   A    
C47   H25   S    
C1    O1    A    
C3    C9    A    
C18   O5    A    
C49   H37   S    
C57   H48   S    
C12   O2    A    
C53   H40   S    
C23   C34   A    
C20   H23   S    
C58   H58   S    
C59   H2    S    
C4    N2    A    
Cu1   O5    S    
C39   H14   S    
C24   C25   S    
C9    C11   A    
C37   C59   A    
C48   C49   S    
C21   H34   S    
C20   C22   S    
C60   H3    S    
C23   C36   A    
C8    C15   A    
C22   C27   S    
C55   C57   S    
C12   C31   S    
C22   C26   S    
C43   H19   S    
C18   O8    A    
C55   H52   S    
C42   C43   S    
C6    N2    A    
C4    C10   A    
Cu2   N2    S    
C52   C53   S    
Cu2   O4    S    
C4    C48   S    
C54   C55   S    
C50   H35   S    
C40   H10   S    
C42   H21   S    
C24   C28   S    
C2    H4    S    
C10   C13   A    
C52   H43   S    
C46   H28   S    
C38   H15   S    
C25   C27   S    
C20   C28   S    
C29   H56   S    
C26   C28   S    
C33   C38   S    
C12   O3    A    
Cu1   O1    S    
C47   H26   S    
C29   C31   A    
C30   C32   A    
C11   C13   A    
C57   H49   S    
C53   H41   S    
C15   H6    S    
C26   H12   S    
Cu1   Cu2   S    
C35   C41   S    
C49   C50   S    
C30   H57   S    
C21   C24   S    
C5    C51   S    
Cu1   O3    S    
C53   H42   S    
C43   H17   S    
C3    N1    A    
