data_mof_unit_48511.cif
_audit_creation_date              2012-12-10T17:33:06-0500
_audit_creation_method            fapswitch 2.2
_symmetry_space_group_name_H-M    P1
_symmetry_Int_Tables_number       1
_space_group_crystal_system       triclinic
_cell_length_a                    15.550735
_cell_length_b                    15.434554
_cell_length_c                    17.904754
_cell_angle_alpha                 91.463485
_cell_angle_beta                  110.08294
_cell_angle_gamma                 68.657201
_cell_volume                      3735.00750719

loop_
_atom_site_label
_atom_site_type_symbol
_atom_type_description
_atom_site_fract_x
_atom_site_fract_y
_atom_site_fract_z
_atom_type_partial_charge
C1    C     C_R   0.464654 0.740834 0.532633 0.947785
C2    C     C_R   0.572222 0.385933 0.069789 -0.107070
C3    C     C_R   0.639283 0.331774 0.033817 -0.110238
C4    C     C_R   0.537917 0.257923 0.470796 0.817486
C5    C     C_R   0.630569 0.364972 0.957898 0.057272
C6    C     C_R   0.555608 0.452548 0.919289 0.081766
C7    C     C_R   0.691255 0.310189 0.917120 -0.146972
C8    C     C_R   0.671091 0.336628 0.837319 -0.143704
C9    C     C_R   0.531099 0.472966 0.836719 -0.220678
C10   C     C_R   0.471430 0.941201 0.654805 0.450190
C11   C     C_R   0.451258 0.837129 0.551126 -0.248521
C12   C     C_R   0.329445 0.662984 0.154564 -0.020505
C13   C     C_R   0.589012 0.116039 0.397145 -0.037420
C14   C     C_R   0.590301 0.027018 0.380611 -0.203663
C15   C     C_R   0.561333 0.978246 0.424454 -0.163492
C16   C     C_R   0.757853 0.448103 0.532579 0.802983
C17   C     C_R   0.530688 0.016282 0.487589 0.146637
C18   C     C_R   0.547585 0.098165 0.514554 -0.001577
C19   C     C_R   0.494048 0.969419 0.529663 -0.020972
C20   C     C_R   0.494422 0.993832 0.606477 -0.001233
C21   C     C_R   0.523072 0.067692 0.636666 -0.213730
C22   C     C_R   0.555538 0.115804 0.594411 -0.116512
C23   C     C_R   0.477384 0.528662 0.163388 -0.198349
C24   C     C_R   0.459551 0.897594 0.498707 -0.136311
C25   C     C_R   0.449389 0.862464 0.627576 -0.164036
C26   C     C_R   0.561194 0.155977 0.462063 -0.176238
C27   C     C_R   0.025574 0.385925 0.647604 -0.180990
C28   C     C_R   0.242006 0.553095 0.469708 0.818689
C29   C     C_R   0.861167 0.431011 0.548762 0.006179
C30   C     C_R   0.066300 0.628490 0.382056 -0.295173
C31   C     C_R   0.966326 0.642288 0.359592 0.550820
C32   C     C_R   0.937978 0.592640 0.404436 -0.261169
C33   C     C_R   0.006155 0.536520 0.476956 0.008441
C34   C     C_R   0.456984 0.545350 0.081125 0.115872
C35   C     C_R   0.104487 0.534169 0.504770 0.077745
C36   C     C_R   0.979628 0.484169 0.523736 0.114811
C37   C     C_R   0.049680 0.436818 0.599740 0.161372
C38   C     C_R   0.141892 0.443710 0.629106 -0.228821
C39   C     C_R   0.168253 0.492929 0.583145 -0.157067
C40   C     C_R   0.561232 0.440306 0.711747 0.848024
C41   C     C_R   0.885512 0.478209 0.498586 -0.250598
C42   C     C_R   0.931337 0.384302 0.622732 -0.174715
C43   C     C_R   0.136121 0.574271 0.453793 -0.139579
C44   C     C_R   0.439801 0.558975 0.287049 0.828787
C45   C     C_R   0.383090 0.631992 0.040688 0.066159
C46   C     C_R   0.413508 0.584106 0.200493 -0.112435
C47   C     C_R   0.588815 0.416239 0.796680 -0.019208
C48   C     C_R   0.318880 0.688811 0.076659 -0.216433
C49   C     C_2   0.418747 0.811424 0.677766 0.924366
C50   C     C_3   0.570563 0.923526 0.786452 0.052359
C51   C     C_3   0.580256 0.977532 0.859885 -0.294393
C52   C     C_3   0.688271 0.955466 0.912039 -0.902039
C53   C     C_2   0.417178 0.894840 0.410733 0.928174
C54   C     C_2   0.623612 0.160563 0.347535 0.947417
C55   C     C_2   0.614015 0.169867 0.641820 0.940464
C56   C     C_R   0.511980 0.481730 0.039253 -0.053756
C57   C     C_3   0.888718 0.790909 0.290555 0.101324
C58   C     C_3   0.840494 0.841410 0.349581 -0.422247
C59   C     C_3   0.829127 0.943870 0.347060 -0.870374
C60   C     C_2   0.709948 0.235912 0.071223 0.940717
C61   C     C_2   0.251475 0.721058 0.184489 0.955582
C62   C     C_3   0.548707 0.667174 0.901029 0.091843
C63   C     C_3   0.545121 0.752057 0.948114 -0.378476
C64   C     C_3   0.647892 0.755079 0.986150 -0.929916
C65   C     C_2   0.552330 0.336700 0.128379 0.935009
C66   C     C_R   0.504215 0.515227 0.962917 -0.073091
C67   C     C_R   0.446006 0.611461 0.933177 0.472430
C68   C     C_R   0.378346 0.664164 0.967077 -0.285864
H1    H     H_    0.328506 0.734539 0.939486 0.174711
H2    H     H_    0.827955 0.513025 0.442392 0.133455
H3    H     H_    0.089952 0.658067 0.342185 0.192306
H4    H     H_    0.860984 0.602341 0.381983 0.159169
H5    H     H_    0.238465 0.500114 0.611244 0.173999
H6    H     H_    0.717137 0.292995 0.806434 0.170328
H7    H     H_    0.259184 0.752880 0.043287 0.169284
H8    H     H_    0.545522 0.474271 0.200189 0.174095
H9    H     H_    0.361172 0.815881 0.763940 0.361701
H10   H     H_    0.627538 0.923549 0.761859 0.125637
H11   H     H_    0.585538 0.849669 0.804966 0.148857
H12   H     H_    0.753141 0.245655 0.945677 0.165277
H13   H     H_    0.544108 0.054043 0.840295 0.249132
H14   H     H_    0.541839 0.959977 0.895797 0.230698
H15   H     H_    0.729018 0.879014 0.929229 0.256003
H16   H     H_    0.692006 0.990710 0.967255 0.300425
H17   H     H_    0.724667 0.981481 0.879168 0.271402
H18   H     H_    0.326005 0.967761 0.303008 0.360306
H19   H     H_    0.722827 0.214039 0.343436 0.380623
H20   H     H_    0.722281 0.120616 0.595212 0.306507
H21   H     H_    0.841179 0.827482 0.229453 0.183226
H22   H     H_    0.961318 0.796966 0.302961 0.137691
H23   H     H_    0.526479 0.084746 0.696353 0.204571
H24   H     H_    0.766537 0.837484 0.334390 0.233417
H25   H     H_    0.886882 0.807009 0.411540 0.223243
H26   H     H_    0.901982 0.949333 0.359783 0.271694
H27   H     H_    0.799300 0.977065 0.393275 0.270116
H28   H     H_    0.777403 0.982124 0.287367 0.278904
H29   H     H_    0.829923 0.155787 0.163921 0.349664
H30   H     H_    0.165608 0.850811 0.196457 0.346971
H31   H     H_    0.566490 0.678255 0.847888 0.179575
H32   H     H_    0.610480 0.602863 0.937424 0.144328
H33   H     H_    0.494571 0.817261 0.907172 0.247969
H34   H     H_    0.569749 0.907747 0.411139 0.148943
H35   H     H_    0.516661 0.748646 0.996527 0.233548
H36   H     H_    0.696527 0.694521 0.032766 0.280111
H37   H     H_    0.642603 0.820620 0.014670 0.278452
H38   H     H_    0.681369 0.752458 0.940078 0.255136
H39   H     H_    0.450038 0.312227 0.160338 0.371863
H40   H     H_    0.614397 0.994474 0.333135 0.170535
H41   H     H_    0.911819 0.349473 0.662488 0.149496
H42   H     H_    0.464985 0.530807 0.801508 0.194243
H43   H     H_    0.193892 0.411475 0.688496 0.160316
H44   H     H_    0.078525 0.350338 0.705759 0.152498
O1    O     O_3   0.500000 0.500000 0.500000 -0.508603
O2    O     O_R   0.596500 0.492780 0.688380 -0.640535
O3    O     O_R   0.388780 0.611210 0.325000 -0.601528
O4    O     O_R   0.499860 0.410860 0.661600 -0.598346
O5    O     O_R   0.514860 0.485140 0.325020 -0.640917
O6    O     O_2   0.422714 0.731632 0.667705 -0.655657
O7    O     O_R   0.381731 0.856349 0.735395 -0.748793
O8    O     O_3   0.473009 0.965911 0.730139 -0.594505
O9    O     O_2   0.444047 0.822287 0.380920 -0.638881
O10   O     O_R   0.348720 0.977390 0.361744 -0.767205
O11   O     O_2   0.586435 0.167494 0.274651 -0.601502
O12   O     O_R   0.707110 0.418540 0.472990 -0.614027
O13   O     O_R   0.703896 0.187345 0.383750 -0.764865
O14   O     O_2   0.588971 0.214194 0.693305 -0.586002
O15   O     O_R   0.699926 0.167937 0.631588 -0.802951
O16   O     O_3   0.895580 0.696744 0.289467 -0.637844
O17   O     O_2   0.700182 0.167796 0.038475 -0.637392
O18   O     O_R   0.787070 0.224136 0.144105 -0.754180
O19   O     O_2   0.211373 0.684204 0.214156 -0.614653
O20   O     O_R   0.220114 0.818573 0.174686 -0.797902
O21   O     O_3   0.455796 0.657767 0.873099 -0.661588
O22   O     O_2   0.620043 0.289251 0.188010 -0.578635
O23   O     O_R   0.267620 0.606720 0.435250 -0.630481
O24   O     O_R   0.455076 0.347007 0.115758 -0.778076
O25   O     O_R   0.540230 0.674660 0.578090 -0.629256
O26   O     O_R   0.485030 0.300080 0.513670 -0.625190
O27   O     O_R   0.403610 0.721990 0.472930 -0.605230
O28   O     O_R   0.571130 0.303270 0.435320 -0.605567
O29   O     O_R   0.717650 0.497270 0.578120 -0.649007
O30   O     O_R   0.307610 0.477470 0.513630 -0.644154
Zn1   Zn    Zn3+2 0.572030 0.427990 0.434470 1.032655
Zn2   Zn    Zn3+2 0.587090 0.540470 0.584680 1.013529
Zn3   Zn    Zn3+2 0.449010 0.423430 0.546420 1.029807
Zn4   Zn    Zn3+2 0.391880 0.608100 0.434430 1.053919

loop_
_geom_bond_atom_site_label_1
_geom_bond_atom_site_label_2
_ccdc_geom_bond_type
C40   C47   S    
C54   O11   D    
O27   Zn4   S    
C34   C56   A    
C29   C42   A    
C28   O23   A    
C19   C20   A    
O30   Zn3   S    
O28   Zn1   S    
C23   H8    S    
C63   H33   S    
C2    C65   S    
C50   H11   S    
C57   O16   S    
C30   H3    S    
C64   H37   S    
C32   H4    S    
C49   O7    S    
O3    Zn4   S    
C37   C38   A    
C57   H21   S    
C50   O8    S    
C5    C6    A    
C62   O21   S    
C36   C37   A    
C67   O21   S    
C42   H41   S    
H29   O18   S    
H20   O15   S    
C53   O10   S    
O4    Zn3   S    
C11   C25   A    
O26   Zn3   S    
C11   C24   A    
C33   C36   A    
C15   C17   A    
O1    Zn3   S    
C52   H16   S    
C61   O20   S    
C17   C19   A    
C40   O2    A    
C49   O6    D    
C44   O3    A    
C10   C20   A    
C68   H1    S    
C18   C26   A    
H18   O10   S    
O12   Zn1   S    
C59   H26   S    
C35   C43   A    
C51   H13   S    
C65   O22   D    
C1    O27   A    
C12   C48   A    
C3    C60   S    
C23   C34   A    
C14   H40   S    
C66   C67   A    
C16   O29   A    
C23   C46   A    
C21   C22   A    
C48   H7    S    
C36   C41   A    
C59   H27   S    
C31   O16   S    
C6    C9    A    
C50   H10   S    
C44   C46   S    
C50   C51   S    
C38   C39   A    
C54   O13   S    
C57   H22   S    
C51   C52   S    
C7    C8    A    
C63   H35   S    
O29   Zn2   S    
C60   O18   S    
C5    C7    A    
C3    C5    A    
C16   C29   S    
C67   C68   A    
O2    Zn2   S    
O1    Zn4   S    
C52   H15   S    
C35   C39   A    
C62   C63   S    
C4    O28   A    
C31   C32   A    
C55   O14   D    
C30   C31   A    
O23   Zn4   S    
C45   C68   A    
C8    H6    S    
C17   C18   A    
C62   H31   S    
C34   C45   A    
C51   H14   S    
C62   H32   S    
C10   C25   A    
C12   C46   A    
O25   Zn2   S    
C55   O15   S    
C27   H44   S    
C9    C47   A    
C30   C43   A    
C58   C59   S    
C28   O30   A    
C59   H28   S    
H19   O13   S    
C1    O25   A    
C13   C54   S    
C21   H23   S    
C45   C48   A    
C9    H42   S    
C64   H36   S    
C52   H17   S    
C29   C41   A    
C18   C22   A    
C58   H25   S    
H9    O7    S    
C60   O17   D    
C4    C26   S    
C64   H38   S    
C22   C55   S    
C28   C43   S    
O1    Zn2   S    
C32   C33   A    
C19   C24   A    
C24   C53   S    
C8    C47   A    
C53   O9    D    
C12   C61   S    
C27   C42   A    
C57   C58   S    
C40   O4    A    
C44   O5    A    
C27   C37   A    
C56   C66   A    
C33   C35   A    
C2    C3    A    
C39   H5    S    
C15   H34   S    
C16   O12   A    
C13   C26   A    
C25   C49   S    
C65   O24   S    
C10   O8    S    
C61   O19   D    
C4    O26   A    
C63   C64   S    
O1    Zn1   S    
C6    C66   A    
C20   C21   A    
O5    Zn1   S    
H30   O20   S    
C14   C15   A    
C41   H2    S    
C2    C56   A    
C1    C11   S    
C38   H43   S    
C13   C14   A    
C58   H24   S    
C7    H12   S    
H39   O24   S    
