data_mof_unit_17827.cif
_audit_creation_date              2013-03-05T15:57:27-0500
_audit_creation_method            fapswitch 2.2
_symmetry_space_group_name_H-M    P1
_symmetry_Int_Tables_number       1
_space_group_crystal_system       triclinic
_cell_length_a                    13.762283
_cell_length_b                    15.05344
_cell_length_c                    15.790273
_cell_angle_alpha                 88.801055
_cell_angle_beta                  70.264055
_cell_angle_gamma                 89.248171
_cell_volume                      3078.37045227

loop_
_atom_site_label
_atom_site_type_symbol
_atom_site_description
_atom_site_fract_x
_atom_site_fract_y
_atom_site_fract_z
_atom_type_partial_charge
O1    O     O_R   0.417730 0.629750 0.499970 -0.545857
O2    O     O_R   0.582270 0.370250 0.500030 -0.528904
O3    O     O_R   0.582270 0.629730 0.499980 -0.593779
O4    O     O_R   0.417730 0.370270 0.500020 -0.596583
C1    C     C_R   0.500282 0.671035 0.498168 0.806328
C2    C     C_R   0.499625 0.328957 0.502339 0.811666
O5    O     O_R   0.371590 0.500020 0.629830 -0.527970
O6    O     O_R   0.628410 0.499980 0.370170 -0.530376
O7    O     O_R   0.536130 0.499990 0.629840 -0.573937
O8    O     O_R   0.463870 0.500010 0.370160 -0.573886
C3    C     C_R   0.436802 0.503645 0.672503 0.826305
C4    C     C_R   0.562867 0.501834 0.327333 0.832511
Cu1   Cu    Cu3+1 0.402580 0.500010 0.499990 1.004395
Cu2   Cu    Cu3+1 0.597420 0.499990 0.500010 1.010822
C5    C     C_R   0.397331 0.515209 0.771300 -0.146646
C6    C     C_R   0.600404 0.512124 0.228147 -0.144927
C7    C     C_R   0.260275 0.521743 0.916300 -0.300810
C8    C     C_R   0.735239 0.531752 0.083225 -0.304756
C9    C     C_R   0.291332 0.508231 0.822843 0.512648
C10   C     C_R   0.706591 0.518279 0.177102 0.516770
C11   C     C_R   0.468297 0.535741 0.813685 -0.357626
C12   C     C_R   0.526449 0.520641 0.185395 -0.312841
C13   C     C_R   0.439517 0.541339 0.907620 0.095418
C14   C     C_R   0.554170 0.537059 0.092429 0.088273
C15   C     C_R   0.333333 0.534896 0.958707 0.097415
C16   C     C_R   0.660528 0.541860 0.041522 0.104035
C17   C     C_R   0.513429 0.549126 0.952333 0.085991
C18   C     C_R   0.479455 0.544373 0.048124 0.079012
C19   C     C_R   0.372021 0.545929 0.096110 -0.198009
C20   C     C_R   0.620329 0.558478 0.904767 -0.224838
C21   C     C_R   0.300622 0.541344 0.051961 -0.194803
C22   C     C_R   0.692055 0.555025 0.948736 -0.198540
H1    H     H_    0.219089 0.540148 0.091537 0.144059
H2    H     H_    0.773322 0.560755 0.909272 0.143513
H3    H     H_    0.446920 0.512143 0.226318 0.183644
H4    H     H_    0.546296 0.546613 0.771239 0.167227
H5    H     H_    0.179100 0.520791 0.956546 0.135973
H6    H     H_    0.815957 0.532645 0.041733 0.135153
H7    H     H_    0.339994 0.550928 0.168200 0.157084
H8    H     H_    0.652040 0.568858 0.833160 0.134042
C23   C     C_R   0.418774 0.185209 0.569660 -0.031085
C24   C     C_R   0.581072 0.814770 0.431310 -0.026401
C25   C     C_R   0.499285 0.232355 0.505885 -0.114049
C26   C     C_R   0.500966 0.767599 0.495460 -0.113599
C27   C     C_R   0.580323 0.187646 0.443110 -0.207266
C28   C     C_R   0.421484 0.812194 0.559879 -0.267400
C29   C     C_R   0.581346 0.095156 0.439961 0.024873
C30   C     C_R   0.420267 0.904677 0.562842 0.030860
C31   C     C_R   0.500358 0.046678 0.502625 -0.013746
C32   C     C_R   0.500820 0.953190 0.499736 -0.009570
C33   C     C_R   0.418887 0.091630 0.568068 0.018440
C34   C     C_R   0.581826 0.908268 0.433816 0.016758
C35   C     C_R   0.661149 0.050547 0.374099 0.489215
C36   C     C_R   0.340565 0.949265 0.628793 0.481107
C37   C     C_R   0.661657 0.957913 0.372293 -0.284504
C38   C     C_R   0.339401 0.041922 0.629958 -0.284447
H9    H     H_    0.641315 0.225880 0.395014 0.192188
H10   H     H_    0.361375 0.773895 0.608806 0.183810
H11   H     H_    0.725619 0.925552 0.322231 0.173856
H12   H     H_    0.275289 0.074229 0.679909 0.173664
C39   C     C_R   0.222775 0.565548 0.453435 0.603843
C40   C     C_R   0.775622 0.435113 0.548084 0.627365
N1    N     N_R   0.256170 0.500070 0.500040 -0.220262
N2    N     N_R   0.743830 0.499930 0.499960 -0.223450
C41   C     C_R   0.191297 0.432635 0.542048 -0.052076
C42   C     C_R   0.812933 0.559224 0.446898 -0.055806
C43   C     C_R   0.089643 0.428999 0.539875 -0.012370
C44   C     C_R   0.916782 0.558246 0.443065 -0.012933
C45   C     C_R   0.054740 0.494501 0.491857 0.047671
C46   C     C_R   0.950976 0.493502 0.492421 0.045489
C47   C     C_R   0.123820 0.560311 0.442496 -0.146608
C48   C     C_R   0.882100 0.426947 0.540833 -0.145819
C49   C     C_R   0.024252 0.358428 0.580775 -0.236317
C50   C     C_R   0.987944 0.618325 0.387528 -0.241944
C51   C     C_R   0.923080 0.354875 0.578557 -0.023082
C52   C     C_R   0.091135 0.618087 0.384383 -0.020252
H13   H     H_    0.218550 0.381494 0.577724 0.176020
H14   H     H_    0.786979 0.607526 0.407443 0.178413
H15   H     H_    0.053230 0.304301 0.612223 0.145982
H16   H     H_    0.963475 0.664641 0.344982 0.143363
O9    O     O_3   0.285022 0.638065 0.419152 -0.561682
C53   C     C_3   0.244543 0.711510 0.475348 -0.238568
H17   H     H_    0.298166 0.768150 0.451328 0.197698
H18   H     H_    0.237023 0.696497 0.546633 0.167326
H19   H     H_    0.168370 0.733857 0.472886 0.141600
O10   O     O_3   0.702168 0.379426 0.605202 -0.548579
C54   C     C_3   0.683644 0.404023 0.695455 -0.264804
H20   H     H_    0.602615 0.387426 0.735630 0.196018
H21   H     H_    0.695558 0.476152 0.702924 0.116929
H22   H     H_    0.733287 0.365585 0.725719 0.153702
C55   C     C_1   0.868441 0.272220 0.606991 0.297390
N3    N     N_1   0.825015 0.205827 0.629557 -0.256431
C56   C     C_1   0.162152 0.673670 0.316072 0.273806
N4    N     N_1   0.218846 0.718087 0.261186 -0.270498
O11   O     O_3   0.779011 0.502847 0.219869 -0.559381
C57   C     C_3   0.868345 0.555310 0.183487 -0.296582
H23   H     H_    0.906752 0.560078 0.234665 0.187864
H24   H     H_    0.850265 0.624316 0.166445 0.172472
H25   H     H_    0.923969 0.522821 0.123900 0.150871
O12   O     O_3   0.219832 0.496416 0.779337 -0.561617
C58   C     C_3   0.143712 0.433747 0.825038 -0.286551
H26   H     H_    0.176059 0.376166 0.852576 0.167541
H27   H     H_    0.109584 0.407195 0.776392 0.194976
H28   H     H_    0.080255 0.466251 0.879149 0.147092
C59   C     C_1   0.339412 0.232963 0.638693 0.215598
N5    N     N_1   0.276270 0.270814 0.694035 -0.319395
C60   C     C_1   0.659161 0.767127 0.361097 0.220316
N6    N     N_1   0.721234 0.729324 0.304845 -0.319735
O13   O     O_3   0.742433 0.097194 0.314406 -0.570713
C61   C     C_3   0.726120 0.104512 0.231044 -0.321841
H29   H     H_    0.788776 0.145367 0.184392 0.201685
H30   H     H_    0.651578 0.138640 0.238002 0.155305
H31   H     H_    0.729113 0.038317 0.200155 0.165851
O14   O     O_3   0.259639 0.902586 0.688884 -0.582701
C62   C     C_3   0.277077 0.894943 0.771747 -0.319991
H32   H     H_    0.351521 0.860325 0.764068 0.161185
H33   H     H_    0.214466 0.854397 0.818857 0.199386
H34   H     H_    0.275067 0.961077 0.802511 0.167329

loop_
_geom_bond_atom_site_label_1
_geom_bond_atom_site_label_2
_geom_bond_distance
_ccdc_geom_bond_type
C15   C21   1.391948 A    
C42   C44   1.409803 A    
C54   H20   1.109639 S    
N1    C41   1.364995 A    
C16   C22   1.390995 A    
C58   H26   1.115088 S    
C37   H11   1.082566 S    
C49   C51   1.406315 A    
O11   C57   1.412353 S    
C8    C16   1.401052 A    
O14   C62   1.409914 S    
C29   C31   1.414285 A    
C11   H4    1.068829 S    
O5    C3    1.293725 A    
C12   H3    1.074432 S    
C40   O10   1.383073 S    
C27   H9    1.084642 S    
C56   N4    1.157458 T    
C23   C59   1.451214 S    
O1    C1    1.293726 A    
C18   C19   1.415615 A    
C14   C16   1.414065 A    
C47   C52   1.426849 A    
C41   C43   1.412745 A    
C44   C50   1.398617 A    
C62   H32   1.113841 S    
C57   H25   1.110624 S    
C39   N1    1.382205 A    
C33   C38   1.407299 A    
C27   C29   1.393944 A    
O4    Cu1   1.961416 S    
C45   C47   1.408801 A    
C61   H29   1.109225 S    
C40   N2    1.379564 A    
C5    C9    1.414241 A    
C3    C5    1.481765 S    
C4    C6    1.479613 S    
C31   C33   1.417644 A    
C57   H24   1.113612 S    
C32   C34   1.417586 A    
C60   N6    1.156927 T    
C21   H1    1.084609 S    
C43   C49   1.399786 A    
C13   C17   1.427777 A    
C24   C60   1.451503 S    
C34   C37   1.406995 A    
O6    C4    1.297140 A    
C29   C35   1.406115 A    
C39   C47   1.432808 A    
C30   C32   1.414204 A    
C58   H27   1.109869 S    
C50   H16   1.085297 S    
Cu1   Cu2   2.681546 S    
C28   H10   1.084353 S    
C17   C20   1.415302 A    
C23   C25   1.408056 A    
O2    C2    1.292650 A    
C24   C26   1.407794 A    
C48   C51   1.426095 A    
C26   C28   1.392733 A    
O9    C53   1.418143 S    
C28   C30   1.393635 A    
C35   C37   1.395220 A    
C42   H14   1.081175 S    
C36   C38   1.395123 A    
C41   H13   1.080578 S    
C40   C48   1.434617 A    
O4    C2    1.291085 A    
C55   N3    1.157583 T    
O10   C54   1.416784 S    
C62   H33   1.109178 S    
C38   H12   1.082557 S    
C6    C12   1.401791 A    
C43   C45   1.407168 A    
N2    C42   1.362341 A    
C30   C36   1.405913 A    
O7    Cu2   1.935545 S    
C52   C56   1.445853 S    
O7    C3    1.305030 A    
Cu1   N1    2.014658 S    
C5    C11   1.398335 A    
C6    C10   1.413785 A    
C62   H34   1.112785 S    
Cu2   N2    2.014659 S    
C57   H23   1.108812 S    
C19   H7    1.076836 S    
C49   H15   1.085267 S    
C20   H8    1.074456 S    
C7    H5    1.082885 S    
C25   C27   1.393175 A    
C61   H31   1.112746 S    
O3    Cu2   1.961416 S    
O8    C4    1.300858 A    
C10   O11   1.394736 S    
C31   C32   1.408876 A    
C58   H28   1.111066 S    
C53   H18   1.113592 S    
C2    C25   1.454112 S    
C54   H21   1.114819 S    
C12   C14   1.403780 A    
O1    Cu1   1.966832 S    
C50   C52   1.404102 A    
C35   O13   1.383376 S    
O6    Cu2   1.948004 S    
C1    C26   1.453423 S    
C14   C18   1.427754 A    
O3    C1    1.289670 A    
O8    Cu1   1.935545 S    
C9    O12   1.392147 S    
C51   C55   1.445101 S    
C53   H19   1.109666 S    
C59   N5    1.156890 T    
C7    C15   1.401422 A    
C11   C13   1.404141 A    
C8    H6    1.082559 S    
C19   C21   1.386619 A    
C39   O9    1.380288 S    
O13   C61   1.410001 S    
C20   C22   1.385331 A    
C36   O14   1.383254 S    
O12   C58   1.412462 S    
C7    C9    1.409291 A    
C8    C10   1.410217 A    
C13   C15   1.414183 A    
C45   C46   1.425326 A    
O2    Cu2   1.966830 S    
C61   H30   1.113918 S    
O5    Cu1   1.948006 S    
C44   C46   1.408040 A    
C53   H17   1.108783 S    
C54   H22   1.108373 S    
C24   C34   1.409122 A    
C17   C18   1.424880 A    
C46   C48   1.410710 A    
C23   C33   1.409398 A    
C22   H2    1.084528 S    
