data_mof_unit_19680.cif
_audit_creation_date              2012-10-26T19:59:40-0400
_audit_creation_method            fapswitch 2.2
_symmetry_space_group_name_H-M    P1
_symmetry_Int_Tables_number       1
_space_group_crystal_system       triclinic
_cell_length_a                    10.896937
_cell_length_b                    8.887606
_cell_length_c                    7.614131
_cell_angle_alpha                 103.641671
_cell_angle_beta                  95.92562
_cell_angle_gamma                 99.118789
_cell_volume                      699.912641639

loop_
_atom_site_label
_atom_site_type_symbol
_atom_type_description
_atom_site_fract_x
_atom_site_fract_y
_atom_site_fract_z
_atom_type_partial_charge
C1    C     C_R   0.494863 0.200383 0.453364 0.565461
C2    C     C_R   0.504540 0.800159 0.547318 0.526739
C3    C     C_R   0.735976 0.488543 0.500448 0.520521
C4    C     C_R   0.158835 0.678315 0.819733 -0.112368
C5    C     C_R   0.111332 0.714979 0.984564 -0.131543
C6    C     C_R   0.995217 0.635197 0.001770 -0.128056
C7    C     C_R   0.917680 0.538010 0.847419 -0.109180
C8    C     C_R   0.954482 0.525920 0.672504 0.022935
C9    C     C_R   0.646545 0.678996 0.052007 0.182439
C10   C     C_R   0.715327 0.765916 0.943509 -0.080613
C11   C     C_R   0.815483 0.894423 0.008120 -0.167614
C12   C     C_R   0.083046 0.572045 0.664369 0.019829
C13   C     C_R   0.857270 0.951604 0.191177 -0.114779
C14   C     C_R   0.799783 0.877820 0.307913 -0.172119
C15   C     C_R   0.700390 0.748101 0.241289 -0.072722
C16   C     C_3   0.406061 0.931332 0.250275 -0.377340
C17   C     C_3   0.593328 0.071782 0.754011 -0.379424
C18   C     C_3   0.345887 0.366153 0.939694 -0.144975
C19   C     C_R   0.129746 0.513037 0.500539 -0.011029
C20   C     C_R   0.045136 0.441944 0.339664 -0.177484
C21   C     C_R   0.916585 0.431067 0.341010 -0.172026
C22   C     C_R   0.869452 0.475309 0.506202 -0.003764
C23   C     C_2   0.480283 0.031371 0.430464 -0.023828
C24   C     C_2   0.521195 0.970359 0.571459 -0.035604
C25   C     C_R   0.263472 0.506559 0.500224 0.538692
Cu1   Cu    Cu3+1 0.513920 0.517380 0.684380 0.882899
Cu2   Cu    Cu3+1 0.486080 0.482620 0.315620 0.906714
H1    H     H_    0.078292 0.396991 0.211741 0.133723
H2    H     H_    0.832904 0.921820 0.453494 0.098747
H3    H     H_    0.679490 0.721291 0.359862 0.189183
H4    H     H_    0.354909 0.000400 0.174180 0.114957
H5    H     H_    0.469394 0.876113 0.160636 0.169232
H6    H     H_    0.334054 0.840773 0.277962 0.146135
H7    H     H_    0.633366 0.002211 0.839068 0.130931
H8    H     H_    0.674016 0.155627 0.732509 0.139479
H9    H     H_    0.529798 0.134526 0.836451 0.166844
H10   H     H_    0.309907 0.279396 0.014481 0.093694
H11   H     H_    0.276694 0.444762 0.936493 0.135544
H12   H     H_    0.252304 0.737710 0.813295 0.144404
H13   H     H_    0.353032 0.297791 0.801951 0.144677
H14   H     H_    0.163660 0.803332 0.100060 0.104785
H15   H     H_    0.962768 0.654479 0.133283 0.141218
H16   H     H_    0.830516 0.473348 0.868902 0.148639
H17   H     H_    0.853895 0.386358 0.212546 0.137404
H18   H     H_    0.701067 0.748299 0.802639 0.189109
H19   H     H_    0.860618 0.950671 0.913436 0.101990
H20   H     H_    0.934078 0.051353 0.241999 0.123752
N1    N     N_2   0.465100 0.456430 0.038520 -0.151496
N2    N     N_2   0.534900 0.543570 0.961480 -0.144781
O1    O     O_R   0.509050 0.286130 0.619770 -0.525721
O2    O     O_R   0.485540 0.256780 0.308360 -0.499310
O3    O     O_R   0.331410 0.514680 0.655740 -0.526290
O4    O     O_R   0.307900 0.485330 0.344330 -0.511182
O5    O     O_R   0.514460 0.743220 0.691640 -0.539829
O6    O     O_R   0.490950 0.713870 0.380230 -0.530229
O7    O     O_R   0.692100 0.514670 0.655670 -0.551324
O8    O     O_R   0.668590 0.485320 0.344260 -0.526048

loop_
_geom_bond_atom_site_label_1
_geom_bond_atom_site_label_2
_ccdc_geom_bond_type
Cu2   N1    S    
C8    C22   A    
C23   C24   D    
Cu2   O4    S    
C6    C7    A    
C17   H9    S    
C7    H16   S    
C16   H6    S    
C16   H5    S    
C21   H17   S    
C11   C13   A    
C9    C10   A    
C20   H1    S    
C19   C20   A    
C4    H12   S    
C8    C12   A    
C18   N1    S    
C10   H18   S    
C18   H11   S    
C25   O3    A    
C7    C8    A    
C2    O5    A    
C21   C22   A    
C16   H4    S    
C1    O2    A    
Cu1   Cu2   S    
C3    O8    A    
C12   C19   A    
N1    N2    D    
C18   H10   S    
Cu2   O2    S    
C1    O1    A    
C1    C23   S    
C16   C23   S    
Cu1   O3    S    
C2    O6    A    
Cu1   O1    S    
C2    C24   S    
C5    C6    A    
C19   C25   S    
Cu2   O6    S    
C17   C24   S    
C4    C12   A    
C10   C11   A    
C14   H2    S    
C3    O7    A    
Cu1   O5    S    
C9    N2    S    
C20   C21   A    
C15   H3    S    
Cu2   O8    S    
Cu1   N2    S    
C13   H20   S    
C18   H13   S    
C14   C15   A    
C4    C5    A    
C3    C22   S    
C5    H14   S    
C17   H8    S    
C13   C14   A    
C6    H15   S    
C9    C15   A    
C25   O4    A    
C17   H7    S    
C11   H19   S    
Cu1   O7    S    
