data_mof_unit_50421.cif
_audit_creation_date              2013-03-05T16:31:37-0500
_audit_creation_method            fapswitch 2.2
_symmetry_space_group_name_H-M    P1
_symmetry_Int_Tables_number       1
_space_group_crystal_system       triclinic
_cell_length_a                    9.627842
_cell_length_b                    10.917716
_cell_length_c                    15.384528
_cell_angle_alpha                 88.563743
_cell_angle_beta                  73.812782
_cell_angle_gamma                 91.935555
_cell_volume                      1551.13233614

loop_
_atom_site_label
_atom_site_type_symbol
_atom_site_description
_atom_site_fract_x
_atom_site_fract_y
_atom_site_fract_z
_atom_type_partial_charge
O1    O     O_R   0.118810 0.319640 0.500000 -0.544976
O2    O     O_R   0.881230 0.319680 0.499990 -0.515676
C1    C     C_R   0.997887 0.262460 0.497895 0.893857
O3    O     O_R   0.055580 0.499970 0.629840 -0.559296
O4    O     O_R   0.818000 0.500010 0.629830 -0.540432
C2    C     C_R   0.918108 0.506835 0.672325 0.865133
Cu1   Cu    Cu3+1 0.140670 0.499980 0.500000 1.063238
Cu2   Cu    Cu3+1 0.859330 0.500020 0.500000 1.094362
O5    O     O_R   0.118770 0.680320 0.500010 -0.604589
O6    O     O_R   0.881190 0.680360 0.500000 -0.585399
O7    O     O_R   0.182000 0.499990 0.370170 -0.546511
O8    O     O_R   0.944420 0.500030 0.370160 -0.531689
C3    C     C_R   0.001723 0.737275 0.500714 0.851696
C4    C     C_R   0.082952 0.505160 0.326955 0.918812
C5    C     C_R   0.874763 0.520266 0.771927 -0.162797
C6    C     C_R   0.133330 0.538407 0.228171 -0.264183
C7    C     C_R   0.920214 0.470132 0.915480 -0.126165
C8    C     C_R   0.965540 0.476772 0.821742 -0.173662
C9    C     C_R   0.742644 0.572985 0.817809 0.286720
C10   C     C_R   0.695796 0.568518 0.914778 -0.010371
C11   C     C_R   0.783678 0.508880 0.961918 0.100230
C12   C     C_R   0.561130 0.612905 0.967304 0.072554
C13   C     C_R   0.500648 0.566310 0.057338 0.092910
C14   C     C_R   0.593846 0.513208 0.102275 -0.053782
C15   C     C_R   0.734420 0.487492 0.055464 -0.084534
C16   C     C_R   0.487982 0.706122 0.936106 -0.083349
C17   C     C_R   0.348140 0.733524 0.983780 -0.082756
C18   C     C_R   0.275704 0.668419 0.064463 -0.049375
C19   C     C_R   0.351176 0.581330 0.101393 -0.025316
C20   C     C_R   0.128460 0.686538 0.106887 0.281397
C21   C     C_R   0.056995 0.622142 0.188606 0.237337
C22   C     C_R   0.274209 0.508044 0.178424 0.226911
H1    H     H_    0.802802 0.445249 0.091931 0.187257
H2    H     H_    0.296129 0.803839 0.954928 0.201628
H3    H     H_    0.990240 0.429954 0.951751 0.171513
H4    H     H_    0.070013 0.442456 0.788430 0.236590
H5    H     H_    0.560774 0.495122 0.174574 0.205109
H6    H     H_    0.539288 0.762571 0.876517 0.205587
C23   C     C_R   0.123109 0.069978 0.467567 -0.005374
C24   C     C_R   0.992393 0.128456 0.495118 -0.129125
C25   C     C_R   0.862279 0.054543 0.524592 0.339848
C26   C     C_R   0.870155 0.927549 0.534065 -0.195778
H7    H     H_    0.770414 0.872834 0.557549 0.206732
C27   C     C_R   0.002383 0.870242 0.505378 -0.075386
C28   C     C_R   0.129433 0.943463 0.474309 -0.037657
C29   C     C_3   0.247919 0.941358 0.387044 0.069954
C30   C     C_3   0.237983 0.079967 0.377967 0.119151
H8    H     H_    0.353802 0.918797 0.396458 0.114293
H9    H     H_    0.337512 0.131983 0.381403 0.160605
C31   C     C_R   0.602804 0.575606 0.441582 0.322704
N1    N     N_R   0.648210 0.500930 0.499430 -0.248869
C32   C     C_R   0.543703 0.423169 0.557637 -0.042578
C33   C     C_R   0.399514 0.415549 0.550346 0.366910
N2    N     N_R   0.352300 0.500890 0.499430 -0.255542
C34   C     C_R   0.455980 0.574859 0.441292 0.219541
C35   C     C_3   0.455607 0.709920 0.435631 -0.493485
C36   C     C_3   0.608816 0.712369 0.442233 -0.424201
H10   H     H_    0.449613 0.740323 0.367651 0.248652
H11   H     H_    0.378471 0.749705 0.494857 0.229388
H12   H     H_    0.687479 0.756293 0.382282 0.271469
H13   H     H_    0.616568 0.746677 0.508073 0.222060
N3    N     N_R   0.050634 0.771090 0.067235 0.154167
O9    O     O_R   0.944092 0.731511 0.037374 -0.325716
O10   O     O_R   0.077833 0.888511 0.068336 -0.241965
N4    N     N_R   0.722108 0.102128 0.534106 0.152690
O11   O     O_R   0.696430 0.158152 0.464881 -0.295095
O12   O     O_R   0.612562 0.059094 0.599440 -0.304348
N5    N     N_R   0.207675 0.870797 0.316932 0.155076
O13   O     O_R   0.079020 0.875764 0.305401 -0.284794
O14   O     O_R   0.304247 0.807608 0.261930 -0.365819
N6    N     N_R   0.189383 0.118019 0.299275 0.212233
O15   O     O_R   0.072315 0.178235 0.307673 -0.315553
O16   O     O_R   0.270372 0.097297 0.218417 -0.186506
C37   C     C_2   0.565297 0.358364 0.639316 1.023453
O17   O     O_2   0.673371 0.302668 0.636513 -0.542283
O18   O     O_R   0.454899 0.356639 0.720853 -0.691970
H14   H     H_    0.479663 0.308838 0.771526 0.356485
N7    N     N_R   0.308956 0.310600 0.590654 0.153850
O19   O     O_R   0.205561 0.319679 0.664879 -0.330445
O20   O     O_R   0.349737 0.201999 0.564156 -0.324997
N8    N     N_R   0.323783 0.388269 0.192485 0.136196
O21   O     O_R   0.358185 0.315677 0.124646 -0.275460
O22   O     O_R   0.354863 0.358001 0.266980 -0.343944
N9    N     N_R   0.907040 0.642848 0.230534 0.142139
O23   O     O_R   0.812724 0.551084 0.245380 -0.379339
O24   O     O_R   0.861193 0.753860 0.235481 -0.269538
N10   N     N_R   0.655786 0.624742 0.765228 0.094530
O25   O     O_R   0.526126 0.579619 0.772659 -0.348527
O26   O     O_R   0.707063 0.717131 0.709044 -0.385813

loop_
_geom_bond_atom_site_label_1
_geom_bond_atom_site_label_2
_geom_bond_distance
_ccdc_geom_bond_type
C5    C8    1.399976 A    
N10   O25   1.300070 A    
C25   C26   1.397309 A    
C9    C10   1.432157 A    
C34   C35   1.475130 S    
N8    O21   1.301354 A    
Cu1   Cu2   2.708711 S    
C30   H9    1.111995 S    
C33   N2    1.370732 A    
C27   C28   1.397343 A    
C6    C21   1.418904 A    
Cu1   O7    1.924758 S    
C22   N8    1.438800 S    
C16   C17   1.388450 A    
C37   O18   1.399182 S    
C13   C19   1.426515 A    
C18   C19   1.415834 A    
N9    O24   1.300619 A    
C19   C22   1.420044 A    
C9    N10   1.434978 S    
C20   C21   1.410322 A    
O7    C4    1.307613 A    
N7    O20   1.301002 A    
C35   C36   1.505955 S    
O5    C3    1.302912 A    
N3    O10   1.301232 A    
C2    C5    1.484097 S    
N2    C34   1.363869 A    
N9    O23   1.300723 A    
N5    O13   1.302028 A    
N4    O12   1.301988 A    
C13   C14   1.407164 A    
C23   C28   1.387215 A    
C26   C27   1.400469 A    
O3    Cu1   1.936191 S    
N8    O22   1.300443 A    
C14   H5    1.079285 S    
C17   H2    1.081635 S    
C29   H8    1.103798 S    
C37   O17   1.213805 D    
N1    C32   1.391714 A    
C14   C15   1.386207 A    
O3    C2    1.308225 A    
C23   C24   1.393397 A    
N6    O16   1.300705 A    
N7    O19   1.297425 A    
C16   H6    1.078370 S    
C36   H12   1.103654 S    
C25   N4    1.433048 S    
C31   N1    1.361048 A    
C28   C29   1.501227 S    
C7    C11   1.395168 A    
C21   N9    1.435858 S    
O1    C1    1.311160 A    
C5    C9    1.420133 A    
C29   N5    1.470223 S    
N3    O9    1.301041 A    
Cu2   O8    1.936191 S    
C7    C8    1.384602 A    
O18   H14   1.014196 S    
Cu2   N1    2.035452 S    
C30   N6    1.470017 S    
N5    O14   1.300147 A    
C24   C25   1.422236 A    
O8    C4    1.312504 A    
C1    C24   1.464314 S    
C20   N3    1.434943 S    
C4    C6    1.492011 S    
C26   H7    1.080059 S    
C32   C33   1.423441 A    
C23   C30   1.506499 S    
Cu1   O5    1.987226 S    
C11   C15   1.394914 A    
C29   C30   1.524901 S    
O1    Cu1   1.973037 S    
C31   C36   1.492708 S    
O2    Cu2   1.987225 S    
C10   C12   1.430665 A    
O6    C3    1.300639 A    
O4    Cu2   1.924755 S    
C36   H13   1.109560 S    
C6    C22   1.414086 A    
C32   C37   1.494605 S    
C31   C34   1.414605 A    
C35   H11   1.111206 S    
C18   C20   1.408669 A    
O2    C1    1.296532 A    
N6    O15   1.300927 A    
O4    C2    1.307993 A    
C35   H10   1.106716 S    
C33   N7    1.432831 S    
C10   C11   1.421779 A    
Cu2   O6    1.973037 S    
N4    O11   1.301461 A    
C12   C16   1.405158 A    
C17   C18   1.404277 A    
N10   O26   1.301159 A    
C12   C13   1.418239 A    
C7    H3    1.084348 S    
Cu1   N2    2.034801 S    
C8    H4    1.078146 S    
C3    C27   1.455152 S    
C15   H1    1.083681 S    
