data_mof_unit_42957.cif
_audit_creation_date              2012-12-11T17:23:15-0500
_audit_creation_method            fapswitch 2.2
_symmetry_space_group_name_H-M    P1
_symmetry_Int_Tables_number       1
_space_group_crystal_system       triclinic
_cell_length_a                    22.48313
_cell_length_b                    7.094813
_cell_length_c                    19.378294
_cell_angle_alpha                 89.998997
_cell_angle_beta                  99.351538
_cell_angle_gamma                 90.00141
_cell_volume                      3050.02061155

loop_
_atom_site_label
_atom_site_type_symbol
_atom_type_description
_atom_site_fract_x
_atom_site_fract_y
_atom_site_fract_z
_atom_type_partial_charge
O1    O     O_R   0.443980 0.494320 0.557430 -0.535941
O2    O     O_R   0.556020 0.994320 0.442570 -0.535952
O3    O     O_R   0.441210 0.822520 0.414610 -0.534415
O4    O     O_R   0.558790 0.322520 0.585390 -0.534394
C1    C     C_R   0.426478 0.655369 0.389094 0.683455
C2    C     C_R   0.573523 0.155369 0.610906 0.683464
O5    O     O_R   0.436920 0.823940 0.555180 -0.535196
O6    O     O_R   0.563080 0.323940 0.444820 -0.535200
O7    O     O_R   0.551700 0.995760 0.584140 -0.536892
O8    O     O_R   0.448300 0.495760 0.415860 -0.536836
C3    C     C_R   0.421581 0.655366 0.574843 0.713448
C4    C     C_R   0.578419 0.155370 0.425157 0.713494
O9    O     O_3   0.537660 0.661290 0.509340 -0.368932
O10   O     O_3   0.462340 0.161290 0.490660 -0.368903
V1    V     V_3+5 0.493010 0.935560 0.498270 1.440520
V2    V     V_3+5 0.506990 0.435560 0.501730 1.440567
H1    H     H_    0.707817 0.817448 0.294027 0.113716
H2    H     H_    0.292161 0.317432 0.705964 0.113716
C5    C     C_R   0.769157 0.931921 0.230275 -0.152387
C6    C     C_R   0.230831 0.431921 0.769719 -0.152390
H3    H     H_    0.783447 0.794017 0.215405 0.114610
H4    H     H_    0.216533 0.294014 0.784584 0.114608
C7    C     C_R   0.793554 0.095287 0.204912 0.132839
C8    C     C_R   0.206446 0.595295 0.795087 0.132842
C9    C     C_R   0.774208 0.272209 0.225162 -0.151177
C10   C     C_R   0.225803 0.772215 0.774843 -0.151172
H5    H     H_    0.792457 0.400055 0.206285 0.116729
H6    H     H_    0.207564 0.900071 0.793723 0.116723
C11   C     C_R   0.731113 0.285586 0.270035 -0.153935
C12   C     C_R   0.268898 0.785585 0.729970 -0.153934
H7    H     H_    0.716825 0.423491 0.284905 0.112868
H8    H     H_    0.283194 0.923494 0.715105 0.112866
C13   C     C_R   0.706712 0.122218 0.295396 0.135358
C14   C     C_R   0.293288 0.622211 0.704604 0.135361
C15   C     C_R   0.726064 0.945297 0.275149 -0.152422
C16   C     C_R   0.273925 0.445291 0.724845 -0.152414
C17   C     C_1   0.838472 0.081712 0.158645 -0.050466
C18   C     C_1   0.161527 0.581726 0.841355 -0.050468
C19   C     C_1   0.661780 0.135786 0.341653 -0.053886
C20   C     C_1   0.338221 0.635772 0.658347 -0.053873
C21   C     C_1   0.624018 0.145805 0.379960 -0.176105
C22   C     C_1   0.375982 0.645791 0.620040 -0.176097
C23   C     C_1   0.876221 0.071684 0.120328 -0.159755
C24   C     C_1   0.123778 0.571698 0.879672 -0.159757
C25   C     C_R   0.636817 0.198455 0.801321 -0.168780
C26   C     C_R   0.363206 0.697812 0.198655 -0.168775
H9    H     H_    0.550857 0.236272 0.737514 0.124179
H10   H     H_    0.449164 0.735771 0.262452 0.124166
H11   H     H_    0.717145 0.179953 0.916566 0.121464
H12   H     H_    0.282901 0.678722 0.083405 0.121464
H13   H     H_    0.619045 0.231453 0.848661 0.124725
H14   H     H_    0.380991 0.730489 0.151295 0.124727
C27   C     C_R   0.617876 0.148733 0.676252 -0.116188
C28   C     C_R   0.382120 0.648702 0.323755 -0.116123
C29   C     C_R   0.913807 0.061262 0.759763 0.354397
C30   C     C_R   0.086171 0.561702 0.240236 0.354384
C31   C     C_R   0.877954 0.082062 0.694036 -0.233005
C32   C     C_R   0.122023 0.582598 0.305959 -0.232997
C33   C     C_R   0.815885 0.106616 0.687687 -0.142465
C34   C     C_R   0.184101 0.606924 0.312309 -0.142542
C35   C     C_R   0.786360 0.103911 0.746764 0.095407
C36   C     C_R   0.213634 0.603897 0.253240 0.095406
C37   C     C_R   0.823491 0.096580 0.814229 -0.015784
C38   C     C_R   0.176512 0.596345 0.185774 -0.015767
C39   C     C_R   0.721830 0.121301 0.741494 0.060016
C40   C     C_R   0.278170 0.621160 0.258514 0.060008
C41   C     C_R   0.698123 0.158671 0.803877 0.080601
C42   C     C_R   0.301895 0.658133 0.196113 0.080601
C43   C     C_R   0.735554 0.155701 0.868975 -0.169304
C44   C     C_R   0.264476 0.654837 0.131009 -0.169310
C45   C     C_R   0.796771 0.119567 0.874301 -0.170545
C46   C     C_R   0.203251 0.618862 0.125695 -0.170521
C47   C     C_R   0.679754 0.100692 0.677626 0.278976
C48   C     C_R   0.320234 0.600780 0.322401 0.279000
C49   C     C_R   0.597741 0.199742 0.738048 -0.205999
C50   C     C_R   0.402272 0.699364 0.261934 -0.206047
C51   C     C_R   0.887035 0.072173 0.820225 -0.119521
C52   C     C_R   0.112958 0.572199 0.179777 -0.119504
H15   H     H_    0.792935 0.138021 0.635849 0.189599
H16   H     H_    0.207055 0.638385 0.364138 0.189634
H17   H     H_    0.898384 0.083079 0.647119 0.125368
H18   H     H_    0.101586 0.583872 0.352869 0.125373
H19   H     H_    0.823402 0.116212 0.926132 0.098043
H20   H     H_    0.176630 0.615256 0.073862 0.097989
O11   O     O_R   0.051730 0.724670 0.084120 -0.536335
O12   O     O_R   0.948270 0.224670 0.915880 -0.536382
O13   O     O_R   0.063080 0.393540 0.944820 -0.536303
O14   O     O_R   0.936920 0.893540 0.055180 -0.536279
C53   C     C_R   0.078200 0.562134 0.924884 0.715178
C54   C     C_R   0.921799 0.062129 0.075116 0.715169
O15   O     O_R   0.058800 0.395030 0.085390 -0.536545
O16   O     O_R   0.941200 0.895030 0.914610 -0.536489
O17   O     O_R   0.943980 0.223310 0.057440 -0.530686
O18   O     O_R   0.056020 0.723310 0.942560 -0.530658
C55   C     C_R   0.072701 0.563605 0.111280 0.753146
C56   C     C_R   0.927297 0.063604 0.888720 0.753126
O19   O     O_3   0.962360 0.556290 0.990650 -0.374626
O20   O     O_3   0.037640 0.056290 0.009350 -0.374624
V3    V     V_3+5 0.006980 0.281990 0.001730 1.478886
V4    V     V_3+5 0.993020 0.781990 0.998270 1.479014
O21   O     O_3   0.698898 0.021675 0.619783 -0.663176
H21   H     H_    0.665638 0.015267 0.579702 0.281296
O22   O     O_3   0.301080 0.522015 0.380282 -0.663155
H22   H     H_    0.334322 0.515902 0.420389 0.281208
O23   O     O_3   0.975479 0.036775 0.766406 -0.650846
H23   H     H_    0.987063 0.032460 0.719183 0.286652
O24   O     O_3   0.024486 0.537496 0.233589 -0.650854
H24   H     H_    0.012890 0.533475 0.280809 0.286653

loop_
_geom_bond_atom_site_label_1
_geom_bond_atom_site_label_2
_ccdc_geom_bond_type
C40   C42   A    
C17   C23   T    
O21   H21   S    
C26   H14   S    
H10   C50   S    
O1    C3    A    
O2    C4    A    
C2    O7    A    
C26   C50   A    
C39   C47   A    
C19   C21   T    
O5    C3    A    
C13   C19   S    
C29   O23   S    
C14   C20   S    
C5    H3    S    
C8    C10   A    
C32   H18   S    
C29   C51   A    
C31   C33   A    
C25   H13   S    
C32   C34   A    
C40   C48   A    
C11   C13   A    
O16   C56   A    
C30   C52   A    
C3    C22   S    
C34   C36   A    
C53   O18   A    
C43   C45   A    
C36   C38   A    
C28   C48   A    
C6    C8    A    
C39   C41   A    
C25   C41   A    
C8    C18   S    
O24   H24   S    
O17   V3    S    
C45   H19   S    
C20   C22   T    
O6    V2    S    
H11   C43   S    
C27   C49   A    
O19   V3    S    
C18   C24   T    
O13   V3    S    
C9    C11   A    
C33   C35   A    
C23   C54   S    
C12   C14   A    
C1    C28   S    
O4    C2    A    
C33   H15   S    
C36   C40   A    
O5    V1    S    
C7    C17   S    
C41   C43   A    
O4    V2    S    
C5    C7    A    
C30   O24   S    
C26   C42   A    
C4    C21   S    
O12   V3    S    
O18   V4    S    
C52   C55   S    
O6    C4    A    
C35   C37   A    
O1    V2    S    
C46   H20   S    
O2    V1    S    
O14   V4    S    
O12   C56   A    
C28   C50   A    
C6    H4    S    
C10   C12   A    
O20   V4    S    
C29   C31   A    
C31   H17   S    
C2    C27   S    
O19   V4    S    
O3    V1    S    
O16   V4    S    
C54   O17   A    
C37   C51   A    
C34   H16   S    
O14   C54   A    
C38   C52   A    
C27   C47   A    
C37   C45   A    
O3    C1    A    
C44   C46   A    
C9    H5    S    
O23   H23   S    
C51   C56   S    
C10   H6    S    
C25   C49   A    
O13   C53   A    
H12   C44   S    
H9    C49   S    
C1    O8    A    
C11   H7    S    
O11   V4    S    
C5    C15   A    
C12   H8    S    
O11   C55   A    
C47   O21   S    
C13   C15   A    
C30   C32   A    
C14   C16   A    
C38   C46   A    
O7    V1    S    
O15   C55   A    
C6    C16   A    
C35   C39   A    
C7    C9    A    
C42   C44   A    
O20   V3    S    
O9    V2    S    
O22   H22   S    
O10   V1    S    
O8    V2    S    
H1    C15   S    
O15   V3    S    
H2    C16   S    
C24   C53   S    
C48   O22   S    
