data_mof_unit_47559.cif
_audit_creation_date              2012-12-10T17:19:27-0500
_audit_creation_method            fapswitch 2.2
_symmetry_space_group_name_H-M    P1
_symmetry_Int_Tables_number       1
_space_group_crystal_system       triclinic
_cell_length_a                    15.079562
_cell_length_b                    10.864352
_cell_length_c                    9.574307
_cell_angle_alpha                 90.340293
_cell_angle_beta                  89.919936
_cell_angle_gamma                 92.671597
_cell_volume                      1566.82207493

loop_
_atom_site_label
_atom_site_type_symbol
_atom_type_description
_atom_site_fract_x
_atom_site_fract_y
_atom_site_fract_z
_atom_type_partial_charge
C1    C     C_R   0.507087 0.263125 0.500309 0.808874
C2    C     C_R   0.185409 0.500895 0.373082 -0.247436
C3    C     C_R   0.231712 0.500702 0.500158 -0.078019
C4    C     C_R   0.328644 0.499839 0.500086 0.827072
C5    C     C_R   0.185198 0.501783 0.627203 -0.242851
C6    C     C_R   0.559638 0.122954 0.753721 -0.153076
C7    C     C_R   0.550250 0.065139 0.882674 -0.169059
C8    C     C_R   0.506458 0.950237 0.890928 -0.141944
C9    C     C_R   0.480431 0.887887 0.768980 -0.160425
C10   C     C_R   0.498756 0.939701 0.635564 0.094640
C11   C     C_R   0.525299 0.065612 0.630465 0.099304
C12   C     C_R   0.906995 0.503854 0.627970 0.108902
C13   C     C_R   0.515173 0.129395 0.502868 -0.122358
C14   C     C_R   0.500685 0.063081 0.378625 -0.211363
C15   C     C_R   0.493212 0.935874 0.380251 -0.213010
C16   C     C_R   0.495258 0.737634 0.501580 0.779142
C17   C     C_R   0.491993 0.872358 0.507188 -0.112597
C18   C     C_R   0.618554 0.663588 0.144977 -0.151625
C19   C     C_R   0.676645 0.743199 0.072959 -0.227089
C20   C     C_R   0.676751 0.742971 0.929076 -0.195382
C21   C     C_R   0.618634 0.663313 0.856409 -0.141438
C22   C     C_R   0.558301 0.580355 0.925490 0.143794
C23   C     C_R   0.954056 0.502882 0.245432 -0.210969
C24   C     C_R   0.558259 0.580393 0.075186 0.198505
C25   C     C_R   0.444742 0.423376 0.074058 -0.134920
C26   C     C_R   0.444460 0.423062 0.925617 0.245597
C27   C     C_R   0.671351 0.500897 0.499934 0.786973
C28   C     C_R   0.814595 0.503491 0.627023 -0.254508
C29   C     C_R   0.768294 0.502475 0.499915 -0.070300
C30   C     C_R   0.814830 0.502919 0.372868 -0.250159
C31   C     C_R   0.907239 0.503214 0.372031 0.107694
C32   C     C_R   0.953551 0.503395 0.500028 0.062758
C33   C     C_R   0.046494 0.502224 0.245488 -0.212507
C34   C     C_R   0.093049 0.502011 0.372142 0.109479
C35   C     C_R   0.046510 0.502817 0.500080 0.062598
C36   C     C_R   0.092819 0.502790 0.628064 0.107657
C37   C     C_R   0.046009 0.503678 0.754669 -0.212796
C38   C     C_R   0.953563 0.504228 0.754623 -0.210754
Cu1   Cu    Cu3+1 0.499990 0.499990 0.640660 0.940341
Cu2   Cu    Cu3+1 0.500010 0.500010 0.359340 0.929046
H1    H     H_    0.778884 0.503639 0.725412 0.159845
H2    H     H_    0.721860 0.805516 0.873001 0.155221
H3    H     H_    0.623644 0.671816 0.746390 0.203160
H4    H     H_    0.779295 0.502628 0.274463 0.161075
H5    H     H_    0.919189 0.502859 0.146517 0.139289
H6    H     H_    0.081549 0.501728 0.146603 0.135554
H7    H     H_    0.221087 0.500161 0.274689 0.153873
H8    H     H_    0.220716 0.501884 0.725585 0.154796
H9    H     H_    0.080871 0.503758 0.853585 0.135258
H10   H     H_    0.918494 0.504705 0.853501 0.139124
H11   H     H_    0.494993 0.109456 0.279382 0.161047
H12   H     H_    0.595389 0.211468 0.751953 0.160403
H13   H     H_    0.319956 0.358196 0.883584 0.181196
H14   H     H_    0.397156 0.250471 0.882749 0.203825
H15   H     H_    0.574495 0.111238 0.976629 0.136745
H16   H     H_    0.494249 0.908041 0.991740 0.139343
H17   H     H_    0.443163 0.801694 0.782639 0.167774
H18   H     H_    0.486773 0.887313 0.281348 0.163884
H19   H     H_    0.399641 0.360833 0.129994 0.140476
H20   H     H_    0.624139 0.671626 0.255063 0.201924
H21   H     H_    0.721861 0.805693 0.129544 0.154797
N1    N     N_R   0.500860 0.501210 0.147910 -0.205240
N2    N     N_R   0.500890 0.501290 0.852040 -0.199049
N3    N     N_3   0.384515 0.340176 0.852127 -0.518065
O1    O     O_R   0.499990 0.319640 0.618810 -0.559613
O2    O     O_R   0.500000 0.319660 0.381240 -0.582505
O3    O     O_R   0.370250 0.499960 0.618800 -0.558180
O4    O     O_R   0.370260 0.499980 0.381230 -0.585715
O5    O     O_R   0.500000 0.680340 0.618760 -0.616051
O6    O     O_R   0.500010 0.680360 0.381190 -0.599009
O7    O     O_R   0.629740 0.500020 0.618770 -0.611129
O8    O     O_R   0.629750 0.500040 0.381200 -0.601844

loop_
_geom_bond_atom_site_label_1
_geom_bond_atom_site_label_2
_ccdc_geom_bond_type
C23   H5    S    
C27   C29   S    
C35   C36   A    
C7    H15   S    
C8    H16   S    
C7    C8    A    
C37   C38   A    
Cu2   O6    S    
C12   C28   A    
C18   C24   A    
C36   C37   A    
C18   C19   A    
C30   C31   A    
H13   N3    S    
C10   C17   A    
C5    C36   A    
C28   H1    S    
Cu2   N1    S    
C34   C35   A    
C26   N3    S    
C22   N2    A    
C21   H3    S    
C31   C32   A    
C8    C9    A    
C23   C33   A    
C1    O1    A    
C9    C10   A    
C2    C34   A    
Cu2   O2    S    
C13   C14   A    
C12   C32   A    
C33   H6    S    
Cu1   O1    S    
C30   H4    S    
C33   C34   A    
C5    H8    S    
C32   C35   A    
C16   O6    A    
C6    C11   A    
C4    O4    A    
C16   C17   S    
C25   C26   A    
C23   C31   A    
C26   N2    A    
C29   C30   A    
C37   H9    S    
C14   H11   S    
C1    O2    A    
Cu1   O5    S    
C18   H20   S    
C15   H18   S    
C22   C24   A    
C1    C13   S    
C3    C4    S    
Cu1   Cu2   S    
C27   O7    A    
C15   C17   A    
C28   C29   A    
C24   N1    A    
Cu2   O8    S    
Cu1   O3    S    
C16   O5    A    
C3    C5    A    
C4    O3    A    
C20   H2    S    
C6    C7    A    
C38   H10   S    
C2    H7    S    
Cu1   N2    S    
C19   C20   A    
C2    C3    A    
C11   C13   A    
H14   N3    S    
C19   H21   S    
C9    H17   S    
C25   N1    A    
C12   C38   A    
C10   C11   A    
C20   C21   A    
Cu2   O4    S    
Cu1   O7    S    
C14   C15   A    
C25   H19   S    
C6    H12   S    
C21   C22   A    
C27   O8    A    
