data_mof_unit_39372.cif
_audit_creation_date              2012-10-26T19:35:13-0400
_audit_creation_method            fapswitch 2.2
_symmetry_space_group_name_H-M    P1
_symmetry_Int_Tables_number       1
_space_group_crystal_system       triclinic
_cell_length_a                    10.856254
_cell_length_b                    10.804234
_cell_length_c                    9.565051
_cell_angle_alpha                 90.541966
_cell_angle_beta                  88.426272
_cell_angle_gamma                 90.394726
_cell_volume                      1121.42038171

loop_
_atom_site_label
_atom_site_type_symbol
_atom_type_description
_atom_site_fract_x
_atom_site_fract_y
_atom_site_fract_z
_atom_type_partial_charge
Br1   Br    Br    0.754456 0.669903 0.142690 -0.578814
C1    C     C_R   0.499427 0.262589 0.499549 0.537338
C2    C     C_R   0.574872 0.935342 0.399619 -0.173240
C3    C     C_R   0.505237 0.871040 0.501818 0.009939
C4    C     C_R   0.261549 0.501377 0.503140 0.534663
C5    C     C_R   0.446940 0.937547 0.609733 0.070413
C6    C     C_3   0.317332 0.930418 0.665270 -0.254637
C7    C     C_3   0.317632 0.071107 0.665384 -0.282856
C8    C     C_R   0.499787 0.608533 0.074171 0.144667
C9    C     C_R   0.493328 0.392626 0.073258 -0.036242
C10   C     C_R   0.493159 0.392584 0.925132 -0.047099
C11   C     C_R   0.498100 0.609074 0.926818 0.178716
C12   C     C_R   0.056380 0.470519 0.636582 -0.018601
C13   C     C_3   0.593905 0.709005 0.918452 0.153032
C14   C     C_3   0.593161 0.710549 0.076938 0.018124
C15   C     C_R   0.500124 0.737580 0.500448 0.564343
C16   C     C_R   0.736667 0.486271 0.498904 0.555474
C17   C     C_R   0.104504 0.475386 0.773440 -0.092283
C18   C     C_R   0.037794 0.428192 0.888963 0.287118
C19   C     C_R   0.920620 0.379779 0.870848 -0.084820
C20   C     C_R   0.867806 0.383780 0.740436 -0.146449
C21   C     C_R   0.930397 0.439464 0.625264 0.011754
C22   C     C_3   0.644464 0.911405 0.862678 0.011653
C23   C     C_R   0.126179 0.496483 0.510733 -0.017744
C24   C     C_3   0.602943 0.026423 0.945116 -0.261968
C25   C     C_3   0.704919 0.124049 0.945566 -0.492333
C26   C     C_3   0.179231 0.355335 0.041396 -0.009443
C27   C     C_3   0.129678 0.233820 0.102658 -0.272753
C28   C     C_3   0.234636 0.148595 0.142027 -0.479164
C29   C     C_R   0.065784 0.504173 0.383574 -0.145966
C30   C     C_R   0.939650 0.491148 0.378459 -0.132040
C31   C     C_R   0.870156 0.466789 0.499677 -0.010277
C32   C     C_R   0.447418 0.064866 0.609794 0.005540
C33   C     C_R   0.503850 0.129543 0.499942 0.003612
C34   C     C_R   0.573009 0.064573 0.397540 -0.175486
Cu1   Cu    Cu3+1 0.499990 0.499980 0.640670 0.943594
Cu2   Cu    Cu3+1 0.500010 0.500020 0.359330 0.965807
H1    H     H_    0.115909 0.523755 0.286926 0.185679
H2    H     H_    0.868990 0.342179 0.959242 0.132984
H3    H     H_    0.777687 0.342196 0.730792 0.142078
H4    H     H_    0.896654 0.501918 0.279137 0.213019
H5    H     H_    0.624032 0.113287 0.315863 0.127450
H6    H     H_    0.629140 0.886157 0.321060 0.158150
H7    H     H_    0.253339 0.888490 0.589023 0.125445
H8    H     H_    0.664359 0.937031 0.752184 0.156109
H9    H     H_    0.733655 0.879737 0.905386 0.144455
H10   H     H_    0.519632 0.065640 0.897948 0.163543
H11   H     H_    0.579110 0.001324 0.054863 0.158810
H12   H     H_    0.311394 0.890783 0.772084 0.175260
H13   H     H_    0.788566 0.087146 0.994466 0.152875
H14   H     H_    0.673903 0.206292 0.006617 0.139618
H15   H     H_    0.728319 0.152208 0.836805 0.143784
H16   H     H_    0.242212 0.398282 0.117518 0.175041
H17   H     H_    0.235419 0.336364 0.944218 0.115394
H18   H     H_    0.071558 0.253902 0.197574 0.178536
H19   H     H_    0.071713 0.185941 0.024594 0.155011
H20   H     H_    0.295000 0.128168 0.049100 0.133416
H21   H     H_    0.196044 0.060125 0.182641 0.158350
H22   H     H_    0.290478 0.192479 0.224807 0.161191
H23   H     H_    0.253690 0.111243 0.589296 0.135379
H24   H     H_    0.311738 0.112550 0.772160 0.124422
H25   H     H_    0.488436 0.305129 0.126662 0.116915
H26   H     H_    0.488171 0.304931 0.870598 0.124324
H27   H     H_    0.679700 0.675135 0.864009 0.159121
H28   H     H_    0.552995 0.795591 0.124419 0.134451
H29   H     H_    0.189360 0.521539 0.797644 0.161970
N1    N     N_R   0.500790 0.500930 0.147930 -0.216736
N2    N     N_R   0.500790 0.500890 0.852020 -0.258961
O1    O     O_R   0.500000 0.319640 0.618810 -0.520399
O2    O     O_3   0.081840 0.439370 0.022696 -0.579892
O3    O     O_R   0.500010 0.319680 0.381230 -0.525187
O4    O     O_R   0.319640 0.499980 0.618820 -0.520304
O5    O     O_R   0.319650 0.500020 0.381230 -0.512570
O6    O     O_R   0.499990 0.680320 0.618770 -0.462538
O7    O     O_R   0.500000 0.680360 0.381190 -0.493532
O8    O     O_R   0.680350 0.499980 0.618770 -0.511498
O9    O     O_R   0.680360 0.500020 0.381180 -0.451672
O10   O     O_3   0.548876 0.820930 0.865758 -0.583063

loop_
_geom_bond_atom_site_label_1
_geom_bond_atom_site_label_2
_ccdc_geom_bond_type
C22   H8    S    
C15   O7    A    
C18   C19   A    
C27   H19   S    
C26   H17   S    
C6    C7    S    
C9    N1    A    
C10   N2    A    
C11   N2    A    
C2    H6    S    
C21   C31   A    
C12   C17   A    
C15   O6    A    
Cu1   Cu2   S    
C33   C34   A    
C4    O4    A    
C10   H26   S    
C25   H13   S    
C29   C30   A    
C14   H28   S    
C29   H1    S    
C17   C18   A    
C34   H5    S    
Cu1   O8    S    
C28   H22   S    
C16   O8    A    
Br1   C14   S    
C1    O1    A    
C24   H10   S    
C7    H24   S    
C1    C33   S    
C13   O10   S    
Cu2   O7    S    
C22   H9    S    
C20   C21   A    
C9    H25   S    
C27   H18   S    
C6    H12   S    
C3    C5    A    
C19   H2    S    
C24   C25   S    
Cu2   O9    S    
C12   C23   A    
C3    C15   S    
C8    N1    A    
C25   H15   S    
C30   C31   A    
C2    C34   A    
C13   H27   S    
Cu1   N2    S    
C16   O9    A    
C32   C33   A    
C6    H7    S    
C28   H21   S    
C24   H11   S    
C26   O2    S    
Cu1   O6    S    
C11   C13   S    
Cu2   O3    S    
C1    O3    A    
Cu1   O1    S    
Cu2   O5    S    
C27   C28   S    
C30   H4    S    
C28   H20   S    
C26   H16   S    
C5    C6    S    
C17   H29   S    
C5    C32   A    
C8    C14   S    
C25   H14   S    
C7    H23   S    
C4    C23   S    
Cu2   N1    S    
C12   C21   A    
C7    C32   S    
C22   C24   S    
C22   O10   S    
C4    O5    A    
C8    C11   A    
C23   C29   A    
C9    C10   A    
Cu1   O4    S    
C19   C20   A    
C26   C27   S    
C16   C31   S    
C13   C14   S    
C18   O2    S    
C2    C3    A    
C20   H3    S    
