data_mof_unit_35387.cif
_audit_creation_date              2012-12-10T16:35:15-0500
_audit_creation_method            fapswitch 2.2
_symmetry_space_group_name_H-M    P1
_symmetry_Int_Tables_number       1
_space_group_crystal_system       triclinic
_cell_length_a                    10.850075
_cell_length_b                    10.903237
_cell_length_c                    10.892198
_cell_angle_alpha                 80.968475
_cell_angle_beta                  97.986185
_cell_angle_gamma                 90.773861
_cell_volume                      1260.19443936

loop_
_atom_site_label
_atom_site_type_symbol
_atom_type_description
_atom_site_fract_x
_atom_site_fract_y
_atom_site_fract_z
_atom_type_partial_charge
C1    C     C_R   0.834154 0.473246 0.527312 0.511441
C2    C     C_2   0.450772 0.032861 0.511250 -0.043865
C3    C     C_2   0.540688 0.965366 0.474840 0.252963
C4    C     C_2   0.029754 0.530550 0.466535 -0.096261
C5    C     C_3   0.325059 0.972209 0.534383 -0.295870
C6    C     C_3   0.222050 0.056813 0.559950 -0.299719
C7    C     C_3   0.097336 0.990161 0.558764 -0.430764
C8    C     C_3   0.024135 0.362283 0.659109 -0.250749
C9    C     C_3   0.931221 0.297459 0.742250 -0.296092
C10   C     C_3   0.996994 0.201985 0.847749 -0.424085
C11   C     C_3   0.387187 0.639629 0.943738 -0.287953
C12   C     C_2   0.966196 0.456389 0.547110 0.005970
C13   C     C_3   0.255044 0.591163 0.911367 -0.302081
C14   C     C_3   0.175580 0.685364 0.815539 -0.442736
C15   C     C_2   0.470568 0.536954 0.024300 -0.055192
C16   C     C_2   0.533775 0.456451 0.971110 0.251987
C17   C     C_R   0.164347 0.526103 0.473974 0.493877
C18   C     C_R   0.524016 0.471266 0.837938 0.544492
C19   C     C_R   0.476889 0.526616 0.160531 0.521659
C20   C     C_R   0.524761 0.834139 0.477204 0.518268
C21   C     C_R   0.473200 0.164543 0.520104 0.557073
H1    H     H_    0.979828 0.597155 0.391846 0.105552
H2    H     H_    0.042592 0.129282 0.808292 0.155193
H3    H     H_    0.068230 0.247855 0.908322 0.161215
H4    H     H_    0.928031 0.156845 0.906258 0.178092
H5    H     H_    0.884566 0.367356 0.784641 0.200336
H6    H     H_    0.859291 0.249268 0.684946 0.218770
H7    H     H_    0.072732 0.289057 0.623105 0.173695
H8    H     H_    0.092046 0.411136 0.720339 0.165495
H9    H     H_    0.169908 0.774293 0.852246 0.162290
H10   H     H_    0.216106 0.702341 0.726206 0.142441
H11   H     H_    0.080074 0.648626 0.796101 0.165166
H12   H     H_    0.068149 0.961090 0.465900 0.167672
H13   H     H_    0.258313 0.503465 0.872027 0.175938
H14   H     H_    0.210279 0.571264 0.998109 0.184258
H15   H     H_    0.382670 0.720274 0.994028 0.181848
H16   H     H_    0.426352 0.677523 0.856709 0.138255
H17   H     H_    0.710365 0.169483 0.987959 0.366345
H18   H     H_    0.104215 0.907208 0.632757 0.159910
H19   H     H_    0.025188 0.053814 0.576814 0.194168
H20   H     H_    0.246782 0.085270 0.653824 0.195395
H21   H     H_    0.209899 0.140455 0.486339 0.183705
H22   H     H_    0.287154 0.932543 0.449126 0.173251
H23   H     H_    0.341872 0.894526 0.614310 0.129328
H24   H     H_    0.844760 0.921040 0.393140 0.346243
O1    O     O_3   0.500000 0.500000 0.500000 -0.470225
O2    O     O_R   0.597340 0.765700 0.560080 -0.493061
O3    O     O_R   0.548200 0.222430 0.451790 -0.444947
O4    O     O_R   0.441590 0.789440 0.401000 -0.568476
O5    O     O_R   0.412860 0.222430 0.587130 -0.558727
O6    O     O_2   0.697304 0.103322 0.338032 -0.217068
O7    O     O_2   0.749927 0.077177 0.567240 -0.305102
O8    O     O_3   0.787616 0.891452 0.454708 -0.526981
O9    O     O_2   0.732681 0.357236 0.130923 -0.250114
O10   O     O_2   0.538808 0.236787 0.123588 -0.246506
O11   O     O_3   0.667941 0.245272 0.939230 -0.544339
O12   O     O_R   0.441590 0.410520 0.779910 -0.537323
O13   O     O_R   0.548210 0.443940 0.230290 -0.455416
O14   O     O_R   0.787780 0.544200 0.591150 -0.533725
O15   O     O_R   0.222430 0.601350 0.398650 -0.538116
O16   O     O_R   0.767360 0.410530 0.454140 -0.493229
O17   O     O_R   0.222430 0.443930 0.556060 -0.574315
O18   O     O_R   0.597340 0.544190 0.781580 -0.550329
O19   O     O_R   0.412870 0.601350 0.208220 -0.553913
S1    S     S_3+6 0.696752 0.014548 0.458438 0.043059
S2    S     S_3+6 0.620172 0.321385 0.047361 0.054141
Zn1   Zn    Zn3+2 0.396020 0.396030 0.603970 0.921273
Zn2   Zn    Zn3+2 0.618560 0.587010 0.606350 0.979602
Zn3   Zn    Zn3+2 0.396030 0.620930 0.379070 0.927133
Zn4   Zn    Zn3+2 0.589390 0.396030 0.410610 1.079784

loop_
_geom_bond_atom_site_label_1
_geom_bond_atom_site_label_2
_ccdc_geom_bond_type
O16   Zn4   S    
C13   H13   S    
C7    H19   S    
O1    Zn2   S    
C6    C7    S    
O9    S2    D    
C7    H12   S    
C10   H2    S    
C4    C12   D    
O8    S1    S    
C9    C10   S    
C19   O19   A    
C18   O12   A    
C14   H10   S    
C8    C12   S    
C21   O3    A    
C2    C21   S    
C2    C3    D    
C5    H22   S    
H24   O8    S    
O1    Zn1   S    
O4    Zn3   S    
O19   Zn3   S    
C15   C19   S    
C11   C13   S    
C20   O4    A    
C1    C12   S    
O15   Zn3   S    
C14   H9    S    
O11   S2    S    
C8    H8    S    
O17   Zn1   S    
C10   H4    S    
C11   H15   S    
C5    H23   S    
O12   Zn1   S    
C9    H5    S    
C13   H14   S    
C1    O14   A    
C19   O13   A    
O6    S1    D    
C5    C6    S    
C3    S1    S    
C18   O18   A    
O1    Zn4   S    
C2    C5    S    
C16   S2    S    
C4    C17   S    
C17   O15   A    
C15   C16   D    
C20   O2    A    
C17   O17   A    
O2    Zn2   S    
C3    C20   S    
O10   S2    D    
H17   O11   S    
C9    H6    S    
C8    H7    S    
C16   C18   S    
C6    H21   S    
C14   H11   S    
C11   H16   S    
O14   Zn2   S    
C4    H1    S    
O18   Zn2   S    
C21   O5    A    
O1    Zn3   S    
C7    H18   S    
C10   H3    S    
C13   C14   S    
C11   C15   S    
O13   Zn4   S    
O7    S1    D    
O5    Zn1   S    
O3    Zn4   S    
C8    C9    S    
C6    H20   S    
C1    O16   A    
