data_mof_unit_50040.cif
_audit_creation_date              2012-12-10T22:11:10-0500
_audit_creation_method            fapswitch 2.2
_symmetry_space_group_name_H-M    P1
_symmetry_Int_Tables_number       1
_space_group_crystal_system       triclinic
_cell_length_a                    12.110551
_cell_length_b                    12.255907
_cell_length_c                    23.189628
_cell_angle_alpha                 91.163265
_cell_angle_beta                  89.221556
_cell_angle_gamma                 89.879726
_cell_volume                      3440.90210053

loop_
_atom_site_label
_atom_site_type_symbol
_atom_type_description
_atom_site_fract_x
_atom_site_fract_y
_atom_site_fract_z
_atom_type_partial_charge
C1    C     C_R   0.654843 0.998035 0.579574 0.833429
C2    C     C_R   0.344230 0.002030 0.421012 0.876442
C3    C     C_R   0.891061 0.816737 0.130856 0.451372
C4    C     C_R   0.089983 0.238884 0.838239 0.357862
C5    C     C_R   0.099975 0.851659 0.180294 0.324767
C6    C     C_R   0.912503 0.089107 0.843499 0.265064
C7    C     C_R   0.088565 0.809375 0.124917 -0.200866
C8    C     C_R   0.934949 0.159853 0.890846 -0.150135
C9    C     C_R   0.915495 0.171097 0.203559 -0.111990
C10   C     C_R   0.087423 0.877286 0.825837 -0.235106
C11   C     C_R   0.914284 0.256804 0.165177 0.366500
C12   C     C_R   0.097396 0.793145 0.863866 0.434048
C13   C     C_R   0.104424 0.914729 0.334645 0.043503
C14   C     C_R   0.830689 0.091085 0.701658 0.048451
C15   C     C_R   0.180491 0.922971 0.378473 -0.234498
C16   C     C_R   0.748509 0.088092 0.660272 -0.139521
C17   C     C_R   0.904244 0.098680 0.337330 0.370384
C18   C     C_R   0.180619 0.896705 0.702520 0.345418
C19   C     C_R   0.828053 0.086337 0.383316 -0.119555
C20   C     C_R   0.277986 0.922576 0.672027 -0.155751
C21   C     C_3   0.007993 0.003536 0.248915 -0.053316
C22   C     C_3   0.994819 0.985534 0.751246 -0.026557
C23   C     C_R   0.657801 0.001507 0.422327 0.878289
C24   C     C_R   0.348801 0.999405 0.581092 0.843180
C25   C     C_R   0.106553 0.992914 0.289131 0.134815
C26   C     C_R   0.896898 0.994830 0.709777 0.102332
C27   C     C_R   0.262033 0.002042 0.377187 -0.013292
C28   C     C_R   0.735709 0.996915 0.624271 -0.066917
C29   C     C_R   0.909179 0.014138 0.292483 -0.105876
C30   C     C_R   0.097469 0.982250 0.709470 -0.061378
C31   C     C_R   0.746956 0.004555 0.380398 -0.174948
C32   C     C_R   0.271720 0.001029 0.629194 -0.169638
C33   C     C_R   0.007839 0.101336 0.207768 0.115781
C34   C     C_R   0.997046 0.885916 0.789055 0.046100
C35   C     C_R   0.999553 0.264030 0.122960 -0.156430
C36   C     C_R   0.007337 0.719429 0.869680 -0.240411
C37   C     C_R   0.003925 0.905979 0.205492 0.007587
C38   C     C_R   0.994410 0.079696 0.797390 -0.098450
C39   C     C_R   0.987164 0.765577 0.109177 -0.196525
C40   C     C_R   0.014206 0.243131 0.884660 -0.169606
C41   C     C_R   0.990944 0.668008 0.071783 0.934936
C42   C     C_R   0.009045 0.337258 0.924639 0.961806
C43   C     C_R   0.998898 0.351153 0.080562 0.970847
C44   C     C_R   0.002531 0.644177 0.917477 0.860346
C45   C     C_R   0.192731 0.070574 0.288785 0.033306
C46   C     C_R   0.883478 0.907035 0.670327 -0.185192
C47   C     C_R   0.269407 0.074942 0.332317 -0.086382
C48   C     C_R   0.803196 0.906596 0.629266 -0.167852
C49   C     C_R   0.829872 0.929231 0.295029 -0.173878
C50   C     C_R   0.105992 0.072137 0.672125 -0.199520
C51   C     C_R   0.748104 0.927475 0.336352 -0.177685
C52   C     C_R   0.187418 0.077583 0.630382 -0.144546
C53   C     C_R   0.092250 0.111073 0.166115 -0.279539
C54   C     C_R   0.913740 0.806945 0.791285 0.035195
C55   C     C_R   0.087240 0.186849 0.122538 -0.054432
C56   C     C_R   0.918975 0.722187 0.830147 -0.084172
C57   C     C_R   0.904003 0.896012 0.173949 -0.297967
C58   C     C_R   0.085541 0.151576 0.799400 -0.308244
H1    H     H_    0.334666 0.135241 0.330888 0.154544
H2    H     H_    0.796567 0.836733 0.600112 0.177033
H3    H     H_    0.832506 0.857016 0.268062 0.223172
H4    H     H_    0.045921 0.137253 0.673475 0.152145
H5    H     H_    0.160609 0.054730 0.165584 0.160333
H6    H     H_    0.845725 0.807915 0.761937 0.210974
H7    H     H_    0.834583 0.948896 0.184199 0.212593
H8    H     H_    0.153791 0.143408 0.769593 0.203294
H9    H     H_    0.844462 0.162219 0.231546 0.160155
H10   H     H_    0.153362 0.936348 0.822817 0.188055
H11   H     H_    0.687635 0.862353 0.335083 0.200778
H12   H     H_    0.184588 0.141990 0.599085 0.182953
H13   H     H_    0.178073 0.865170 0.413347 0.145762
H14   H     H_    0.696793 0.159322 0.654436 0.194126
H15   H     H_    0.201613 0.130960 0.256094 0.167147
H16   H     H_    0.937648 0.838471 0.669843 0.204366
O1    O     O_R   0.621380 0.090460 0.561410 -0.617927
O2    O     O_R   0.378620 0.909540 0.438590 -0.607305
O3    O     O_R   0.617150 0.909540 0.438590 -0.621640
O4    O     O_R   0.382850 0.090460 0.561410 -0.605557
O5    O     O_R   0.619720 0.093230 0.440890 -0.569843
O6    O     O_R   0.380280 0.906770 0.559110 -0.631228
O7    O     O_R   0.618800 0.906770 0.559110 -0.628341
O8    O     O_R   0.381200 0.093230 0.440890 -0.611133
O9    O     O_R   0.087590 0.627480 0.058790 -0.626826
O10   O     O_R   0.912410 0.372520 0.941210 -0.640280
O11   O     O_R   0.905660 0.383870 0.059980 -0.545396
O12   O     O_R   0.094340 0.616130 0.940020 -0.529675
O13   O     O_R   0.092570 0.390420 0.063230 -0.623715
O14   O     O_R   0.907430 0.609580 0.936770 -0.637992
O15   O     O_R   0.900680 0.620930 0.055550 -0.537092
O16   O     O_R   0.099320 0.379070 0.944450 -0.531744
Zn1   Zn    Zn3+2 0.501730 0.123520 0.501540 1.077892
Zn2   Zn    Zn3+2 0.498270 0.876480 0.498460 1.029956
Zn3   Zn    Zn3+2 0.125690 0.504390 0.002180 1.188970
Zn4   Zn    Zn3+2 0.874310 0.495610 0.997820 1.185476
S1    S     S_3+6 0.236431 0.831762 0.207935 0.025579
O17   O     O_2   0.301817 0.935603 0.207569 -0.323685
O18   O     O_2   0.235967 0.785749 0.267304 -0.241530
O19   O     O_3   0.304380 0.740724 0.165141 -0.511604
H17   H     H_    0.264875 0.670824 0.170346 0.374465
S2    S     S_3+6 0.781122 0.019514 0.846744 0.053613
O20   O     O_2   0.694664 0.102097 0.864692 -0.217750
O21   O     O_2   0.742364 0.967261 0.791857 -0.261409
O22   O     O_3   0.785177 0.923347 0.897537 -0.477579
H18   H     H_    0.864385 0.912449 0.905795 0.328313
C59   C     C_2   0.028582 0.820145 0.338822 0.448754
H19   H     H_    0.993583 0.799304 0.380509 0.050963
O23   O     O_2   0.010464 0.760364 0.297367 -0.520390
C60   C     C_2   0.846298 0.198959 0.730546 0.411838
H20   H     H_    0.927403 0.234894 0.734193 0.069241
O24   O     O_2   0.766834 0.251168 0.748896 -0.486266
S3    S     S_3+6 0.989279 0.219621 0.342712 0.015499
O25   O     O_2   0.070411 0.203646 0.390322 -0.347972
O26   O     O_2   0.051347 0.252384 0.289617 -0.311574
O27   O     O_3   0.906906 0.325703 0.361236 -0.450580
H21   H     H_    0.957597 0.384205 0.374334 0.400799
S4    S     S_3+6 0.162633 0.750816 0.708443 0.061441
O28   O     O_2   0.217559 0.710894 0.761579 -0.156830
O29   O     O_2   0.046348 0.709991 0.708444 -0.344806
O30   O     O_3   0.227370 0.690280 0.651591 -0.471243
H22   H     H_    0.187206 0.715674 0.617409 0.345017
C61   C     C_2   0.174178 0.177149 0.076817 0.548503
H23   H     H_    0.255606 0.147225 0.087654 0.066491
O31   O     O_2   0.154540 0.194943 0.026403 -0.483971
C62   C     C_2   0.835758 0.633339 0.825347 0.585230
H24   H     H_    0.854278 0.552128 0.840300 0.071820
O32   O     O_2   0.746120 0.649246 0.803463 -0.483954
S5    S     S_3+6 0.758118 0.796004 0.101699 0.090141
O33   O     O_2   0.764930 0.800000 0.036987 -0.243010
O34   O     O_2   0.715613 0.686339 0.119407 -0.208929
O35   O     O_3   0.669968 0.893131 0.126228 -0.538481
H25   H     H_    0.597941 0.873666 0.109138 0.414334
S6    S     S_3+6 0.190561 0.341389 0.825797 0.101036
O36   O     O_2   0.137244 0.452203 0.829684 -0.244107
O37   O     O_2   0.278835 0.335103 0.870588 -0.220744
O38   O     O_3   0.248830 0.325452 0.759823 -0.490568
H26   H     H_    0.310252 0.273084 0.764739 0.371226
C63   C     C_2   0.159492 0.856135 0.079286 0.532842
H27   H     H_    0.248273 0.861007 0.083827 0.153535
O39   O     O_2   0.117052 0.898392 0.037778 -0.515935
C64   C     C_2   0.880648 0.143139 0.948473 0.528182
H28   H     H_    0.797640 0.112209 0.952903 0.163794
O40   O     O_2   0.931203 0.160468 0.992856 -0.543867
S7    S     S_3+6 0.807337 0.355421 0.174605 0.097633
O41   O     O_2   0.854076 0.468501 0.170065 -0.232468
O42   O     O_2   0.722210 0.338617 0.128684 -0.263894
O43   O     O_3   0.746307 0.344438 0.239900 -0.469910
H29   H     H_    0.686355 0.290483 0.234467 0.361592
S8    S     S_3+6 0.230709 0.778366 0.895294 0.141585
O44   O     O_2   0.223212 0.781771 0.959780 -0.225119
O45   O     O_2   0.279931 0.670363 0.876589 -0.167880
O46   O     O_3   0.316614 0.878711 0.874904 -0.489416
H30   H     H_    0.346556 0.854730 0.836795 0.405874
C65   C     C_2   0.842491 0.149158 0.438247 0.567993
H31   H     H_    0.903819 0.122768 0.468680 0.024416
O47   O     O_2   0.787859 0.231039 0.449085 -0.480939
C66   C     C_2   0.386169 0.868767 0.683916 0.569676
H32   H     H_    0.457147 0.880314 0.655782 0.060810
O48   O     O_2   0.399976 0.816503 0.727425 -0.471442

loop_
_geom_bond_atom_site_label_1
_geom_bond_atom_site_label_2
_ccdc_geom_bond_type
C16   C28   A    
S7    O43   S    
C41   O15   A    
C55   C61   S    
O3    Zn2   S    
C5    C37   A    
S1    O17   D    
C17   C29   A    
C59   H19   S    
S3    O25   D    
C16   H14   S    
S8    O46   S    
C19   C31   A    
C9    H9    S    
O27   H21   S    
S1    O19   S    
O38   H26   S    
C39   C41   S    
C29   C49   A    
C60   H20   S    
C59   O23   D    
C41   O9    A    
C64   H28   S    
C56   C62   S    
C66   H32   S    
S8    O45   D    
C3    S5    S    
C21   C33   S    
C1    O7    A    
S7    O41   D    
O9    Zn3   S    
S4    O28   D    
C45   H15   S    
C7    C63   S    
O15   Zn4   S    
C32   C52   A    
C38   C58   A    
O7    Zn2   S    
C11   C35   A    
C24   O6    A    
C4    C40   A    
C60   O24   D    
S6    O36   D    
C49   C51   A    
C1    C28   S    
C50   C52   A    
O46   H30   S    
C6    C38   A    
C2    C27   S    
C18   C30   A    
C52   H12   S    
C12   C36   A    
C35   C43   S    
O5    Zn1   S    
O1    Zn1   S    
C51   H11   S    
C45   C47   A    
C30   C50   A    
C3    C39   A    
C9    C33   A    
C10   C34   A    
C13   C25   A    
S5    O34   D    
C44   O12   A    
C17   S3    S    
C5    S1    S    
C58   H8    S    
C48   H2    S    
C46   C48   A    
C53   C55   A    
C33   C53   A    
C22   C34   S    
O14   Zn4   S    
C49   H3    S    
C35   C55   A    
C43   O11   A    
C42   O10   A    
S8    O44   D    
C4    S6    S    
C18   S4    S    
C5    C7    A    
C6    C8    A    
C23   C31   S    
C21   C29   S    
S2    O22   S    
C14   C26   A    
O8    Zn1   S    
C42   O16   A    
C1    O1    A    
O6    Zn2   S    
C24   C32   S    
C36   C56   A    
O12   Zn3   S    
C63   O39   D    
O11   Zn4   S    
C15   C27   A    
C57   H7    S    
S2    O21   D    
S3    O26   D    
O10   Zn4   S    
C23   O3    A    
C9    C11   A    
C61   H23   S    
C10   C12   A    
O2    Zn2   S    
C3    C57   A    
C13   C59   S    
C34   C54   A    
C13   C15   A    
C19   C65   S    
C14   C16   A    
C2    O8    A    
C65   O47   D    
S5    O33   D    
C25   C45   A    
C46   H16   S    
C2    O2    A    
O16   Zn3   S    
C62   O32   D    
O43   H29   S    
C20   C32   A    
C24   O4    A    
S7    O42   D    
C21   C25   S    
C28   C48   A    
C20   C66   S    
C31   C51   A    
C40   C42   S    
O30   H22   S    
S1    O18   D    
C54   C56   A    
C64   O40   D    
C10   H10   S    
O4    Zn1   S    
C15   H13   S    
C63   H27   S    
C27   C47   A    
S4    O30   S    
C8    C64   S    
C43   O13   A    
C12   S8    S    
C66   O48   D    
O35   H25   S    
S5    O35   S    
C22   C30   S    
C53   H5    S    
C54   H6    S    
S6    O38   S    
C50   H4    S    
O13   Zn3   S    
C14   C60   S    
S2    O20   D    
C17   C19   A    
S4    O29   D    
S3    O27   S    
C18   C20   A    
C61   O31   D    
C36   C44   S    
C26   C46   A    
C47   H1    S    
C21   C37   S    
S6    O37   D    
O19   H17   S    
C22   C26   S    
C4    C58   A    
O22   H18   S    
C7    C39   A    
C8    C40   A    
C23   O5    A    
C65   H31   S    
C44   O14   A    
C11   S7    S    
C37   C57   A    
C6    S2    S    
C62   H24   S    
C22   C38   S    
