data_mof_unit_33754.cif
_audit_creation_date              2012-12-11T15:24:20-0500
_audit_creation_method            fapswitch 2.2
_symmetry_space_group_name_H-M    P1
_symmetry_Int_Tables_number       1
_space_group_crystal_system       triclinic
_cell_length_a                    8.727459
_cell_length_b                    14.665768
_cell_length_c                    19.178809
_cell_angle_alpha                 93.100815
_cell_angle_beta                  92.988361
_cell_angle_gamma                 93.759524
_cell_volume                      2442.0985739

loop_
_atom_site_label
_atom_site_type_symbol
_atom_type_description
_atom_site_fract_x
_atom_site_fract_y
_atom_site_fract_z
_atom_type_partial_charge
Ba1   Ba    Ba6+2 0.150350 0.545800 0.464500 1.826511
Ba2   Ba    Ba6+2 0.659830 0.454190 0.535450 1.816379
C1    C     C_3   0.407883 0.768328 0.192608 -0.232320
C2    C     C_3   0.393776 0.738438 0.267337 0.444090
C3    C     C_3   0.451897 0.744706 0.654860 0.180498
C4    C     C_3   0.419234 0.834383 0.695195 -0.152331
C5    C     C_3   0.828452 0.214506 0.690450 0.331486
C6    C     C_3   0.816437 0.112718 0.706402 -0.241647
C7    C     C_3   0.407508 0.181459 0.742875 0.518457
C8    C     C_3   0.497988 0.147049 0.808044 -0.310322
C9    C     C_R   0.004555 0.949188 0.536628 0.004285
C10   C     C_R   0.830133 0.804940 0.497417 0.089704
C11   C     C_R   0.688902 0.773686 0.461194 -0.262425
C12   C     C_3   0.860788 0.796794 0.253757 0.153199
C13   C     C_R   0.591236 0.832533 0.427245 -0.055855
C14   C     C_R   0.644220 0.925072 0.421195 -0.127394
C15   C     C_R   0.774470 0.962953 0.463056 -0.021761
C16   C     C_R   0.871002 0.904201 0.500444 0.015120
C17   C     C_R   0.939957 0.103868 0.502019 -0.017600
C18   C     C_R   0.045099 0.044562 0.530449 0.030111
C19   C     C_R   0.976460 0.203166 0.506442 -0.012512
C20   C     C_R   0.117675 0.237168 0.540942 0.075000
C21   C     C_R   0.228621 0.174420 0.559256 0.051871
C22   C     C_R   0.192466 0.081314 0.552314 -0.011949
C23   C     C_3   0.839124 0.846701 0.184738 0.262487
C24   C     C_R   0.805799 0.060635 0.468835 -0.013416
C25   C     C_R   0.589800 0.556903 0.299783 -0.162608
C26   C     C_R   0.456107 0.500511 0.279508 0.127388
C27   C     C_R   0.409248 0.490015 0.208394 -0.047867
C28   C     C_R   0.500487 0.528705 0.157423 0.035428
C29   C     C_R   0.645114 0.572982 0.178400 -0.082237
C30   C     C_R   0.692740 0.585298 0.249597 0.011001
C31   C     C_R   0.445776 0.590692 0.039372 -0.063274
C32   C     C_R   0.380418 0.580894 0.970483 -0.044631
C33   C     C_R   0.329614 0.492074 0.940098 -0.045160
C34   C     C_3   0.855158 0.268148 0.299016 0.470983
C35   C     C_R   0.335028 0.416485 0.984444 0.420249
C36   C     C_R   0.392187 0.430571 0.054070 -0.031640
C37   C     C_R   0.448508 0.516479 0.082093 0.021708
C38   C     C_R   0.124978 0.453053 0.839731 -0.097345
C39   C     C_R   0.080896 0.449359 0.766979 -0.033351
C40   C     C_R   0.336588 0.512351 0.740655 0.059973
C41   C     C_R   0.389045 0.507146 0.811596 -0.045700
C42   C     C_R   0.281334 0.480767 0.862652 0.036088
C43   C     C_R   0.180971 0.492739 0.723419 -0.198771
C44   C     C_3   0.022247 0.290949 0.290670 -0.176737
C45   C     C_3   0.004011 0.664670 0.672960 0.279913
C46   C     C_3   0.993481 0.687968 0.750850 -0.320680
C47   C     C_3   0.347965 0.247185 0.371957 0.524216
C48   C     C_3   0.507472 0.221632 0.366890 -0.131260
H1    H     H_    0.320581 0.673571 0.267734 0.058685
H2    H     H_    0.046254 0.344483 0.253499 0.156218
H3    H     H_    0.070807 0.311692 0.343663 0.100873
H4    H     H_    0.077846 0.231979 0.267491 0.131029
H5    H     H_    0.125944 0.657261 0.661651 -0.019621
H6    H     H_    0.932208 0.600260 0.658910 0.053459
H7    H     H_    0.065256 0.751807 0.766660 0.163045
H8    H     H_    0.034017 0.632285 0.782171 0.082946
H9    H     H_    0.872154 0.698064 0.762506 0.129800
H10   H     H_    0.328485 0.277044 0.424383 -0.012960
H11   H     H_    0.525479 0.187750 0.315116 0.098293
H12   H     H_    0.534187 0.173742 0.407220 0.101414
H13   H     H_    0.576236 0.286788 0.372991 0.162915
H14   H     H_    0.511209 0.725392 0.286881 -0.081416
H15   H     H_    0.504560 0.734635 0.169643 -0.056716
H16   H     H_    0.354768 0.724895 0.616132 0.037495
H17   H     H_    0.440518 0.892287 0.661388 0.135025
H18   H     H_    0.296881 0.830768 0.708680 0.074410
H19   H     H_    0.437185 0.843152 0.193032 0.087632
H20   H     H_    0.735292 0.886262 0.189514 -0.095230
H21   H     H_    0.717743 0.235800 0.669543 0.095318
H22   H     H_    0.907852 0.221045 0.647749 0.033474
H23   H     H_    0.698847 0.086684 0.714504 0.118778
H24   H     H_    0.853435 0.070312 0.661350 0.113570
H25   H     H_    0.887601 0.099705 0.753714 0.221209
H26   H     H_    0.422117 0.140642 0.852507 0.198290
H27   H     H_    0.531436 0.076602 0.796195 0.129033
H28   H     H_    0.650522 0.702089 0.461884 0.019755
H29   H     H_    0.282656 0.038021 0.566740 0.110116
H30   H     H_    0.723874 0.103915 0.447641 0.091055
H31   H     H_    0.487942 0.657800 0.060912 0.044484
H32   H     H_    0.745382 0.767924 0.265151 -0.052221
H33   H     H_    0.303447 0.449680 0.192727 0.091455
H34   H     H_    0.394040 0.372923 0.087148 0.148388
H35   H     H_    0.722578 0.594139 0.139287 0.115710
H36   H     H_    0.139094 0.506432 0.672550 0.099775
H37   H     H_    0.623138 0.569343 0.354775 0.060355
O1    O     O_2   0.108370 0.727470 0.525290 -0.434090
O2    O     O_3   0.324499 0.308798 0.318685 -0.655291
O3    O     O_3   0.969030 0.729371 0.247354 -0.524993
O4    O     O_2   0.701930 0.272470 0.474700 -0.483638
O5    O     O_3   0.944970 0.388780 0.468720 -0.399942
O6    O     O_3   0.463940 0.328280 0.598320 -0.321070
O7    O     O_3   0.825921 0.235370 0.366309 -0.673505
O8    O     O_3   0.372010 0.546630 0.581240 -0.414010
O9    O     O_3   0.877070 0.374860 0.631520 -0.467585
O10   O     O_2   0.756599 0.429370 0.749386 -0.399417
O11   O     O_3   0.881261 0.272205 0.749591 -0.551067
O12   O     O_3   0.865330 0.611210 0.531230 -0.484511
O13   O     O_3   0.438280 0.453360 0.418700 -0.446331
O14   O     O_2   0.627420 0.543410 0.667830 -0.476591
O15   O     O_3   0.467891 0.679580 0.704221 -0.707527
O16   O     O_2   0.535723 0.169216 0.548020 -0.514552
O17   O     O_3   0.482086 0.159397 0.679698 -0.664216
O18   O     O_3   0.346360 0.671710 0.401620 -0.520945
O19   O     O_2   0.268835 0.835444 0.440409 -0.334603
O20   O     O_3   0.949886 0.737234 0.637253 -0.618589
O21   O     O_3   0.332981 0.806626 0.310037 -0.476632
O22   O     O_2   0.182890 0.456530 0.332150 -0.505495
O23   O     O_3   0.933230 0.625130 0.368420 -0.488928
O24   O     O_2   0.008368 0.556067 0.248026 -0.386005
P1    P     P_3+3 0.937730 0.712710 0.546710 1.038998
P2    P     P_3+3 0.357970 0.428340 0.344000 1.062859
P3    P     P_3+3 0.896903 0.624422 0.277635 1.075369
P4    P     P_3+3 0.872570 0.287280 0.453240 1.072292
P5    P     P_3+3 0.901129 0.385875 0.723839 1.074211
P6    P     P_3+3 0.388963 0.788272 0.397096 1.116866
P7    P     P_3+3 0.450505 0.566182 0.670669 0.997433
P8    P     P_3+3 0.423355 0.209034 0.599476 1.055969
S1    S     S_3+6 0.237643 0.137479 0.357883 -0.084953
O25   O     O_2   0.298296 0.073170 0.409262 -0.278182
O26   O     O_2   0.070438 0.141700 0.369055 -0.352409
O27   O     O_3   0.258397 0.092731 0.276537 -0.412317
H38   H     H_    0.284447 0.145047 0.247841 0.335484
C49   C     C_2   0.266257 0.742360 0.146190 0.583623
H39   H     H_    0.221510 0.791655 0.111747 0.093150
O28   O     O_2   0.206202 0.664593 0.143381 -0.538655
C50   C     C_2   0.597417 0.755600 0.617791 0.513562
H40   H     H_    0.630103 0.698100 0.585658 -0.068617
O29   O     O_2   0.679530 0.826633 0.624128 -0.611366
C51   C     C_2   0.518003 0.852100 0.762018 0.617145
H41   H     H_    0.498474 0.810109 0.806029 0.026384
O30   O     O_2   0.620271 0.913326 0.767219 -0.566929
S2    S     S_3+6 0.225202 0.118260 0.742683 -0.133061
O31   O     O_2   0.149991 0.133555 0.810563 -0.217943
O32   O     O_2   0.122884 0.146982 0.685239 -0.458947
O33   O     O_3   0.248436 0.006650 0.730531 -0.509576
H42   H     H_    0.295972 0.002876 0.685110 0.326612
C52   C     C_2   0.390316 0.281724 0.753787 0.559642
H43   H     H_    0.285185 0.306765 0.771665 0.045820
O34   O     O_2   0.495685 0.336399 0.742644 -0.547037
C53   C     C_2   0.635951 0.205178 0.838320 0.581279
H44   H     H_    0.748611 0.178479 0.838763 0.066351
O35   O     O_2   0.620930 0.279589 0.867857 -0.418196
C54   C     C_2   0.910944 0.864020 0.313777 0.647108
H45   H     H_    0.862806 0.930175 0.317477 -0.058582
O36   O     O_2   0.007213 0.845630 0.358188 -0.498353
C55   C     C_2   0.584261 0.980020 0.363532 0.515007
H46   H     H_    0.655212 0.036427 0.345843 -0.033487
O37   O     O_2   0.459811 0.962784 0.332864 -0.457007
S3    S     S_3+6 0.169836 0.355405 0.564890 -0.080457
O38   O     O_2   0.291103 0.383952 0.516931 -0.267866
O39   O     O_2   0.073266 0.435146 0.569667 -0.260353
O40   O     O_3   0.229842 0.349029 0.647533 -0.596281
H47   H     H_    0.148577 0.310405 0.667488 0.284384
C56   C     C_2   0.093264 0.903605 0.589620 0.474658
H48   H     H_    0.047694 0.894811 0.640443 0.085007
O41   O     O_2   0.221705 0.881073 0.578154 -0.611194
C57   C     C_2   0.552826 0.534210 0.832315 0.600086
H49   H     H_    0.618084 0.582707 0.802878 -0.020287
O42   O     O_2   0.618382 0.501104 0.881700 -0.518562
C58   C     C_2   0.365207 0.666653 0.933481 0.477861
H50   H     H_    0.433974 0.728384 0.952113 0.013877
O43   O     O_2   0.272347 0.670978 0.884154 -0.609606
S4    S     S_3+6 0.268642 0.301854 0.961270 -0.049589
O44   O     O_2   0.216657 0.286691 0.886063 -0.304443
O45   O     O_2   0.395521 0.240497 0.977591 -0.239893
O46   O     O_3   0.120280 0.274571 0.010475 -0.481617
H51   H     H_    0.090571 0.209322 0.997293 0.401061
C59   C     C_2   0.009692 0.435874 0.892808 0.658976
H52   H     H_    0.030568 0.464984 0.945901 0.003967
O47   O     O_2   0.891846 0.387860 0.879035 -0.446213
S5    S     S_3+6 0.994207 0.929242 0.169070 -0.017892
O48   O     O_2   0.024762 0.926962 0.092545 -0.272189
O49   O     O_2   0.949259 0.022982 0.191252 -0.249492
O50   O     O_3   0.155127 0.908623 0.215499 -0.449750
H53   H     H_    0.237700 0.946250 0.194971 0.377805
C60   C     C_2   0.806541 0.780847 0.121972 0.562731
H54   H     H_    0.696951 0.779634 0.092479 -0.077631
O51   O     O_2   0.903246 0.730219 0.102418 -0.519906
C61   C     C_2   0.801343 0.191505 0.245543 0.674643
H55   H     H_    0.756105 0.126304 0.262427 -0.007838
O52   O     O_2   0.809422 0.201333 0.182901 -0.479649
S6    S     S_3+6 0.750916 0.362774 0.278205 -0.150424
O53   O     O_2   0.820854 0.411433 0.219493 -0.298570
O54   O     O_2   0.589501 0.331402 0.253354 -0.361275
O55   O     O_3   0.757743 0.429857 0.351773 -0.594175
H56   H     H_    0.865747 0.455078 0.357306 0.348890

loop_
_geom_bond_atom_site_label_1
_geom_bond_atom_site_label_2
_ccdc_geom_bond_type
C9    C16   A    
S4    O44   D    
C29   H35   S    
C5    O11   S    
C52   O34   D    
O20   P1    S    
C17   C18   A    
C19   P4    S    
C50   H40   S    
Ba1   O12   S    
S2    O33   S    
C38   C59   S    
C54   H45   S    
O27   H38   S    
C29   C30   A    
S5    O48   D    
O3    P3    S    
C2    O21   S    
C12   C54   S    
C31   C37   A    
C47   H10   S    
O14   P7    D    
C26   C27   A    
C17   C19   A    
C35   C36   A    
C55   O37   D    
C27   H33   S    
C41   C57   S    
Ba1   P1    S    
C5    H21   S    
C3    C4    S    
C32   C33   A    
O7    P4    S    
C47   S1    S    
C59   H52   S    
C13   C14   A    
C44   H2    S    
S6    O53   D    
C44   H3    S    
Ba1   Ba2   S    
C8    C53   S    
S3    O40   S    
C17   C24   A    
C12   O3    S    
Ba1   O22   S    
C20   S3    S    
C8    H26   S    
C56   O41   D    
C18   C22   A    
O4    P4    D    
C14   C15   A    
C21   C22   A    
C57   O42   D    
C34   C44   S    
C34   S6    S    
C7    C8    S    
O23   P3    S    
O15   P7    S    
S1    O27   S    
O22   P2    D    
O17   P8    S    
C36   H34   S    
C7    S2    S    
Ba1   O1    S    
C4    H18   S    
S3    O38   D    
Ba2   O13   S    
S4    O45   D    
C19   C20   A    
C48   H13   S    
O18   P6    S    
C1    H15   S    
Ba1   P2    S    
Ba1   O13   S    
C54   O36   D    
C8    H27   S    
S1    O26   D    
C60   H54   S    
C58   O43   D    
C61   O52   D    
O8    P7    S    
O2    P2    S    
C9    C18   A    
C2    H1    S    
C45   C46   S    
O46   H51   S    
C46   H7    S    
C31   C32   A    
C55   H46   S    
C5    H22   S    
C23   C60   S    
C40   P7    S    
S2    O32   D    
Ba2   O14   S    
C51   O30   D    
C61   H55   S    
C6    H25   S    
C24   H30   S    
C13   P6    S    
C40   C43   A    
Ba2   O5    S    
C41   C42   A    
C27   C28   A    
C23   S5    S    
Ba1   O23   S    
Ba2   P4    S    
C22   H29   S    
O11   P5    S    
C57   H49   S    
C28   C29   A    
Ba1   O8    S    
C44   H4    S    
C6    H24   S    
C15   C16   A    
C35   S4    S    
O10   P5    D    
C25   H37   S    
C33   C42   S    
O40   H47   S    
S5    O49   D    
C9    C56   S    
C38   C39   A    
Ba2   O12   S    
S4    O46   S    
C45   O20   S    
C11   C13   A    
O19   P6    D    
C49   H39   S    
C48   H12   S    
C53   O35   D    
C40   C41   A    
C15   C24   A    
C39   P5    S    
C51   H41   S    
C10   P1    S    
S1    O25   D    
C33   C35   A    
C46   H9    S    
C45   H5    S    
C58   H50   S    
S5    O50   S    
C3    O15   S    
C56   H48   S    
C39   C43   A    
C1    H19   S    
C25   C30   A    
C20   C21   A    
O21   P6    S    
Ba2   O6    S    
O16   P8    D    
O13   P2    S    
C47   O2    S    
C4    C51   S    
C32   C58   S    
C50   O29   D    
C60   O51   D    
C52   H43   S    
C1    C49   S    
C46   H8    S    
S2    O31   D    
C23   H20   S    
Ba1   O5    S    
O33   H42   S    
C2    H14   S    
S6    O55   S    
C14   C55   S    
C30   P3    S    
O50   H53   S    
C43   H36   S    
O55   H56   S    
C4    H17   S    
C3    H16   S    
C21   P8    S    
C7    C52   S    
C36   C37   A    
C59   O47   D    
C7    O17   S    
O12   P1    S    
C3    C50   S    
Ba2   O9    S    
C6    H23   S    
S6    O54   D    
C28   C37   S    
O24   P3    D    
S3    O39   D    
C12   C23   S    
Ba2   O4    S    
O5    P4    S    
C5    C6    S    
C26   P2    S    
C11   H28   S    
O1    P1    D    
C34   O7    S    
C38   C42   A    
C10   C11   A    
C47   C48   S    
C10   C16   A    
C25   C26   A    
C49   O28   D    
C48   H11   S    
C12   H32   S    
C53   H44   S    
O9    P5    S    
C34   C61   S    
O6    P8    S    
Ba2   O8    S    
C31   H31   S    
C1    C2    S    
Ba1   O18   S    
C45   H6    S    
