data_mof_unit_27012.cif
_audit_creation_date              2012-12-10T17:15:50-0500
_audit_creation_method            fapswitch 2.2
_symmetry_space_group_name_H-M    P1
_symmetry_Int_Tables_number       1
_space_group_crystal_system       triclinic
_cell_length_a                    10.15125
_cell_length_b                    10.635311
_cell_length_c                    10.590149
_cell_angle_alpha                 90.12111
_cell_angle_beta                  94.845881
_cell_angle_gamma                 81.658526
_cell_volume                      1127.13204527

loop_
_atom_site_label
_atom_site_type_symbol
_atom_type_description
_atom_site_fract_x
_atom_site_fract_y
_atom_site_fract_z
_atom_type_partial_charge
C1    C     C_R   0.444892 0.514778 0.266241 0.970030
C2    C     C_R   0.589881 0.053751 0.603098 0.096105
C3    C     C_R   0.501427 0.128124 0.513182 -0.094134
C4    C     C_R   0.413198 0.076030 0.427824 -0.216472
C5    C     C_R   0.414792 0.947367 0.426649 -0.207856
C6    C     C_R   0.504457 0.871166 0.510952 -0.102486
C7    C     C_2   0.415692 0.541947 0.132077 -0.470392
C8    C     C_2   0.503442 0.593447 0.067668 0.515391
C9    C     C_2   0.584355 0.521406 0.867658 -0.373882
C10   C     C_2   0.487097 0.584955 0.930731 -0.304715
C11   C     C_2   0.072640 0.489528 0.489156 -0.125880
C12   C     C_R   0.500369 0.260482 0.503847 0.861133
C13   C     C_2   0.927148 0.511125 0.510309 -0.123063
C14   C     C_R   0.555288 0.497964 0.734015 0.906023
C15   C     C_R   0.501464 0.739307 0.503138 0.864772
C16   C     C_R   0.673272 0.107640 0.695622 -0.176794
C17   C     C_R   0.758398 0.030571 0.783382 -0.131666
C18   C     C_R   0.760727 0.899487 0.781693 -0.162758
C19   C     C_R   0.677351 0.844999 0.692739 -0.201442
C20   C     C_R   0.591704 0.921674 0.601793 0.098462
H1    H     H_    0.345325 0.135038 0.360036 0.145898
H2    H     H_    0.324841 0.515222 0.084388 0.116047
H3    H     H_    0.891083 0.580969 0.578968 0.159020
H4    H     H_    0.108538 0.420095 0.420079 0.162128
H5    H     H_    0.880280 0.382986 0.384471 0.168054
H6    H     H_    0.119881 0.616592 0.615992 0.162178
H7    H     H_    0.672277 0.209205 0.702326 0.146415
H8    H     H_    0.821920 0.072793 0.853587 0.133813
H9    H     H_    0.826450 0.839964 0.850318 0.130222
H10   H     H_    0.679819 0.743174 0.697221 0.142926
H11   H     H_    0.347641 0.906631 0.358325 0.152300
H12   H     H_    0.388093 0.617182 0.884702 0.169693
H13   H     H_    0.682781 0.488206 0.914227 0.173051
N1    N     N_2   0.157290 0.551390 0.551110 -0.192280
N2    N     N_2   0.842740 0.448550 0.448960 -0.181179
O1    O     O_R   0.568950 0.489660 0.307530 -0.536959
O2    O     O_R   0.348880 0.522640 0.340350 -0.622451
O3    O     O_R   0.610060 0.300270 0.483590 -0.616776
O4    O     O_R   0.389990 0.333260 0.516410 -0.609182
O5    O     O_R   0.651120 0.477360 0.659650 -0.628519
O6    O     O_R   0.431050 0.510340 0.692470 -0.596822
O7    O     O_R   0.610010 0.666740 0.483590 -0.608181
O8    O     O_R   0.389940 0.699730 0.516410 -0.611656
Zn1   Zn    Zn3+2 0.646940 0.477980 0.478090 0.962443
Zn2   Zn    Zn3+2 0.353060 0.522020 0.521910 0.936039
O9    O     O_3   0.617545 0.631397 0.129654 -0.575195
C21   C     C_3   0.641512 0.747752 0.078671 0.104278
H14   H     H_    0.548201 0.817831 0.065897 0.130502
H15   H     H_    0.685238 0.731777 0.986251 0.151147
C22   C     C_3   0.740815 0.804476 0.169362 -0.809875
H16   H     H_    0.835796 0.737704 0.183559 0.255244
H17   H     H_    0.761771 0.895383 0.129641 0.200731
H18   H     H_    0.698913 0.823109 0.262319 0.266568

loop_
_geom_bond_atom_site_label_1
_geom_bond_atom_site_label_2
_ccdc_geom_bond_type
C22   H17   S    
C9    C14   S    
O3    Zn1   S    
C4    H1    S    
C11   C13   S    
C7    H2    S    
C6    C20   A    
C9    C10   D    
C15   O7    A    
C19   C20   A    
C1    O2    A    
O4    Zn2   S    
C17   H8    S    
C12   O4    A    
C17   C18   A    
C15   O8    A    
C7    C8    D    
C21   H15   S    
C18   H9    S    
C9    H13   S    
N2    Zn1   S    
O8    Zn2   S    
O7    Zn1   S    
C16   H7    S    
C14   O6    A    
C13   N2    D    
H5    N2    S    
C2    C3    A    
C21   C22   S    
C12   O3    A    
C5    C6    A    
C8    O9    S    
O1    Zn1   S    
C22   H18   S    
O2    Zn2   S    
C3    C4    A    
C10   H12   S    
C11   H4    S    
O5    Zn1   S    
C2    C16   A    
C13   H3    S    
C8    C10   S    
C18   C19   A    
N1    Zn2   S    
C2    C20   A    
O6    Zn2   S    
O9    C21   S    
C4    C5    A    
C3    C12   S    
C22   H16   S    
C6    C15   S    
C1    C7    S    
C19   H10   S    
C14   O5    A    
H6    N1    S    
C11   N1    D    
C21   H14   S    
C1    O1    A    
C16   C17   A    
C5    H11   S    
