data_mof_unit_17218.cif
_audit_creation_date              2012-12-10T16:55:01-0500
_audit_creation_method            fapswitch 2.2
_symmetry_space_group_name_H-M    P1
_symmetry_Int_Tables_number       1
_space_group_crystal_system       triclinic
_cell_length_a                    9.699685
_cell_length_b                    10.935276
_cell_length_c                    15.608112
_cell_angle_alpha                 90.095554
_cell_angle_beta                  73.478133
_cell_angle_gamma                 90.013473
_cell_volume                      1587.17556084

loop_
_atom_site_label
_atom_site_type_symbol
_atom_type_description
_atom_site_fract_x
_atom_site_fract_y
_atom_site_fract_z
_atom_type_partial_charge
C1    C     C_R   0.000517 0.265384 0.498993 0.844669
C2    C     C_R   0.679922 0.477595 0.911245 0.091005
C3    C     C_R   0.779514 0.502860 0.959525 0.139500
C4    C     C_R   0.533853 0.455037 0.958462 0.073353
C5    C     C_R   0.484344 0.480381 0.051610 0.067788
C6    C     C_R   0.586780 0.510951 0.097054 -0.222909
C7    C     C_R   0.732159 0.518464 0.051906 -0.228204
C8    C     C_R   0.438457 0.400361 0.916500 -0.229556
C9    C     C_R   0.295483 0.379972 0.962745 -0.245613
C10   C     C_R   0.241460 0.416984 0.051200 0.165456
C11   C     C_R   0.335031 0.468550 0.096617 0.091481
C12   C     C_R   0.917380 0.496758 0.672477 0.790168
C13   C     C_R   0.095117 0.399820 0.095491 -0.219378
C14   C     C_R   0.040388 0.432085 0.185047 -0.197501
C15   C     C_R   0.275897 0.504686 0.185917 -0.251570
C16   C     C_2   0.887603 0.933026 0.498478 -0.154872
C17   C     C_2   0.999801 0.866621 0.505758 -0.320312
C18   C     C_2   0.885819 0.066986 0.502413 -0.157523
C19   C     C_2   0.004826 0.133409 0.494686 -0.320400
C20   C     C_2   0.448928 0.444086 0.441749 -0.082715
C21   C     C_2   0.605495 0.449927 0.439105 -0.074370
C22   C     C_R   0.999587 0.734627 0.501150 0.857403
C23   C     C_R   0.083563 0.498245 0.328157 0.798979
C24   C     C_R   0.875522 0.490826 0.771727 -0.082415
C25   C     C_R   0.131447 0.482508 0.230976 -0.046434
C26   C     C_R   0.926279 0.509390 0.915333 -0.239401
C27   C     C_R   0.977089 0.496013 0.822361 0.094104
C28   C     C_R   0.728899 0.479181 0.817287 -0.290316
Cu1   Cu    Cu3+1 0.138640 0.500020 0.499980 0.930643
Cu2   Cu    Cu3+1 0.861360 0.499980 0.500020 0.937605
H1    H     H_    0.807896 0.537913 0.089568 0.149280
H2    H     H_    0.023695 0.358636 0.061401 0.137422
H3    H     H_    0.791887 0.888333 0.490617 0.168368
H4    H     H_    0.094543 0.907605 0.517177 0.146877
H5    H     H_    0.782856 0.111669 0.510502 0.168232
H6    H     H_    0.110043 0.092457 0.483108 0.148595
H7    H     H_    0.421842 0.391980 0.389601 0.157985
H8    H     H_    0.371963 0.553376 0.547727 0.191546
H9    H     H_    0.682591 0.408862 0.381950 0.148847
H10   H     H_    0.579687 0.531578 0.557565 0.193228
H11   H     H_    0.340150 0.549950 0.222478 0.148203
H12   H     H_    0.928503 0.413517 0.219051 0.146132
H13   H     H_    0.226513 0.334248 0.929451 0.150675
H14   H     H_    0.002037 0.521633 0.954013 0.138123
H15   H     H_    0.652890 0.474630 0.778513 0.157791
H16   H     H_    0.559294 0.523225 0.168426 0.140617
H17   H     H_    0.474895 0.365521 0.849277 0.151423
N1    N     N_2   0.346430 0.498660 0.500980 -0.289298
N2    N     N_2   0.652550 0.498630 0.501000 -0.282664
O1    O     O_R   0.117050 0.321960 0.499980 -0.578570
O2    O     O_R   0.882890 0.321920 0.500020 -0.571076
O3    O     O_R   0.052910 0.500040 0.629810 -0.580500
O4    O     O_R   0.818750 0.499990 0.629840 -0.581986
O5    O     O_R   0.117110 0.678080 0.499980 -0.578162
O6    O     O_R   0.882950 0.678040 0.500020 -0.568983
O7    O     O_R   0.181250 0.500010 0.370160 -0.580728
O8    O     O_R   0.947090 0.499960 0.370190 -0.583181
C29   C     C_3   0.138359 0.480672 0.782188 -0.387754
C30   C     C_3   0.174599 0.347508 0.751412 -0.295669
C31   C     C_3   0.332986 0.331512 0.699956 -0.842584
H18   H     H_    0.348980 0.350842 0.628299 0.267257
H19   H     H_    0.402826 0.393876 0.725091 0.237101
H20   H     H_    0.366674 0.235619 0.705943 0.235987
H21   H     H_    0.148201 0.286844 0.810767 0.193790
H22   H     H_    0.108057 0.315358 0.708550 0.227804
H23   H     H_    0.182157 0.547788 0.728190 0.215670
H24   H     H_    0.195871 0.502436 0.832510 0.181541

loop_
_geom_bond_atom_site_label_1
_geom_bond_atom_site_label_2
_ccdc_geom_bond_type
C8    C9    A    
C2    C4    A    
Cu2   O2    S    
C10   C13   A    
Cu1   Cu2   S    
Cu1   O7    S    
C16   H3    S    
Cu2   O6    S    
C12   C24   S    
C13   H2    S    
H8    N1    S    
C17   C22   S    
C21   H9    S    
C24   C27   A    
C4    C8    A    
C14   H12   S    
Cu1   O5    S    
C21   N2    D    
C2    C3    A    
C30   H21   S    
C8    H17   S    
C26   H14   S    
C30   C31   S    
C22   O5    A    
C13   C14   A    
C30   H22   S    
C20   H7    S    
C1    O2    A    
C26   C27   A    
C20   N1    D    
Cu1   O1    S    
C31   H18   S    
C31   H20   S    
C9    C10   A    
C16   C18   S    
C12   O3    A    
Cu2   N2    S    
C1    O1    A    
C5    C11   A    
C6    C7    A    
C3    C7    A    
C19   H6    S    
C23   C25   S    
C14   C25   A    
C5    C6    A    
Cu1   O3    S    
Cu2   O4    S    
C28   H15   S    
C9    H13   S    
C15   C25   A    
C10   C11   A    
Cu1   N1    S    
H10   N2    S    
Cu2   O8    S    
C24   C28   A    
C29   H24   S    
C23   O7    A    
C7    H1    S    
C20   C21   S    
C15   H11   S    
C31   H19   S    
C18   C19   D    
C17   H4    S    
C23   O8    A    
C16   C17   D    
C2    C28   A    
C22   O6    A    
C6    H16   S    
C29   C30   S    
C1    C19   S    
C11   C15   A    
C29   H23   S    
C3    C26   A    
C12   O4    A    
C18   H5    S    
C4    C5    A    
C27   C29   S    
