data_mof_unit_50585.cif
_audit_creation_date              2013-03-05T16:00:28-0500
_audit_creation_method            fapswitch 2.2
_symmetry_space_group_name_H-M    P1
_symmetry_Int_Tables_number       1
_space_group_crystal_system       triclinic
_cell_length_a                    6.960901
_cell_length_b                    28.736039
_cell_length_c                    32.049033
_cell_angle_alpha                 101.061891
_cell_angle_beta                  89.503562
_cell_angle_gamma                 90.816773
_cell_volume                      6290.8649152

loop_
_atom_site_label
_atom_site_type_symbol
_atom_site_description
_atom_site_fract_x
_atom_site_fract_y
_atom_site_fract_z
_atom_type_partial_charge
O1    O     O_R   0.494350 0.453160 0.452490 -0.611036
O2    O     O_R   0.820990 0.455850 0.538220 -0.607741
O3    O     O_R   0.994300 0.546840 0.547510 -0.580119
C1    C     C_R   0.651049 0.445516 0.551441 0.964640
O4    O     O_R   0.823860 0.447580 0.452250 -0.613559
O5    O     O_R   0.997190 0.538510 0.460920 -0.558977
C2    C     C_R   0.654805 0.434574 0.436528 0.981597
O6    O     O_R   0.491450 0.461490 0.539080 -0.597959
O7    O     O_3   0.661790 0.529840 0.502950 -0.208056
V1    V     V_3+5 0.935470 0.494460 0.499450 1.201467
O8    O     O_R   0.327090 0.544150 0.461780 -0.577609
C3    C     C_R   0.159589 0.554806 0.448795 1.063626
O9    O     O_R   0.324210 0.552420 0.547750 -0.545702
C4    C     C_R   0.156181 0.565503 0.563564 1.056391
V2    V     V_3+5 0.435840 0.505540 0.500550 1.253901
O10   O     O_3   0.159650 0.470160 0.497050 -0.313488
C5    C     C_R   0.990585 0.603388 0.630680 -0.208855
H1    H     H_    0.884259 0.575120 0.623970 0.204859
C6    C     C_R   0.973261 0.637182 0.668493 0.367553
C7    C     C_R   0.114201 0.673535 0.678692 -0.273704
C8    C     C_R   0.272569 0.674452 0.650698 0.444145
C9    C     C_R   0.292873 0.638776 0.613845 0.286503
C10   C     C_R   0.147698 0.603401 0.602889 -0.411459
N1    N     N_R   0.252447 0.725947 0.742142 -0.012550
N2    N     N_R   0.238629 0.761068 0.775855 -0.061645
C11   C     C_R   0.068443 0.782935 0.786817 0.119082
N3    N     N_R   0.912387 0.767649 0.762514 -0.040904
N4    N     N_R   0.926107 0.732653 0.728665 -0.049433
C12   C     C_R   0.096467 0.710971 0.717794 0.257161
C13   C     C_R   0.881944 0.846982 0.837108 0.605986
C14   C     C_R   0.875739 0.881667 0.874559 -0.309435
H2    H     H_    0.739675 0.898177 0.884492 0.148187
C15   C     C_R   0.042388 0.895988 0.898252 -0.170851
C16   C     C_R   0.215663 0.873419 0.884692 -0.206685
H3    H     H_    0.347227 0.883477 0.902099 0.148928
C17   C     C_R   0.221166 0.836766 0.849003 -0.208179
H4    H     H_    0.356815 0.819467 0.840536 0.201892
C18   C     C_R   0.055519 0.822654 0.824594 -0.041257
C19   C     C_R   0.149025 0.652818 0.279804 0.510032
N5    N     N_R   0.157963 0.674201 0.322029 -0.165715
C20   C     C_R   0.164803 0.722878 0.333469 0.515394
C21   C     C_R   0.166428 0.751387 0.302364 -0.071460
C22   C     C_R   0.144318 0.729932 0.259318 -0.017359
C23   C     C_R   0.127365 0.680080 0.247691 -0.232517
C24   C     C_R   0.188047 0.800950 0.313510 -0.157848
C25   C     C_R   0.189462 0.828884 0.282348 -0.064294
C26   C     C_R   0.162569 0.808141 0.239390 -0.060939
C27   C     C_R   0.138026 0.758612 0.227942 0.009848
C28   C     C_R   0.106694 0.737833 0.185198 -0.147842
C29   C     C_R   0.086044 0.688408 0.173797 -0.233984
C30   C     C_R   0.093977 0.659439 0.204314 0.409142
C31   C     C_R   0.154918 0.835895 0.207660 0.596242
N6    N     N_R   0.108940 0.815576 0.166492 -0.152364
C32   C     C_R   0.089776 0.767108 0.154868 0.590681
O11   O     O_2   0.167799 0.605428 0.268897 -0.511191
O12   O     O_2   0.163874 0.743915 0.374893 -0.522119
H5    H     H_    0.206338 0.818318 0.346365 0.178626
H6    H     H_    0.207698 0.866892 0.292165 0.177641
O13   O     O_2   0.189947 0.882984 0.218074 -0.506773
O14   O     O_2   0.052705 0.746973 0.114172 -0.556230
H7    H     H_    0.057612 0.671950 0.141062 0.204834
C33   C     C_R   0.191395 0.841220 0.098628 0.429681
C34   C     C_R   0.168243 0.871774 0.069666 0.398195
C35   C     C_R   0.040116 0.909907 0.079034 -0.367111
C36   C     C_R   0.920378 0.913653 0.114821 -0.378861
H8    H     H_    0.816092 0.941815 0.120858 0.203244
C37   C     C_R   0.934439 0.881829 0.143074 0.353089
C38   C     C_R   0.076325 0.845902 0.135736 -0.147045
C39   C     C_R   0.299530 0.651210 0.386654 0.509485
C40   C     C_R   0.292132 0.624096 0.419000 0.164941
C41   C     C_R   0.155930 0.586560 0.417037 -0.518265
C42   C     C_R   0.024399 0.578016 0.382864 0.618263
C43   C     C_R   0.021243 0.608494 0.353580 -0.313925
H9    H     H_    0.915531 0.602220 0.328505 0.184632
C44   C     C_R   0.158583 0.644873 0.354503 -0.081214
C45   C     C_R   0.425816 0.200987 0.818966 0.492876
N7    N     N_R   0.573394 0.170458 0.821134 -0.169653
C46   C     C_R   0.723430 0.166720 0.792791 0.585464
C47   C     C_R   0.729489 0.194475 0.760948 -0.133360
C48   C     C_R   0.580608 0.226451 0.758614 0.002587
C49   C     C_R   0.426416 0.229431 0.787633 -0.085387
C50   C     C_R   0.878283 0.189862 0.730835 -0.255454
C51   C     C_R   0.882321 0.216598 0.698572 0.448018
C52   C     C_R   0.739689 0.251438 0.697622 -0.160799
C53   C     C_R   0.585767 0.255321 0.727266 -0.079257
C54   C     C_R   0.437273 0.288111 0.725795 -0.160763
C55   C     C_R   0.279513 0.290027 0.754403 0.607654
C56   C     C_R   0.274638 0.259980 0.784330 -0.293843
C57   C     C_R   0.747460 0.283291 0.668857 0.514765
N8    N     N_R   0.604376 0.315497 0.668174 -0.192308
C58   C     C_R   0.452010 0.318478 0.695932 0.567501
O15   O     O_2   0.278377 0.203684 0.846901 -0.535864
O16   O     O_2   0.866292 0.136217 0.795364 -0.569715
H10   H     H_    0.989071 0.163899 0.731196 0.194501
O17   O     O_2   0.898586 0.282899 0.642255 -0.494004
O18   O     O_2   0.317899 0.351764 0.695339 -0.487037
H11   H     H_    0.149983 0.260364 0.804816 0.183392
C59   C     C_R   0.773596 0.378880 0.639114 -0.067818
H12   H     H_    0.886804 0.379118 0.662126 0.189031
C60   C     C_R   0.786356 0.410195 0.610636 -0.159475
H13   H     H_    0.910248 0.433669 0.612010 0.146848
C61   C     C_R   0.638501 0.412090 0.581467 -0.193321
C62   C     C_R   0.479560 0.381259 0.580756 -0.313258
H14   H     H_    0.364904 0.381709 0.558188 0.157113
C63   C     C_R   0.470184 0.348057 0.607665 0.626557
C64   C     C_R   0.616099 0.347466 0.638142 -0.016357
C65   C     C_R   0.518861 0.092836 0.842394 0.627854
C66   C     C_R   0.510934 0.065125 0.873975 -0.391829
H15   H     H_    0.474919 0.027722 0.865065 0.147600
C67   C     C_R   0.550068 0.085103 0.916625 -0.317360
C68   C     C_R   0.601139 0.133867 0.927736 0.346979
C69   C     C_R   0.609802 0.161265 0.895650 -0.211802
H16   H     H_    0.646682 0.198639 0.903653 0.188811
C70   C     C_R   0.568640 0.141235 0.853200 0.029681
C71   C     C_R   0.473554 0.385716 0.375223 -0.305663
H17   H     H_    0.348077 0.407344 0.384172 0.158850
C72   C     C_R   0.462853 0.349035 0.339310 0.521888
C73   C     C_R   0.621850 0.318989 0.327195 -0.260055
C74   C     C_R   0.791885 0.327733 0.351522 0.549955
C75   C     C_R   0.803367 0.366385 0.385917 -0.347793
H18   H     H_    0.937160 0.373060 0.403184 0.169623
C76   C     C_R   0.643906 0.395156 0.398709 -0.241076
N9    N     N_R   0.770246 0.264166 0.266235 -0.048850
N10   N     N_R   0.758713 0.230464 0.231317 -0.080433
C77   C     C_R   0.586672 0.210390 0.217717 0.086749
N11   N     N_R   0.427175 0.225161 0.240988 -0.082028
N12   N     N_R   0.438997 0.258771 0.275937 -0.051369
C78   C     C_R   0.610532 0.279309 0.289298 0.184621
C79   C     C_R   0.393260 0.155820 0.161916 -0.120906
H19   H     H_    0.261671 0.168706 0.178075 0.116099
C80   C     C_R   0.380701 0.121213 0.124617 -0.125832
H20   H     H_    0.239979 0.108290 0.113335 0.125796
C81   C     C_R   0.547585 0.103170 0.102539 -0.117773
C82   C     C_R   0.727165 0.121048 0.118644 -0.109179
H21   H     H_    0.859018 0.108150 0.102604 0.132972
C83   C     C_R   0.739640 0.155762 0.155783 -0.124632
H22   H     H_    0.880512 0.168484 0.167121 0.115507
C84   C     C_R   0.572989 0.173516 0.178080 0.127140
O19   O     O_R   0.699050 0.038480 0.960880 -0.588338
O20   O     O_R   0.366680 0.052470 0.047720 -0.594421
O21   O     O_R   0.193410 0.961530 0.039110 -0.569832
C85   C     C_R   0.535769 0.065152 0.063670 0.998938
O22   O     O_R   0.369510 0.044100 0.961740 -0.578787
O23   O     O_R   0.196260 0.953110 0.952520 -0.606147
C86   C     C_R   0.539219 0.053909 0.948294 1.072550
O24   O     O_R   0.696210 0.046900 0.047470 -0.596861
O25   O     O_3   0.528780 0.970170 0.997070 -0.276723
V3    V     V_3+5 0.255080 0.005530 0.000540 1.198682
O26   O     O_R   0.866350 0.947520 0.952280 -0.603901
C87   C     C_R   0.034821 0.934608 0.936557 0.928909
O27   O     O_R   0.863520 0.955880 0.038260 -0.604357
C88   C     C_R   0.031271 0.945390 0.051183 1.027160
V4    V     V_3+5 0.754720 0.994440 0.999470 1.179637
O28   O     O_3   0.030880 0.029830 0.002930 -0.263610
N13   N     N_R   0.053381 0.609774 0.190793 0.267499
O29   O     O_R   0.135618 0.586358 0.156691 -0.350558
O30   O     O_R   0.906149 0.590763 0.206785 -0.341923
O31   O     O_3   0.313489 0.803366 0.088148 -0.602358
C89   C     C_3   0.502246 0.818545 0.099293 0.197204
H23   H     H_    0.513165 0.830776 0.134258 0.147528
H24   H     H_    0.548937 0.847957 0.083234 0.106531
C90   C     C_3   0.636765 0.777081 0.084898 -0.301470
H25   H     H_    0.613033 0.762229 0.050642 0.208272
H26   H     H_    0.786860 0.790359 0.088401 0.186412
C91   C     C_3   0.605111 0.738050 0.110723 -0.671523
H27   H     H_    0.635509 0.751846 0.144866 0.237977
H28   H     H_    0.702700 0.708115 0.098935 0.256480
H29   H     H_    0.454940 0.724381 0.107391 0.274874
O32   O     O_3   0.281978 0.865385 0.033362 -0.645002
C92   C     C_3   0.171987 0.845097 0.997315 0.209291
H30   H     H_    0.243616 0.855186 0.969261 0.130720
H31   H     H_    0.022759 0.858869 0.998159 0.049747
C93   C     C_3   0.167285 0.790890 0.991073 -0.287480
H32   H     H_    0.316337 0.777559 0.991294 0.227565
H33   H     H_    0.085074 0.779854 0.017494 0.226037
C94   C     C_3   0.072157 0.768787 0.949062 -0.951307
H34   H     H_    0.922556 0.781547 0.948260 0.265438
H35   H     H_    0.068301 0.729598 0.945618 0.285216
H36   H     H_    0.154635 0.778097 0.921919 0.275189
N14   N     N_R   0.803204 0.886330 0.178670 0.251566
O33   O     O_R   0.753178 0.849580 0.194673 -0.446709
O34   O     O_R   0.718316 0.926408 0.192710 -0.355793
O35   O     O_3   0.440225 0.685811 0.388153 -0.560969
C95   C     C_3   0.574507 0.670284 0.355470 0.234487
H37   H     H_    0.508030 0.660373 0.323551 0.069500
H38   H     H_    0.649644 0.638717 0.362140 0.089895
C96   C     C_3   0.722261 0.709143 0.353358 -0.270533
H39   H     H_    0.811179 0.714914 0.382542 0.252253
H40   H     H_    0.811454 0.696390 0.324957 0.131120
C97   C     C_3   0.635476 0.755955 0.347785 -0.721296
H41   H     H_    0.557054 0.751011 0.317256 0.225769
H42   H     H_    0.752566 0.782392 0.346855 0.238405
H43   H     H_    0.537988 0.770016 0.374681 0.301569
N15   N     N_R   0.419255 0.636074 0.454600 0.282683
O36   O     O_R   0.349812 0.643038 0.493057 -0.345918
O37   O     O_R   0.601789 0.643205 0.448877 -0.334374
O38   O     O_3   0.892272 0.540931 0.377899 -0.642336
C98   C     C_3   0.983062 0.497422 0.360955 0.219515
H44   H     H_    0.878607 0.468750 0.364176 0.100783
H45   H     H_    0.110249 0.490715 0.379610 0.058796
C99   C     C_3   0.032682 0.492216 0.313344 -0.373545
H46   H     H_    0.006525 0.454782 0.297607 0.171526
H47   H     H_    0.937055 0.514495 0.297977 0.250677
C100  C     C_3   0.243328 0.504551 0.305781 -0.809895
H48   H     H_    0.274691 0.542613 0.317663 0.274871
H49   H     H_    0.275473 0.496387 0.271176 0.279003
H50   H     H_    0.340526 0.483667 0.322150 0.216536
N16   N     N_R   0.817669 0.632217 0.697255 0.254852
O39   O     O_R   0.849041 0.637402 0.737867 -0.364107
O40   O     O_R   0.652292 0.615168 0.682511 -0.354941
N17   N     N_R   0.024889 0.205291 0.665699 0.254753
O41   O     O_R   0.201569 0.198395 0.675695 -0.442561
O42   O     O_R   0.970209 0.190423 0.626636 -0.385504
O43   O     O_3   0.120175 0.316859 0.749244 -0.623631
C101  C     C_3   0.069112 0.348132 0.787374 0.207250
H51   H     H_    0.080800 0.384928 0.781468 0.155469
H52   H     H_    0.163863 0.346677 0.815022 0.073949
C102  C     C_3   0.860372 0.338350 0.798618 -0.334667
H53   H     H_    0.766214 0.343334 0.772045 0.207100
H54   H     H_    0.844516 0.301096 0.803065 0.206929
C103  C     C_3   0.795533 0.371468 0.839149 -0.921247
H55   H     H_    0.884838 0.366384 0.866441 0.276230
H56   H     H_    0.643230 0.363480 0.846022 0.267403
H57   H     H_    0.807346 0.408989 0.835255 0.270101
O44   O     O_3   0.313783 0.317351 0.604257 -0.625244
C104  C     C_3   0.371657 0.270513 0.586952 0.223649
H58   H     H_    0.373020 0.249790 0.612889 0.171270
H59   H     H_    0.517467 0.268242 0.571763 0.060115
C105  C     C_3   0.226420 0.247973 0.553315 -0.251183
H60   H     H_    0.080295 0.249137 0.567649 0.270094
H61   H     H_    0.225246 0.268527 0.527249 0.171851
C106  C     C_3   0.275971 0.196561 0.534801 -0.910962
H62   H     H_    0.419836 0.194645 0.519331 0.254180
H63   H     H_    0.167636 0.181299 0.510586 0.265429
H64   H     H_    0.275446 0.175185 0.560247 0.302296
O45   O     O_3   0.488282 0.071975 0.800429 -0.647614
C107  C     C_3   0.290019 0.073246 0.791837 0.189835
H65   H     H_    0.227846 0.108811 0.804202 0.162178
H66   H     H_    0.211536 0.046491 0.806668 0.081964
C108  C     C_3   0.257859 0.061270 0.743814 -0.325336
H67   H     H_    0.312475 0.025180 0.730885 0.202775
H68   H     H_    0.101084 0.061293 0.737505 0.194205
C109  C     C_3   0.358104 0.097047 0.721025 -0.717727
H69   H     H_    0.311584 0.133619 0.734665 0.244541
H70   H     H_    0.320935 0.088996 0.686756 0.249271
H71   H     H_    0.516477 0.095064 0.723985 0.269442
O46   O     O_3   0.420590 0.707197 0.661293 -0.607223
C110  C     C_3   0.369976 0.750726 0.650243 0.236089
H72   H     H_    0.248648 0.767272 0.670254 0.068262
H73   H     H_    0.327472 0.745886 0.616232 0.134843
C111  C     C_3   0.543705 0.784316 0.657688 -0.231536
H74   H     H_    0.594996 0.786860 0.690783 0.196975
H75   H     H_    0.661874 0.769816 0.635648 0.225693
C112  C     C_3   0.494342 0.833803 0.650716 -1.022268
H76   H     H_    0.446151 0.832237 0.617521 0.290669
H77   H     H_    0.623502 0.857209 0.656561 0.275063
H78   H     H_    0.378860 0.849236 0.673063 0.261045
N18   N     N_R   0.642973 0.156239 0.970963 0.240331
O47   O     O_R   0.560791 0.141589 0.002780 -0.423140
O48   O     O_R   0.750411 0.194319 0.978700 -0.354575
O49   O     O_3   0.291171 0.341396 0.317647 -0.617509
C113  C     C_3   0.298203 0.364863 0.282808 0.197153
H79   H     H_    0.425549 0.353971 0.262072 0.094285
H80   H     H_    0.304576 0.403795 0.294302 0.095628
C114  C     C_3   0.116711 0.352191 0.256373 -0.242253
H81   H     H_    0.106633 0.313061 0.245895 0.227534
H82   H     H_    0.988301 0.364146 0.276195 0.200082
C115  C     C_3   0.118253 0.375175 0.217229 -0.968450
H83   H     H_    0.128797 0.414364 0.226705 0.276064
H84   H     H_    0.983210 0.365807 0.199189 0.280582
H85   H     H_    0.241692 0.362209 0.196203 0.278683
O50   O     O_3   0.950543 0.299439 0.340884 -0.616820
C116  C     C_3   0.964135 0.268051 0.369620 0.213657
H86   H     H_    0.833963 0.244653 0.367467 0.087297
H87   H     H_    0.980210 0.287888 0.402907 0.084026
C117  C     C_3   0.140883 0.237176 0.358209 -0.216530
H88   H     H_    0.127785 0.217085 0.325045 0.212282
H89   H     H_    0.271455 0.260183 0.360237 0.213379
C118  C     C_3   0.163232 0.202326 0.388215 -1.034128
H90   H     H_    0.180285 0.221742 0.421491 0.267775
H91   H     H_    0.292827 0.180536 0.379060 0.281150
H92   H     H_    0.035677 0.178352 0.386288 0.278914
N19   N     N_R   0.463416 0.638841 0.588362 0.275841
O51   O     O_R   0.592038 0.606590 0.588712 -0.354023
O52   O     O_R   0.510611 0.676281 0.573169 -0.337684
O53   O     O_3   0.713447 0.835332 0.814756 -0.675951
C119  C     C_3   0.697370 0.863055 0.782861 0.179268
H93   H     H_    0.605181 0.842707 0.757463 0.150435
H94   H     H_    0.837903 0.868962 0.767502 0.076184
C120  C     C_3   0.600579 0.910607 0.800157 -0.358147
H95   H     H_    0.468664 0.904530 0.818180 0.220723
H96   H     H_    0.699866 0.934048 0.821917 0.195117
C121  C     C_3   0.546390 0.935936 0.764315 -0.947125
H97   H     H_    0.676257 0.942720 0.745885 0.271312
H98   H     H_    0.479585 0.970400 0.777983 0.284898
H99   H     H_    0.441456 0.914199 0.742691 0.257061

loop_
_geom_bond_atom_site_label_1
_geom_bond_atom_site_label_2
_geom_bond_distance
_ccdc_geom_bond_type
N15   O37   1.301161 A    
C55   C56   1.408194 A    
C20   C21   1.406394 A    
C97   H41   1.108704 S    
C50   H10   1.082298 S    
N19   O52   1.300261 A    
C120  C121  1.525696 S    
C99   H47   1.111002 S    
C43   H9    1.081972 S    
C85   O24   1.301559 A    
O2    C1    1.302546 A    
C68   C69   1.410391 A    
O25   V3    2.163972 S    
C1    O6    1.301456 A    
C98   C99   1.541037 S    
O20   V3    1.979168 S    
C48   C53   1.420297 A    
C69   C70   1.402094 A    
C100  H49   1.110164 S    
C111  H74   1.110816 S    
C8    O46   1.384971 S    
C61   C62   1.405087 A    
C32   O14   1.347010 S    
N6    C32   1.375839 A    
C95   H37   1.111012 S    
N17   O41   1.300991 A    
C74   O50   1.381923 S    
C30   N13   1.434481 S    
C81   C85   1.493010 S    
C91   H27   1.111049 S    
V3    O28   1.713919 S    
O21   C88   1.298074 A    
C35   C88   1.480605 S    
C51   C52   1.424622 A    
C8    C9    1.415114 A    
C17   H4    1.081427 S    
O20   C85   1.306205 A    
C120  H95   1.110086 S    
C103  H57   1.110786 S    
C54   C58   1.415706 A    
C101  H52   1.116697 S    
O5    C3    1.302039 A    
O53   C119  1.417430 S    
C75   C76   1.404243 A    
C34   O32   1.385804 S    
N13   O30   1.301498 A    
C92   H30   1.108678 S    
O19   V4    1.975919 S    
C46   O16   1.348340 S    
C28   C32   1.408919 A    
C59   H12   1.083033 S    
C106  H62   1.110950 S    
C116  C117  1.527550 S    
C66   H15   1.084143 S    
C13   C18   1.420383 A    
C16   H3    1.082998 S    
O32   C92   1.415937 S    
C118  H92   1.110835 S    
N6    C38   1.456602 S    
O26   V4    1.983943 S    
C67   C68   1.418895 A    
C69   H16   1.082929 S    
C96   C97   1.524315 S    
O23   C87   1.302234 A    
C62   H14   1.083579 S    
O21   V3    1.971315 S    
O1    C2    1.302570 A    
C42   O38   1.384337 S    
N1    C12   1.358498 A    
O8    V2    1.979193 S    
C62   C63   1.404036 A    
C94   H36   1.110944 S    
C19   O11   1.347368 S    
C79   C84   1.408603 A    
C89   H23   1.111122 S    
N14   O34   1.301512 A    
O50   C116  1.411875 S    
C36   C37   1.409826 A    
C116  H87   1.114660 S    
C1    C61   1.485661 S    
C109  H69   1.109667 S    
C112  H77   1.110463 S    
C65   C66   1.403077 A    
C89   H24   1.114020 S    
C98   H45   1.112071 S    
C98   H44   1.110162 S    
O1    V2    1.980118 S    
C63   O44   1.383263 S    
C67   C86   1.478248 S    
C22   C27   1.418489 A    
C68   N18   1.441277 S    
C16   C17   1.399020 A    
C56   H11   1.082461 S    
C97   H43   1.109420 S    
C110  C111  1.527863 S    
O23   V3    1.977104 S    
C42   C43   1.401689 A    
C72   O49   1.380871 S    
C94   H35   1.110238 S    
N15   O36   1.300223 A    
C58   O18   1.348876 S    
O27   C88   1.300857 A    
C91   H28   1.109812 S    
C71   C76   1.405063 A    
C93   H32   1.111660 S    
O9    C4    1.302079 A    
C25   H6    1.082995 S    
C43   C44   1.402775 A    
C121  H97   1.110834 S    
O38   C98   1.418969 S    
N12   C78   1.359839 A    
C73   C78   1.499749 S    
C113  C114  1.527577 S    
C110  H72   1.111624 S    
C108  H68   1.111619 S    
C73   C74   1.415709 A    
C114  C115  1.525671 S    
C105  H60   1.110751 S    
C110  H73   1.114120 S    
C5    H1    1.082808 S    
C90   H26   1.106356 S    
C7    C12   1.492229 S    
C93   H33   1.111120 S    
O22   V3    1.973764 S    
C117  H88   1.111770 S    
C119  C120  1.535420 S    
C114  H81   1.111435 S    
C14   C15   1.404756 A    
C103  H56   1.110659 S    
C37   C38   1.424250 A    
C26   C27   1.408290 A    
N9    N10   1.334236 A    
C15   C16   1.403329 A    
N1    N2    1.333313 A    
N8    C64   1.453560 S    
C83   C84   1.406848 A    
O45   C107  1.411982 S    
C101  C102  1.529141 S    
C57   N8    1.372372 A    
C19   N5    1.376260 A    
O4    C2    1.305311 A    
O43   C101  1.416859 S    
N16   O39   1.301386 A    
C111  C112  1.525600 S    
C82   C83   1.401093 A    
O6    V2    1.974610 S    
C112  H78   1.110894 S    
C109  H70   1.110136 S    
N2    C11   1.360499 A    
N7    C46   1.369929 A    
C50   C51   1.401409 A    
C108  C109  1.528442 S    
C47   C48   1.406701 A    
C21   C24   1.406538 A    
C4    C10   1.500571 S    
C57   O17   1.347105 S    
C26   C31   1.409388 A    
N18   O48   1.301529 A    
C101  H51   1.111116 S    
C6    N16   1.439383 S    
C65   C70   1.406369 A    
C103  H55   1.110807 S    
C31   O13   1.349289 S    
C90   C91   1.528925 S    
C37   N14   1.442708 S    
C106  H64   1.111067 S    
C115  H85   1.110832 S    
C102  H54   1.110597 S    
C119  H93   1.109957 S    
C117  C118  1.525956 S    
C13   C14   1.406147 A    
C40   N15   1.435752 S    
C109  H71   1.110518 S    
C24   H5    1.083001 S    
C7    C8    1.418457 A    
C33   C34   1.406330 A    
C119  H94   1.116730 S    
O44   C104  1.416542 S    
C11   N3    1.359922 A    
C89   C90   1.524035 S    
O35   C95   1.409091 S    
C121  H99   1.110683 S    
C29   C30   1.402596 A    
C20   O12   1.349054 S    
C5    C10   1.404493 A    
C31   N6    1.374950 A    
C52   C53   1.417082 A    
C74   C75   1.408668 A    
C114  H82   1.111641 S    
C53   C54   1.415698 A    
C40   C41   1.418500 A    
O3    C4    1.307303 A    
C39   O35   1.380154 S    
C95   C96   1.518012 S    
C23   C30   1.422589 A    
C94   H34   1.111078 S    
N17   O42   1.301210 A    
C3    C41   1.492234 S    
C45   O15   1.349282 S    
C104  H58   1.111740 S    
C9    N19   1.435264 S    
C91   H29   1.110192 S    
O9    V2    1.983529 S    
C22   C23   1.412839 A    
C81   C82   1.408578 A    
C105  H61   1.111935 S    
C99   C100  1.531789 S    
C21   C22   1.407708 A    
C90   H25   1.111806 S    
C19   C23   1.418130 A    
N8    C58   1.371353 A    
C80   H20   1.082771 S    
O2    V1    1.973976 S    
N13   O29   1.301118 A    
C75   H18   1.083284 S    
N4    C12   1.358846 A    
C102  C103  1.524624 S    
C79   H19   1.082685 S    
O7    V1    2.164077 S    
C93   C94   1.526417 S    
O22   C86   1.299611 A    
C71   C72   1.405361 A    
C25   C26   1.404335 A    
N5    C20   1.376553 A    
C97   H42   1.110383 S    
C106  H63   1.110610 S    
C54   C55   1.419338 A    
C14   H2    1.083100 S    
C11   C18   1.499150 S    
C115  H84   1.110345 S    
C48   C49   1.406782 A    
C80   C81   1.407525 A    
C60   C61   1.404981 A    
C45   C49   1.411135 A    
O5    V1    1.971513 S    
C47   C50   1.399732 A    
C113  H80   1.109052 S    
O8    C3    1.301496 A    
N5    C44   1.459522 S    
C121  H98   1.109988 S    
C113  H79   1.115029 S    
C77   C84   1.492724 S    
C105  C106  1.525860 S    
C104  C105  1.528408 S    
C66   C67   1.404648 A    
C63   C64   1.417752 A    
C6    C7    1.416306 A    
C82   H21   1.082798 S    
C104  H59   1.119155 S    
C59   C64   1.406902 A    
C99   H46   1.110170 S    
C33   C38   1.413962 A    
N7    C70   1.446434 S    
C15   C87   1.489693 S    
C35   C36   1.400131 A    
N19   O51   1.299402 A    
C112  H76   1.110760 S    
C107  H66   1.113246 S    
N18   O47   1.300772 A    
O7    V2    1.708054 S    
C118  H90   1.111166 S    
O4    V1    1.978691 S    
C36   H8    1.083290 S    
O3    V1    1.977235 S    
V1    O10   1.713780 S    
O26   C87   1.302793 A    
C118  H91   1.110381 S    
C45   N7    1.371163 A    
C46   C47   1.410691 A    
C102  H53   1.111096 S    
C77   N11   1.358923 A    
O24   V4    1.980325 S    
C92   H31   1.115130 S    
N11   N12   1.333551 A    
C27   C28   1.402968 A    
V2    O10   2.155596 S    
C17   C18   1.409424 A    
C108  H67   1.111480 S    
C5    C6    1.405493 A    
C55   O43   1.388706 S    
C95   H38   1.109952 S    
C33   O31   1.378236 S    
C39   C44   1.413480 A    
C100  H50   1.109806 S    
C120  H96   1.110199 S    
O31   C89   1.405789 S    
O27   V4    1.978817 S    
C39   C40   1.411469 A    
O25   V4    1.707654 S    
C59   C60   1.400755 A    
C107  H65   1.114916 S    
C96   H40   1.103150 S    
C49   C56   1.400742 A    
C111  H75   1.111719 S    
C34   C35   1.408314 A    
C24   C25   1.396111 A    
C41   C42   1.416276 A    
N10   C77   1.360062 A    
C100  H48   1.106252 S    
C96   H39   1.110405 S    
C65   O45   1.380378 S    
N16   O40   1.301159 A    
C28   C29   1.402586 A    
C52   C57   1.418538 A    
C107  C108  1.529001 S    
N9    C78   1.359329 A    
N3    N4    1.334017 A    
C13   O53   1.382831 S    
C29   H7    1.083543 S    
O49   C113  1.410987 S    
C9    C10   1.420486 A    
C83   H22   1.082695 S    
C60   H13   1.083216 S    
C2    C76   1.493394 S    
V4    O28   2.155581 S    
C72   C73   1.418553 A    
C117  H89   1.111229 S    
C51   N17   1.435300 S    
N14   O33   1.301469 A    
C71   H17   1.083582 S    
O46   C110  1.413823 S    
O19   C86   1.299061 A    
C115  H83   1.110207 S    
C79   C80   1.403109 A    
C92   C93   1.531835 S    
C116  H86   1.115256 S    
