data_mof_unit_28266.cif
_audit_creation_date              2012-12-10T20:32:48-0500
_audit_creation_method            fapswitch 2.2
_symmetry_space_group_name_H-M    P1
_symmetry_Int_Tables_number       1
_space_group_crystal_system       triclinic
_cell_length_a                    11.539293
_cell_length_b                    10.661999
_cell_length_c                    9.885669
_cell_angle_alpha                 89.823389
_cell_angle_beta                  89.950156
_cell_angle_gamma                 89.983852
_cell_volume                      1216.24665493

loop_
_atom_site_label
_atom_site_type_symbol
_atom_type_description
_atom_site_fract_x
_atom_site_fract_y
_atom_site_fract_z
_atom_type_partial_charge
C1    C     C_R   0.506232 0.260566 0.500340 0.891930
C2    C     C_R   0.523929 0.129105 0.503589 -0.206465
C3    C     C_R   0.592250 0.065751 0.405974 -0.078909
C4    C     C_R   0.587963 0.933266 0.404848 0.073495
C5    C     C_R   0.518074 0.871351 0.501379 -0.153174
C6    C     C_R   0.471914 0.936589 0.609621 0.005695
C7    C     C_3   0.355799 0.931178 0.679322 0.170570
C8    C     C_3   0.359591 0.075602 0.681682 -0.144454
C9    C     C_R   0.400782 0.523156 0.071406 0.201967
C10   C     C_R   0.600159 0.484552 0.071722 -0.109870
C11   C     C_R   0.600135 0.484355 0.928115 -0.135066
C12   C     C_R   0.281963 0.499820 0.500047 0.907082
C13   C     C_R   0.400692 0.524482 0.928868 0.292603
C14   C     C_3   0.290327 0.450334 0.924519 -0.273652
C15   C     C_3   0.291908 0.448289 0.078392 -0.578280
C16   C     C_R   0.503353 0.739704 0.499797 0.903383
C17   C     C_R   0.718067 0.499982 0.499950 0.885365
C18   C     C_1   0.161540 0.499645 0.500124 -0.174519
C19   C     C_1   0.059369 0.499586 0.500140 0.003472
C20   C     C_1   0.940717 0.499638 0.500018 -0.001027
C21   C     C_1   0.838529 0.499776 0.499899 -0.188761
C22   C     C_R   0.474401 0.063700 0.610496 0.055358
H1    H     H_    0.301838 0.356386 0.877729 0.146964
H2    H     H_    0.220529 0.501734 0.127357 0.212117
H3    H     H_    0.306346 0.353028 0.121345 0.214137
H4    H     H_    0.368378 0.117350 0.784149 0.155090
H5    H     H_    0.680740 0.470192 0.125231 0.161014
H6    H     H_    0.680694 0.469790 0.874574 0.164019
N1    N     N_R   0.499240 0.499140 0.142800 -0.108844
N2    N     N_R   0.499240 0.499180 0.857150 -0.129299
O1    O     O_R   0.500010 0.316790 0.614690 -0.603794
O2    O     O_R   0.500000 0.316760 0.385350 -0.626137
O3    O     O_R   0.334450 0.500030 0.614670 -0.590146
O4    O     O_R   0.334440 0.500000 0.385330 -0.617894
O5    O     O_R   0.500000 0.683240 0.614650 -0.598143
O6    O     O_R   0.499990 0.683210 0.385310 -0.600024
O7    O     O_R   0.665560 0.500000 0.614670 -0.622859
O8    O     O_R   0.665550 0.499970 0.385330 -0.626463
Zn1   Zn    Zn3+2 0.500010 0.500020 0.653130 0.975445
Zn2   Zn    Zn3+2 0.499990 0.499980 0.346870 0.954125
C23   C     C_2   0.667967 0.137753 0.311183 0.413448
H7    H     H_    0.700237 0.229370 0.340172 0.072054
O9    O     O_2   0.693911 0.097557 0.199767 -0.596063
N3    N     N_3   0.654098 0.860703 0.310020 -0.419463
H8    H     H_    0.624239 0.879551 0.212296 0.240548
H9    H     H_    0.741486 0.885421 0.317866 0.210599
N4    N     N_3   0.262589 0.876193 0.597290 -0.425546
H10   H     H_    0.275184 0.896847 0.494840 0.158648
H11   H     H_    0.267672 0.778587 0.605617 0.234482
N5    N     N_3   0.362391 0.873707 0.814051 -0.391166
H12   H     H_    0.286327 0.896169 0.866207 0.211936
H13   H     H_    0.431261 0.912554 0.868558 0.172853
N6    N     N_3   0.271124 0.139330 0.599963 -0.450201
H14   H     H_    0.189718 0.116417 0.639359 0.208372
H15   H     H_    0.273974 0.109652 0.499302 0.197218
C24   C     C_2   0.187639 0.521327 0.869269 0.469445
H16   H     H_    0.103179 0.476690 0.869070 0.056222
O10   O     O_2   0.197373 0.627975 0.825281 -0.569438

loop_
_geom_bond_atom_site_label_1
_geom_bond_atom_site_label_2
_ccdc_geom_bond_type
C10   H5    S    
C2    C22   A    
C8    C22   S    
C6    C7    S    
C24   O10   D    
C8    H4    S    
C23   H7    S    
C14   C24   S    
C19   C20   S    
C9    N1    A    
C20   C21   T    
N6    H15   S    
N5    H12   S    
C9    C15   S    
C8    N6    S    
C7    C8    S    
O7    Zn1   S    
C17   O7    A    
C13   C14   S    
C16   O6    A    
O8    Zn2   S    
C23   O9    D    
C10   N1    A    
O3    Zn1   S    
C11   H6    S    
O4    Zn2   S    
C5    C6    A    
N1    Zn2   S    
C15   H2    S    
C14   H1    S    
O1    Zn1   S    
N2    Zn1   S    
C2    C3    A    
C17   O8    A    
O2    Zn2   S    
C16   O5    A    
O5    Zn1   S    
C17   C21   S    
C15   H3    S    
C10   C11   A    
C12   O4    A    
C3    C4    A    
C6    C22   A    
C13   N2    A    
C1    O1    A    
N3    H8    S    
C11   N2    A    
N4    H11   S    
C1    C2    S    
C12   C18   S    
N5    H13   S    
C24   H16   S    
C9    C13   A    
C14   C15   S    
C18   C19   T    
O6    Zn2   S    
C4    N3    S    
C12   O3    A    
N6    H14   S    
C1    O2    A    
C3    C23   S    
N4    H10   S    
C7    N5    S    
N3    H9    S    
C4    C5    A    
C5    C16   S    
C7    N4    S    
