data_mof_unit_53920.cif
_audit_creation_date              2012-12-10T19:00:11-0500
_audit_creation_method            fapswitch 2.2
_symmetry_space_group_name_H-M    P1
_symmetry_Int_Tables_number       1
_space_group_crystal_system       triclinic
_cell_length_a                    9.531001
_cell_length_b                    10.827831
_cell_length_c                    13.447229
_cell_angle_alpha                 90.592375
_cell_angle_beta                  72.58375
_cell_angle_gamma                 90.406726
_cell_volume                      1324.05155545

loop_
_atom_site_label
_atom_site_type_symbol
_atom_type_description
_atom_site_fract_x
_atom_site_fract_y
_atom_site_fract_z
_atom_type_partial_charge
C1    C     C_R   0.498765 0.737858 0.504719 0.810661
C2    C     C_R   0.438478 0.492801 0.978341 0.085895
C3    C     C_R   0.466363 0.532358 0.873958 0.032226
C4    C     C_R   0.543774 0.520310 0.031559 0.095180
C5    C     C_R   0.669380 0.593306 0.982376 0.169454
C6    C     C_R   0.687133 0.640842 0.883626 -0.237399
C7    C     C_R   0.585667 0.613111 0.831277 -0.190548
C8    C     C_R   0.527483 0.478877 0.132897 -0.257055
C9    C     C_R   0.750243 0.584721 0.136689 -0.204959
C10   C     C_R   0.373334 0.491438 0.815011 -0.206357
C11   C     C_R   0.369975 0.935835 0.513732 0.071843
C12   C     C_R   0.421098 0.501174 0.700345 0.796524
C13   C     C_R   0.494144 0.871362 0.518897 -0.152165
C14   C     C_R   0.609735 0.939098 0.540842 0.245922
C15   C     C_R   0.609409 0.068196 0.535841 -0.281162
C16   C     C_R   0.493027 0.129994 0.514448 -0.145499
C17   C     C_R   0.368915 0.062733 0.512321 0.122992
C18   C     C_3   0.281430 0.065771 0.436982 -0.470444
C19   C     C_3   0.282366 0.925453 0.438553 -0.442770
C20   C     C_R   0.948113 0.411287 0.446025 0.259533
C21   C     C_R   0.900062 0.578889 0.561931 -0.065784
C22   C     C_R   0.049035 0.579118 0.561908 -0.057088
C23   C     C_R   0.498703 0.262429 0.502016 0.812528
C24   C     C_R   0.095822 0.411640 0.445673 0.250173
C25   C     C_3   0.148335 0.389733 0.330910 -0.529883
C26   C     C_3   0.989048 0.387206 0.331718 -0.502435
C27   C     C_R   0.578748 0.501247 0.300109 0.796686
C28   C     C_R   0.773589 0.621693 0.034136 -0.177578
C29   C     C_R   0.624030 0.516972 0.187243 -0.051351
C30   C     C_R   0.242621 0.425991 0.864737 0.437973
C31   C     C_R   0.207327 0.400577 0.970674 -0.235702
C32   C     C_R   0.305033 0.429703 0.025979 -0.277902
Cu1   Cu    Cu3+1 0.359330 0.500020 0.500010 0.949628
Cu2   Cu    Cu3+1 0.640670 0.499980 0.499990 0.943112
H1    H     H_    0.826463 0.614430 0.177950 0.147878
H2    H     H_    0.702834 0.119301 0.545237 0.172171
H3    H     H_    0.170289 0.105731 0.472390 0.193444
H4    H     H_    0.344255 0.105104 0.360394 0.190264
H5    H     H_    0.171705 0.884590 0.474951 0.195425
H6    H     H_    0.345585 0.883182 0.362803 0.198810
H7    H     H_    0.823989 0.643768 0.610576 0.158738
H8    H     H_    0.085014 0.644856 0.610394 0.138388
H9    H     H_    0.208761 0.470675 0.288413 0.219643
H10   H     H_    0.204397 0.299293 0.310107 0.187036
H11   H     H_    0.960977 0.464784 0.287726 0.218322
H12   H     H_    0.779166 0.700932 0.846989 0.136177
H13   H     H_    0.951727 0.294564 0.313424 0.191980
H14   H     H_    0.869886 0.676931 0.996777 0.137136
H15   H     H_    0.438879 0.418776 0.173003 0.133555
H16   H     H_    0.270710 0.403401 0.106512 0.158364
H17   H     H_    0.105084 0.353837 0.009714 0.159090
H18   H     H_    0.600447 0.658204 0.757694 0.164880
N1    N     N_R   0.852320 0.499070 0.499340 -0.187116
N2    N     N_R   0.148230 0.499110 0.499340 -0.186862
O1    O     O_R   0.381190 0.680360 0.500000 -0.588037
O2    O     O_R   0.618780 0.680320 0.499990 -0.556335
O3    O     O_R   0.323230 0.500000 0.650990 -0.532260
O4    O     O_R   0.560820 0.499960 0.650980 -0.588341
O5    O     O_R   0.381220 0.319680 0.500010 -0.581743
O6    O     O_R   0.618810 0.319640 0.500000 -0.585757
O7    O     O_R   0.439180 0.500040 0.349020 -0.581420
O8    O     O_R   0.676770 0.500000 0.349010 -0.587203
O9    O     O_3   0.146013 0.390120 0.810726 -0.563711
C33   C     C_3   0.167372 0.263503 0.784562 0.095682
H19   H     H_    0.135495 0.205712 0.855927 0.126643
H20   H     H_    0.284149 0.244483 0.739681 0.126652
C34   C     C_3   0.071348 0.226289 0.716837 -0.765203
H21   H     H_    0.101526 0.281476 0.644337 0.259922
H22   H     H_    0.087219 0.126844 0.695673 0.188085
H23   H     H_    0.953715 0.242287 0.759790 0.241170
N3    N     N_2   0.730115 0.879280 0.561803 -0.406638
H24   H     H_    0.828507 0.895413 0.505075 0.248277
C35   C     C_3   0.741081 0.902149 0.665529 -0.741823
H25   H     H_    0.767381 0.000786 0.675473 0.225018
H26   H     H_    0.830586 0.845346 0.678134 0.209041
H27   H     H_    0.636188 0.877531 0.725129 0.236416

loop_
_geom_bond_atom_site_label_1
_geom_bond_atom_site_label_2
_ccdc_geom_bond_type
Cu1   O1    S    
Cu2   O2    S    
C27   C29   S    
C35   H25   S    
C4    C8    A    
C25   H9    S    
C22   N2    A    
C23   O5    A    
C11   C19   S    
C5    C6    A    
C19   H5    S    
C21   C22   A    
C18   H3    S    
C7    H18   S    
C3    C7    A    
C30   C31   A    
C24   N2    A    
C15   C16   A    
Cu2   O8    S    
C2    C32   A    
C18   C19   S    
C14   N3    S    
C27   O7    A    
C26   H11   S    
C11   C17   A    
C20   C24   A    
C16   C17   A    
C9    C29   A    
C12   O4    A    
Cu1   O5    S    
C13   C14   A    
Cu2   O6    S    
C35   H26   S    
C25   H10   S    
Cu1   Cu2   S    
C23   O6    A    
C34   H21   S    
C33   C34   S    
C24   C25   S    
N3    C35   S    
C4    C5    A    
C25   C26   S    
C34   H22   S    
C33   H20   S    
C2    C4    A    
C27   O8    A    
C5    C28   A    
C10   C30   A    
C31   C32   A    
C17   C18   S    
C32   H16   S    
C10   C12   S    
C26   H13   S    
C21   H7    S    
C12   O3    A    
C16   C23   S    
C35   H27   S    
C1    C13   S    
C8    C29   A    
C15   H2    S    
C9    H1    S    
Cu1   N2    S    
C28   H14   S    
Cu1   O3    S    
C6    H12   S    
C1    O2    A    
C31   H17   S    
C20   N1    A    
C6    C7    A    
C34   H23   S    
C33   H19   S    
C2    C3    A    
C18   H4    S    
N3    H24   S    
C3    C10   A    
C21   N1    A    
C11   C13   A    
C22   H8    S    
C20   C26   S    
C1    O1    A    
C19   H6    S    
O9    C33   S    
Cu2   N1    S    
Cu1   O7    S    
Cu2   O4    S    
C14   C15   A    
C30   O9    S    
C8    H15   S    
C9    C28   A    
