data_mof_unit_50706.cif
_audit_creation_date              2013-03-05T16:35:53-0500
_audit_creation_method            fapswitch 2.2
_symmetry_space_group_name_H-M    P1
_symmetry_Int_Tables_number       1
_space_group_crystal_system       triclinic
_cell_length_a                    23.574877
_cell_length_b                    9.302317
_cell_length_c                    7.759016
_cell_angle_alpha                 89.99794
_cell_angle_beta                  90.000482
_cell_angle_gamma                 89.001924
_cell_volume                      1701.30164485

loop_
_atom_site_label
_atom_site_type_symbol
_atom_site_description
_atom_site_fract_x
_atom_site_fract_y
_atom_site_fract_z
_atom_type_partial_charge
O1    O     O_R   0.500000 0.288390 0.642760 -0.574755
O2    O     O_R   0.500000 0.711610 0.357240 -0.572043
O3    O     O_R   0.500000 0.711610 0.642760 -0.574757
O4    O     O_R   0.500000 0.288390 0.357240 -0.572032
C1    C     C_R   0.500043 0.219596 0.500001 0.836406
C2    C     C_R   0.499957 0.780404 0.499997 0.836406
O5    O     O_R   0.417880 0.500000 0.642820 -0.548507
O6    O     O_R   0.582120 0.500000 0.357180 -0.535498
O7    O     O_R   0.582120 0.500000 0.642820 -0.548507
O8    O     O_R   0.417880 0.500000 0.357180 -0.535495
C3    C     C_R   0.208170 0.544173 0.503668 0.039795
C4    C     C_R   0.791825 0.455673 0.503636 0.039818
C5    C     C_R   0.390454 0.503986 0.499930 0.933208
C6    C     C_R   0.609545 0.496001 0.499930 0.933203
Cu1   Cu    Cu3+1 0.500000 0.500000 0.669080 1.119774
Cu2   Cu    Cu3+1 0.500000 0.500000 0.330920 1.128193
C7    C     C_R   0.298734 0.594416 0.367260 0.225040
C8    C     C_R   0.701251 0.405483 0.367268 0.225037
C9    C     C_R   0.295913 0.458888 0.637091 0.261401
C10   C     C_R   0.704096 0.541027 0.637072 0.261408
C11   C     C_R   0.327652 0.518161 0.500487 -0.333226
C12   C     C_R   0.672346 0.481777 0.500482 -0.333220
C13   C     C_R   0.875658 0.600136 0.478119 0.656105
C14   C     C_R   0.124336 0.399698 0.478272 0.656103
C15   C     C_R   0.886639 0.345930 0.494357 0.618716
C16   C     C_R   0.113356 0.653911 0.494363 0.618882
N1    N     N_R   0.852657 0.466534 0.490997 -0.419385
N2    N     N_R   0.147338 0.533304 0.491070 -0.419428
C17   C     C_R   0.945862 0.357327 0.477025 -0.205233
C18   C     C_R   0.054134 0.642513 0.476988 -0.205184
C19   C     C_R   0.934884 0.616515 0.483259 -0.209584
C20   C     C_R   0.065110 0.383326 0.483409 -0.209622
C21   C     C_R   0.970141 0.493421 0.481503 -0.143317
C22   C     C_R   0.029853 0.506421 0.481529 -0.143378
C23   C     C_R   0.981600 0.236388 0.455206 0.427246
C24   C     C_R   0.018399 0.763448 0.455062 0.427163
C25   C     C_R   0.959848 0.752324 0.483470 0.404664
C26   C     C_R   0.040146 0.247518 0.483689 0.404697
C27   C     C_1   0.500015 0.064931 0.499998 -0.107092
C28   C     C_1   0.499985 0.935069 0.499993 -0.107103
C29   C     C_R   0.239122 0.611486 0.372455 0.388690
C30   C     C_R   0.760861 0.388356 0.372459 0.388660
C31   C     C_R   0.236801 0.474567 0.640025 0.399751
C32   C     C_R   0.763207 0.525306 0.639991 0.399739
N3    N     N_1   0.500000 0.500000 0.076820 0.012049
N4    N     N_1   0.500000 0.500000 0.923180 0.007753
O9    O     O_2   0.841140 0.716191 0.457584 -0.465340
O10   O     O_2   0.158853 0.283634 0.457810 -0.465285
O11   O     O_2   0.863556 0.216301 0.520620 -0.518180
O12   O     O_2   0.136440 0.783543 0.520596 -0.518035
O13   O     O_3   0.960530 0.109531 0.393712 -0.456272
C33   C     C_3   0.949384 0.125366 0.215513 -0.183132
H1    H     H_    0.988595 0.151845 0.142851 0.099704
H2    H     H_    0.916060 0.208767 0.189894 0.146016
H3    H     H_    0.933346 0.022100 0.165081 0.176100
O14   O     O_3   0.039496 0.890340 0.393765 -0.456238
C34   C     C_3   0.050666 0.874693 0.215555 -0.183106
H4    H     H_    0.011419 0.849233 0.142745 0.099859
H5    H     H_    0.083696 0.790702 0.189640 0.145347
H6    H     H_    0.067040 0.977670 0.165549 0.176447
O15   O     O_3   0.927389 0.874513 0.511828 -0.467371
C35   C     C_3   0.923691 0.896371 0.691684 -0.118821
H7    H     H_    0.966383 0.904543 0.751803 0.081265
H8    H     H_    0.899481 0.809327 0.754968 0.154170
H9    H     H_    0.900592 0.999077 0.716354 0.210386
O16   O     O_3   0.072602 0.125329 0.512074 -0.467358
C36   C     C_3   0.076298 0.103477 0.691933 -0.119011
H10   H     H_    0.033605 0.095341 0.752054 0.081174
H11   H     H_    0.100519 0.190506 0.755201 0.154215
H12   H     H_    0.099386 0.000753 0.716614 0.210331
O17   O     O_3   0.209720 0.680207 0.240390 -0.603979
C37   C     C_3   0.219727 0.829918 0.242571 -0.110019
H13   H     H_    0.248422 0.858544 0.135157 0.201007
H14   H     H_    0.237163 0.870941 0.366605 0.181277
H15   H     H_    0.179046 0.888083 0.219008 0.185905
O18   O     O_3   0.790247 0.319547 0.240435 -0.603958
C38   C     C_3   0.780218 0.169845 0.242754 -0.110008
H16   H     H_    0.751472 0.141202 0.135485 0.201073
H17   H     H_    0.762834 0.128888 0.366888 0.181248
H18   H     H_    0.820879 0.111626 0.219067 0.185946
O19   O     O_3   0.206271 0.408732 0.769182 -0.534141
C39   C     C_3   0.193174 0.512291 0.896107 -0.178354
H19   H     H_    0.163720 0.596927 0.845456 0.136161
H20   H     H_    0.232339 0.561740 0.947632 0.236104
H21   H     H_    0.171582 0.458354 0.004801 0.198506
O20   O     O_3   0.793749 0.591124 0.769130 -0.534170
C40   C     C_3   0.806838 0.487560 0.896069 -0.178381
H22   H     H_    0.836278 0.402890 0.845416 0.136185
H23   H     H_    0.767665 0.438149 0.947625 0.236102
H24   H     H_    0.828445 0.541488 0.004747 0.198468
Cl1   Cl    Cl    0.335608 0.665362 0.188381 -0.561162
Cl2   Cl    Cl    0.664365 0.334562 0.188404 -0.561157
Cl3   Cl    Cl    0.327857 0.353523 0.801676 -0.486016
Cl4   Cl    Cl    0.672168 0.646416 0.801650 -0.486047

loop_
_geom_bond_atom_site_label_1
_geom_bond_atom_site_label_2
_geom_bond_distance
_ccdc_geom_bond_type
C40   H22   1.112427 S    
C7    Cl1   1.771288 S    
O3    C2    1.279239 A    
O19   C39   1.408167 S    
C38   H16   1.108727 S    
O1    C1    1.279253 A    
C24   C25   1.403420 A    
C9    C11   1.414792 A    
C16   O12   1.347069 S    
C34   H5    1.111766 S    
Cu1   Cu2   2.623790 S    
C17   C21   1.398852 A    
O14   C34   1.414630 S    
C35   H8    1.112907 S    
C8    C30   1.412117 A    
C26   O16   1.376813 S    
C9    C31   1.398829 A    
C4    C30   1.406026 A    
C19   C21   1.403236 A    
C3    C31   1.406731 A    
O1    Cu1   1.979036 S    
C20   C26   1.402954 A    
O2    Cu2   1.979036 S    
C9    Cl3   1.769956 S    
C33   H3    1.109744 S    
C29   O17   1.386939 S    
O5    Cu1   1.946662 S    
O16   C36   1.412716 S    
O6    Cu2   1.946660 S    
O2    C2    1.279237 A    
C37   H15   1.108102 S    
C32   O20   1.382995 S    
C10   C32   1.398835 A    
C33   H2    1.112355 S    
C15   O11   1.347061 S    
C13   N1    1.368237 A    
C38   H17   1.116327 S    
C15   C17   1.408469 A    
C13   O9    1.349988 S    
C18   C22   1.398857 A    
C4    N1    1.442741 S    
O13   C33   1.414599 S    
C14   O10   1.349988 S    
C23   C26   1.403396 A    
O18   C38   1.416672 S    
C37   H14   1.116353 S    
C27   C28   1.208021 T    
O20   C40   1.408175 S    
O4    C1    1.279222 A    
C34   H6    1.109061 S    
N3    N4    1.192096 T    
C7    C11   1.421112 A    
C36   H10   1.113098 S    
C36   H11   1.112906 S    
C20   C22   1.403249 A    
O4    Cu2   1.979022 S    
O7    C6    1.283653 A    
C14   C20   1.407718 A    
C35   H7    1.113095 S    
C24   O14   1.373797 S    
C21   C22   1.414993 A    
C5    C11   1.484143 S    
C10   C12   1.414785 A    
C16   C18   1.408492 A    
C39   H20   1.112982 S    
C1    C27   1.438762 S    
C23   O13   1.373826 S    
C31   O19   1.382992 S    
C2    C28   1.438762 S    
O3    Cu1   1.979021 S    
C33   H1    1.113995 S    
C38   H18   1.108090 S    
C10   Cl4   1.769947 S    
O6    C6    1.282703 A    
C35   H9    1.108096 S    
C8    C12   1.421118 A    
C30   O18   1.386942 S    
C14   N2    1.368233 A    
C37   H13   1.108782 S    
O8    C5    1.282714 A    
Cu2   N3    1.971565 S    
C25   O15   1.376811 S    
C15   N1    1.367416 A    
C39   H21   1.109505 S    
C17   C23   1.403978 A    
C16   N2    1.367423 A    
C18   C24   1.403997 A    
C36   H12   1.108105 S    
C8    Cl2   1.771282 S    
C6    C12   1.484143 S    
C40   H23   1.113049 S    
O7    Cu1   1.946663 S    
O17   C37   1.416653 S    
C4    C32   1.406736 A    
O8    Cu2   1.946665 S    
C34   H4    1.113088 S    
C3    N2    1.442745 S    
C3    C29   1.406025 A    
O15   C35   1.412728 S    
C7    C29   1.412123 A    
C19   C25   1.402963 A    
O5    C5    1.283644 A    
C39   H19   1.112373 S    
C40   H24   1.109547 S    
Cu1   N4    1.971565 S    
C13   C19   1.407725 A    
