data_mof_unit_36320.cif
_audit_creation_date              2012-12-10T21:30:21-0500
_audit_creation_method            fapswitch 2.2
_symmetry_space_group_name_H-M    P1
_symmetry_Int_Tables_number       1
_space_group_crystal_system       triclinic
_cell_length_a                    13.010984
_cell_length_b                    16.134502
_cell_length_c                    16.785951
_cell_angle_alpha                 92.08685
_cell_angle_beta                  88.788956
_cell_angle_gamma                 108.215234
_cell_volume                      3344.8254171

loop_
_atom_site_label
_atom_site_type_symbol
_atom_type_description
_atom_site_fract_x
_atom_site_fract_y
_atom_site_fract_z
_atom_type_partial_charge
C1    C     C_R   0.503211 0.489786 0.346954 0.935477
C2    C     C_R   0.016465 0.460608 0.511070 0.049350
C3    C     C_R   0.121501 0.473167 0.539222 -0.039959
C4    C     C_R   0.969741 0.528320 0.523343 -0.012717
C5    C     C_R   0.015629 0.597153 0.579816 -0.054287
C6    C     C_R   0.111782 0.600738 0.617584 -0.300075
C7    C     C_R   0.165470 0.539728 0.597938 0.448113
C8    C     C_R   0.879631 0.530320 0.479984 0.382975
C9    C     C_R   0.860480 0.647929 0.567143 -0.391618
C10   C     C_R   0.179327 0.418269 0.507464 -0.140151
C11   C     C_R   0.523548 0.488179 0.261481 -0.297188
C12   C     C_R   0.297624 0.451303 0.503901 0.997765
C13   C     C_R   0.569373 0.567904 0.224312 -0.362294
C14   C     C_R   0.596507 0.569757 0.144054 0.451249
C15   C     C_R   0.572957 0.490398 0.099354 0.003812
C16   C     C_R   0.535200 0.410398 0.137106 0.311585
C17   C     C_R   0.506126 0.408769 0.217721 0.352729
C18   C     C_R   0.511777 0.453057 0.864430 -0.270979
C19   C     C_R   0.501189 0.445731 0.782783 -0.225824
C20   C     C_R   0.525740 0.533971 0.904404 0.296494
C21   C     C_R   0.503395 0.518661 0.739523 -0.057880
C22   C     C_R   0.513147 0.598827 0.779111 -0.346744
C23   C     C_R   0.499475 0.510879 0.653092 0.937150
C24   C     C_R   0.523882 0.606721 0.862186 0.449562
C25   C     C_R   0.558881 0.775833 0.536735 -0.146900
C26   C     C_R   0.551598 0.860854 0.547484 0.319426
C27   C     C_R   0.468931 0.883312 0.507532 0.010939
C28   C     C_R   0.393961 0.817780 0.462643 0.338676
C29   C     C_R   0.406593 0.734565 0.451899 0.419354
C30   C     C_R   0.426814 0.130283 0.501626 -0.360032
C31   C     C_R   0.421501 0.216013 0.501413 -0.036635
C32   C     C_R   0.527421 0.115733 0.511106 0.249870
C33   C     C_R   0.610426 0.273308 0.519979 -0.125299
C34   C     C_R   0.702018 0.548810 0.498476 0.885698
C35   C     C_R   0.619722 0.188619 0.521991 0.370091
C36   C     C_R   0.963450 0.660145 0.599191 0.504170
C37   C     C_R   0.818086 0.581671 0.509780 -0.223058
C38   C     C_R   0.124070 0.338889 0.467295 0.408337
C39   C     C_R   0.012705 0.318218 0.455047 -0.276990
C40   C     C_R   0.960048 0.378952 0.474964 -0.116751
H1    H     H_    0.810402 0.685790 0.590471 0.167908
H2    H     H_    0.508778 0.395219 0.896428 0.189495
H3    H     H_    0.514066 0.655215 0.745627 0.163654
H4    H     H_    0.585754 0.629358 0.257670 0.219885
H5    H     H_    0.344362 0.226548 0.493544 0.188312
H6    H     H_    0.353175 0.076303 0.493140 0.190518
H7    H     H_    0.145969 0.651208 0.662540 0.191992
H8    H     H_    0.682476 0.328743 0.525780 0.153629
H9    H     H_    0.619635 0.757788 0.568742 0.183311
H10   H     H_    0.874081 0.359543 0.464369 0.212171
H11   H     H_    0.967350 0.256557 0.426813 0.169081
H12   H     H_    0.492069 0.382860 0.753626 0.177550
N1    N     N_2   0.574907 0.488369 0.015701 -0.163796
N2    N     N_2   0.535632 0.542142 0.987846 -0.066930
N3    N     N_R   0.487340 0.714070 0.490410 -0.193361
N4    N     N_2   0.454839 0.968098 0.512649 -0.150498
N5    N     N_2   0.540565 0.030495 0.508179 -0.098175
N6    N     N_R   0.512670 0.285920 0.509580 -0.095886
O1    O     O_R   0.504530 0.423560 0.387290 -0.551373
O2    O     O_R   0.496400 0.561030 0.381140 -0.651443
O3    O     O_R   0.352460 0.397130 0.504630 -0.578210
O4    O     O_R   0.344330 0.534610 0.498470 -0.592751
O5    O     O_R   0.503600 0.438970 0.618860 -0.630346
O6    O     O_R   0.495470 0.576440 0.612710 -0.602026
O7    O     O_R   0.655670 0.465390 0.501530 -0.611463
O8    O     O_R   0.647540 0.602870 0.495370 -0.616508
Zn1   Zn    Zn3+2 0.505430 0.408200 0.504110 0.985821
Zn2   Zn    Zn3+2 0.494570 0.591800 0.495890 0.948800
O9    O     O_3   0.512528 0.333045 0.092819 -0.582771
C41   C     C_3   0.606819 0.307526 0.088647 0.133989
H13   H     H_    0.632290 0.296547 0.149329 0.166315
H14   H     H_    0.674385 0.357675 0.058920 0.127910
C42   C     C_3   0.583462 0.222455 0.039980 -0.794308
H15   H     H_    0.559073 0.231607 0.978722 0.249513
H16   H     H_    0.657100 0.201570 0.036297 0.205936
H17   H     H_    0.517173 0.170703 0.068629 0.265026
O10   O     O_3   0.463838 0.329161 0.253451 -0.571407
C43   C     C_3   0.349994 0.302815 0.247743 0.162119
H18   H     H_    0.323896 0.301209 0.184705 0.154117
H19   H     H_    0.316295 0.347516 0.284190 0.139121
C44   C     C_3   0.303314 0.211271 0.279168 -0.746205
H20   H     H_    0.326554 0.210548 0.342287 0.266496
H21   H     H_    0.213688 0.189854 0.275386 0.194850
H22   H     H_    0.334546 0.165019 0.243162 0.254476
O11   O     O_3   0.637544 0.649616 0.108641 -0.552238
C45   C     C_3   0.749825 0.666915 0.096276 0.106809
H23   H     H_    0.767214 0.615453 0.057234 0.140510
H24   H     H_    0.791795 0.671557 0.154247 0.129095
C46   C     C_3   0.795297 0.753615 0.055433 -0.745418
H25   H     H_    0.780786 0.806860 0.093269 0.255670
H26   H     H_    0.883753 0.768153 0.045543 0.196319
H27   H     H_    0.755658 0.750479 0.996936 0.277930
O12   O     O_3   0.534605 0.684618 0.903296 -0.740330
H28   H     H_    0.532083 0.729180 0.864865 0.330890
O13   O     O_3   0.313140 0.837531 0.422649 -0.553368
C47   C     C_3   0.215111 0.806177 0.466026 0.149005
H29   H     H_    0.218368 0.846118 0.521950 0.124461
H30   H     H_    0.196981 0.736367 0.481352 0.169979
C48   C     C_3   0.122723 0.813046 0.415376 -0.779252
H31   H     H_    0.121298 0.776948 0.357580 0.275000
H32   H     H_    0.044278 0.784116 0.446549 0.192243
H33   H     H_    0.133211 0.882595 0.403950 0.247284
O14   O     O_3   0.334253 0.675280 0.402780 -0.741207
H34   H     H_    0.363939 0.627865 0.388116 0.379129
O15   O     O_3   0.622487 0.917009 0.600007 -0.751058
H35   H     H_    0.589589 0.961053 0.621083 0.351939
O16   O     O_3   0.719582 0.175882 0.528994 -0.596957
C49   C     C_3   0.764508 0.208888 0.603981 0.073147
H36   H     H_    0.703347 0.190202 0.653167 0.132304
H37   H     H_    0.799371 0.281194 0.603570 0.134917
C50   C     C_3   0.855022 0.171273 0.621263 -0.755875
H38   H     H_    0.918400 0.189036 0.574034 0.255513
H39   H     H_    0.892053 0.197683 0.679577 0.201150
H40   H     H_    0.822252 0.099021 0.623485 0.272839
O17   O     O_3   0.007585 0.723754 0.658116 -0.618266
C51   C     C_3   0.991233 0.804310 0.642893 0.091160
H41   H     H_    0.910256 0.804075 0.665573 0.162303
H42   H     H_    0.998697 0.818958 0.578318 0.134415
C52   C     C_3   0.076359 0.877226 0.686886 -0.812569
H43   H     H_    0.158526 0.879194 0.665722 0.243405
H44   H     H_    0.064285 0.940945 0.675681 0.213327
H45   H     H_    0.069745 0.866254 0.751991 0.264834
O18   O     O_3   0.853058 0.482531 0.408989 -0.777299
H46   H     H_    0.800006 0.502501 0.379905 0.328672
O19   O     O_3   0.180324 0.283944 0.438944 -0.795849
H47   H     H_    0.129268 0.231773 0.412428 0.326188
O20   O     O_3   0.255674 0.539683 0.640060 -0.773070
H48   H     H_    0.275597 0.590092 0.678569 0.330337

loop_
_geom_bond_atom_site_label_1
_geom_bond_atom_site_label_2
_ccdc_geom_bond_type
C39   H11   S    
C5    C36   A    
O12   H28   S    
C34   C37   S    
C42   H15   S    
O8    Zn2   S    
C50   H38   S    
C1    C11   S    
C4    C8    A    
C34   O8    A    
C44   H20   S    
O18   H46   S    
N1    N2    D    
N4    N5    D    
C29   O14   S    
C26   C27   A    
C33   N6    A    
C28   O13   S    
O6    Zn2   S    
C31   N6    A    
C28   C29   A    
C19   C21   A    
C3    C7    A    
C1    O1    A    
O11   C45   S    
C30   C31   A    
C43   H19   S    
C15   C16   A    
C47   C48   S    
C49   H36   S    
C34   O7    A    
C18   C19   A    
O1    Zn1   S    
C19   H12   S    
C20   C24   A    
C49   H37   S    
C16   C17   A    
O7    Zn1   S    
C47   H30   S    
C9    C36   A    
O16   C49   S    
C41   H13   S    
C46   H26   S    
C18   C20   A    
C23   O5    A    
C21   C22   A    
C42   H16   S    
C32   N5    S    
C26   O15   S    
C9    C37   A    
C44   H21   S    
N3    Zn2   S    
C52   H44   S    
C38   C39   A    
O5    Zn1   S    
C38   O19   S    
C6    H7    S    
C32   C35   A    
C20   N2    S    
C1    O2    A    
C39   C40   A    
C43   H18   S    
C29   N3    A    
C25   C26   A    
O10   C43   S    
C2    C4    A    
C12   O4    A    
O3    Zn1   S    
C48   H31   S    
C47   H29   S    
C41   C42   S    
C17   O10   S    
C50   H39   S    
C27   N4    S    
C46   H27   S    
C10   C12   S    
C23   O6    A    
C48   H32   S    
C21   C23   S    
O19   H47   S    
C42   H17   S    
C22   C24   A    
C8    C37   A    
O20   H48   S    
C15   N1    S    
O14   H34   S    
C44   H22   S    
C52   H45   S    
C11   C17   A    
C45   H23   S    
C30   H6    S    
C16   O9    S    
C25   N3    A    
C14   O11   S    
C4    C5    A    
C45   C46   S    
C52   H43   S    
C49   C50   S    
C8    O18   S    
C6    C7    A    
O15   H35   S    
C9    H1    S    
C51   C52   S    
O4    Zn2   S    
C10   C38   A    
C18   H2    S    
C2    C3    A    
O13   C47   S    
C3    C10   A    
C24   O12   S    
C30   C32   A    
C12   O3    A    
C11   C13   A    
C43   C44   S    
C5    C6    A    
C40   H10   S    
C33   C35   A    
C51   H42   S    
C51   H41   S    
C50   H40   S    
C45   H24   S    
C13   H4    S    
O9    C41   S    
C25   H9    S    
C35   O16   S    
C2    C40   A    
N6    Zn1   S    
C48   H33   S    
O2    Zn2   S    
C31   H5    S    
C27   C28   A    
C33   H8    S    
C14   C15   A    
C41   H14   S    
C7    O20   S    
C46   H25   S    
C13   C14   A    
C36   O17   S    
C22   H3    S    
O17   C51   S    
