data_mof_unit_42641.cif
_audit_creation_date              2012-12-11T14:00:00-0500
_audit_creation_method            fapswitch 2.2
_symmetry_space_group_name_H-M    P1
_symmetry_Int_Tables_number       1
_space_group_crystal_system       triclinic
_cell_length_a                    11.258632
_cell_length_b                    11.209347
_cell_length_c                    18.795357
_cell_angle_alpha                 90.500441
_cell_angle_beta                  89.725863
_cell_angle_gamma                 119.821298
_cell_volume                      2057.8312388

loop_
_atom_site_label
_atom_site_type_symbol
_atom_type_description
_atom_site_fract_x
_atom_site_fract_y
_atom_site_fract_z
_atom_type_partial_charge
C1    C     C_R   0.542332 0.480503 0.852330 0.593096
C2    C     C_R   0.480826 0.542374 0.350987 0.577184
C3    C     C_R   0.059778 0.518883 0.350408 0.579320
C4    C     C_R   0.457311 0.938750 0.351170 0.577376
C5    C     C_2   0.990417 0.493109 0.576833 -0.093036
C6    C     C_2   0.502412 0.497767 0.578523 -0.091352
C7    C     C_2   0.501090 0.999958 0.579114 -0.085293
C8    C     C_2   0.494934 0.993555 0.422674 -0.092124
C9    C     C_2   0.497162 0.504202 0.422148 -0.094536
C10   C     C_2   0.999850 0.501562 0.420454 -0.087142
C11   C     C_2   0.970991 0.389878 0.458896 0.213536
C12   C     C_R   0.520401 0.062963 0.852471 0.591777
C13   C     C_2   0.604258 0.591342 0.462587 0.212778
C14   C     C_2   0.405244 0.008534 0.464049 0.210858
C15   C     C_2   0.391295 0.974405 0.539941 0.213898
C16   C     C_2   0.587383 0.606784 0.538967 0.213579
C17   C     C_2   0.003359 0.401949 0.535080 0.210192
C18   C     C_2   0.886862 0.440771 0.936447 -0.099192
C19   C     C_2   0.505907 0.504963 0.923064 -0.093065
C20   C     C_2   0.498173 0.005795 0.923555 -0.086425
C21   C     C_2   0.500616 0.004587 0.078744 -0.109205
C22   C     C_2   0.502886 0.497468 0.078148 -0.113045
C23   C     C_R   0.865578 0.417684 0.860164 0.574084
C24   C     C_2   0.996226 0.490595 0.079689 -0.092695
C25   C     C_2   0.961480 0.573679 0.046307 0.170982
C26   C     C_2   0.400535 0.397733 0.038684 0.172486
C27   C     C_2   0.602557 0.005049 0.039806 0.165342
C28   C     C_2   0.594301 0.992947 0.959815 0.194357
C29   C     C_2   0.396456 0.409273 0.959063 0.198999
C30   C     C_2   0.956152 0.566287 0.968255 0.223283
C31   C     C_R   0.479444 0.540854 0.147674 0.592819
C32   C     C_R   0.060469 0.518626 0.148718 0.592270
C33   C     C_R   0.458587 0.938369 0.147913 0.591312
C34   C     C_R   0.542078 0.481065 0.649253 0.589804
C35   C     C_R   0.518845 0.059934 0.649424 0.589740
C36   C     C_R   0.938184 0.457078 0.648665 0.599440
Cl1   Cl    Cl    0.904450 0.225003 0.418697 -0.417073
Cl2   Cl    Cl    0.769521 0.697459 0.425944 -0.402357
Cl3   Cl    Cl    0.294609 0.064045 0.429228 -0.401995
Cl4   Cl    Cl    0.226666 0.909429 0.578748 -0.431044
Cl5   Cl    Cl    0.690212 0.772483 0.577165 -0.419120
Cl6   Cl    Cl    0.055498 0.288032 0.569351 -0.405445
Cr1   Cr    Cr6+3 0.464030 0.233680 0.750360 1.141297
Cr2   Cr    Cr6+3 0.766320 0.230350 0.750360 1.166509
Cr3   Cr    Cr6+3 0.769650 0.535970 0.750360 1.164950
Cr4   Cr    Cr6+3 0.233680 0.464030 0.249640 1.202869
Cr5   Cr    Cr6+3 0.230350 0.766320 0.249640 1.205300
Cr6   Cr    Cr6+3 0.535970 0.769650 0.249640 1.209400
H1    H     H_    0.023527 0.598059 0.445744 0.120008
H2    H     H_    0.413105 0.006430 0.949248 0.149681
H3    H     H_    0.591009 0.589637 0.949124 0.144065
H4    H     H_    0.831981 0.349014 0.968672 0.078535
H5    H     H_    0.922324 0.835024 0.016313 0.393681
H6    H     H_    0.141542 0.045209 0.032209 0.390532
H7    H     H_    0.934687 0.071988 0.024659 0.398908
H8    H     H_    0.891263 0.033030 0.859060 0.361917
H9    H     H_    0.146274 0.128464 0.848839 0.346661
H10   H     H_    0.046058 0.862581 0.854764 0.365548
H11   H     H_    0.401483 0.428720 0.446025 0.116265
H12   H     H_    0.573213 0.976467 0.445602 0.123235
H13   H     H_    0.596892 0.021953 0.554436 0.119951
H14   H     H_    0.428340 0.401492 0.553960 0.114045
H15   H     H_    0.974241 0.572366 0.554147 0.120126
H16   H     H_    0.003477 0.411176 0.049584 0.167132
H17   H     H_    0.597149 0.574473 0.055004 0.153749
H18   H     H_    0.422830 0.021083 0.055599 0.148831
O1    O     O_R   0.434100 0.092480 0.829780 -0.475187
O2    O     O_R   0.362730 0.477510 0.175360 -0.453094
O3    O     O_R   0.114780 0.637270 0.175360 -0.447231
O4    O     O_R   0.522490 0.885220 0.175360 -0.450860
O5    O     O_R   0.432250 0.092620 0.670380 -0.444441
O6    O     O_R   0.907380 0.339630 0.670380 -0.440749
O7    O     O_R   0.660370 0.567750 0.670380 -0.440948
O8    O     O_R   0.092620 0.432250 0.329620 -0.441017
O9    O     O_R   0.339630 0.907380 0.329620 -0.441953
O10   O     O_R   0.567750 0.660370 0.329620 -0.438276
O11   O     O_R   0.475790 0.362860 0.676880 -0.486013
O12   O     O_R   0.907520 0.341620 0.829780 -0.409755
O13   O     O_R   0.637140 0.112930 0.676880 -0.484230
O14   O     O_R   0.887070 0.524210 0.676880 -0.482821
O15   O     O_R   0.362860 0.475790 0.323120 -0.489519
O16   O     O_R   0.112930 0.637140 0.323120 -0.487365
O17   O     O_R   0.524210 0.887070 0.323120 -0.484976
O18   O     O_3   0.666667 0.333333 0.749450 -0.364378
O19   O     O_3   0.333333 0.666667 0.250550 -0.349322
O20   O     O_2   0.842299 0.630092 0.155595 -0.237473
O21   O     O_2   0.062420 0.818110 0.114814 -0.211616
O22   O     O_3   0.849438 0.747418 0.036186 -0.467444
O23   O     O_R   0.658380 0.565900 0.829780 -0.468713
O24   O     O_2   0.346121 0.220269 0.146474 -0.245638
O25   O     O_2   0.156091 0.245168 0.101677 -0.208480
O26   O     O_3   0.240937 0.107210 0.025447 -0.456890
O27   O     O_2   0.776666 0.128137 0.149318 -0.240324
O28   O     O_2   0.751122 0.910608 0.105666 -0.192105
O29   O     O_3   0.891801 0.130135 0.030149 -0.434111
O30   O     O_2   0.723766 0.846269 0.958130 -0.260455
O31   O     O_2   0.618722 0.855951 0.847135 -0.252377
O32   O     O_3   0.843740 0.072877 0.886377 -0.448969
O33   O     O_2   0.122732 0.298004 0.958186 -0.215850
O34   O     O_R   0.092480 0.434100 0.170220 -0.450164
O35   O     O_2   0.241547 0.392760 0.846472 -0.242985
O36   O     O_3   0.214889 0.160134 0.887544 -0.468071
O37   O     O_2   0.166760 0.825996 0.974011 -0.283506
O38   O     O_2   0.149822 0.691728 0.867613 -0.223674
O39   O     O_3   0.977923 0.782162 0.882045 -0.481051
O40   O     O_R   0.341620 0.907520 0.170220 -0.449128
O41   O     O_R   0.565900 0.658380 0.170220 -0.438331
O42   O     O_R   0.477510 0.362730 0.824640 -0.460090
O43   O     O_R   0.637270 0.114780 0.824640 -0.468511
O44   O     O_R   0.885220 0.522490 0.824640 -0.426200
S1    S     S_3+6 0.930407 0.695229 0.091360 0.083098
S2    S     S_3+6 0.282762 0.240716 0.080800 0.092045
S3    S     S_3+6 0.757180 0.042143 0.083896 0.099806
S4    S     S_3+6 0.695057 0.936904 0.911986 0.069770
S5    S     S_3+6 0.238973 0.315296 0.911975 0.094796
S6    S     S_3+6 0.069038 0.720312 0.922305 0.067212

loop_
_geom_bond_atom_site_label_1
_geom_bond_atom_site_label_2
_ccdc_geom_bond_type
C21   H18   S    
Cr6   O10   S    
O39   S6    S    
O24   S2    D    
C4    C8    S    
C18   H4    S    
C30   S6    S    
H6    O26   S    
H9    O36   S    
Cr5   O19   S    
C34   O11   A    
O33   S5    D    
O32   S4    S    
Cr6   O41   S    
O21   S1    D    
C5    C36   S    
C5    H15   S    
Cr3   O7    S    
C1    O42   A    
Cr5   O16   S    
C11   Cl1   S    
C3    O8    A    
C9    C13   D    
C17   Cl6   S    
C7    H13   S    
C4    O9    A    
C20   H2    S    
O36   S5    S    
C14   Cl3   S    
O38   S6    D    
O22   S1    S    
Cr5   O3    S    
C1    O23   A    
Cr2   O6    S    
C18   C30   D    
H8    O32   S    
H5    O22   S    
Cr3   O23   S    
Cr4   O19   S    
Cr2   O43   S    
C7    C15   D    
C21   C27   D    
C35   O5    A    
C24   H16   S    
Cr1   O18   S    
O30   S4    D    
C7    C35   S    
C12   O43   A    
O28   S3    D    
C31   O2    A    
C12   O1    A    
C1    C19   S    
C22   C31   S    
C18   C23   S    
C24   C25   D    
H7    O29   S    
C36   O14   A    
Cr3   O44   S    
O26   S2    S    
C20   C28   D    
C32   O34   A    
C9    H11   S    
O25   S2    D    
C24   C32   S    
C22   H17   S    
Cr4   O2    S    
C19   H3    S    
Cr4   O15   S    
Cr5   O40   S    
C12   C20   S    
C3    O16   A    
O27   S3    D    
C5    C17   D    
C13   Cl2   S    
C28   S4    S    
C33   O4    A    
C27   S3    S    
O35   S5    D    
C8    C14   D    
Cr3   O18   S    
C19   C29   D    
C26   S2    S    
Cr4   O8    S    
C2    O10   A    
C25   C30   S    
C23   O44   A    
Cr4   O34   S    
C11   C17   S    
Cr1   O5    S    
C14   C15   S    
C31   O41   A    
Cr2   O13   S    
C33   O40   A    
Cr6   O4    S    
Cr2   O18   S    
C32   O3    A    
Cr1   O11   S    
Cr6   O17   S    
H10   O39   S    
C6    H14   S    
Cr2   O12   S    
O20   S1    D    
Cr5   O9    S    
C3    C10   S    
C8    H12   S    
C2    C9    S    
C4    O17   A    
O29   S3    S    
C35   O13   A    
O37   S6    D    
Cr3   O14   S    
Cr1   O42   S    
C23   O12   A    
C29   S5    S    
C15   Cl4   S    
C10   C11   D    
C25   S1    S    
C34   O7    A    
C6    C16   D    
C6    C34   S    
C21   C33   S    
C26   C29   S    
Cr1   O1    S    
C22   C26   D    
C13   C16   S    
C27   C28   S    
Cr6   O19   S    
C2    O15   A    
O31   S4    D    
C10   H1    S    
C16   Cl5   S    
C36   O6    A    
