data_mof_unit_57096.cif
_audit_creation_date              2013-03-05T16:03:03-0500
_audit_creation_method            fapswitch 2.2
_symmetry_space_group_name_H-M    P1
_symmetry_Int_Tables_number       1
_space_group_crystal_system       triclinic
_cell_length_a                    6.966187
_cell_length_b                    18.312034
_cell_length_c                    20.166246
_cell_angle_alpha                 68.321792
_cell_angle_beta                  89.916256
_cell_angle_gamma                 89.924959
_cell_volume                      2390.55942571

loop_
_atom_site_label
_atom_site_type_symbol
_atom_site_description
_atom_site_fract_x
_atom_site_fract_y
_atom_site_fract_z
_atom_type_partial_charge
O1    O     O_R   0.488990 0.443920 0.942160 -0.582340
O2    O     O_R   0.823840 0.406530 0.087600 -0.588142
O3    O     O_R   0.999650 0.556080 0.057840 -0.586773
C1    C     C_R   0.655370 0.384210 0.115284 0.930659
O4    O     O_R   0.818390 0.434590 0.944530 -0.600634
O5    O     O_R   0.994160 0.584350 0.913750 -0.591025
C2    C     C_R   0.650826 0.420488 0.924159 0.974008
O6    O     O_R   0.494480 0.415650 0.086250 -0.589522
O7    O     O_3   0.662600 0.549100 0.990070 -0.274076
V1    V     V_3+5 0.935320 0.490890 0.001840 1.177486
O8    O     O_R   0.324240 0.593470 0.912400 -0.588864
C3    C     C_R   0.155256 0.616308 0.884940 0.940256
O9    O     O_R   0.329690 0.565410 0.055470 -0.598134
C4    C     C_R   0.161082 0.579225 0.076005 0.975044
V2    V     V_3+5 0.435990 0.509110 0.998160 1.176619
O10   O     O_3   0.158840 0.450900 0.009930 -0.272005
C5    C     C_3   0.007342 0.665564 0.274799 0.262414
C6    C     C_3   0.345262 0.716342 0.235393 -0.521288
C7    C     C_3   0.336580 0.760542 0.288421 0.244777
H1    H     H_    0.052536 0.676117 0.380032 0.215574
H2    H     H_    0.437077 0.748613 0.188735 0.201025
H3    H     H_    0.415969 0.658336 0.261219 0.204338
H4    H     H_    0.379154 0.717732 0.341969 0.107430
C8    C     C_1   0.113518 0.872296 0.380676 -0.128257
C9    C     C_3   0.140640 0.706984 0.208814 0.119740
C10   C     C_3   0.002206 0.712754 0.325508 -0.565793
C11   C     C_3   0.127234 0.788046 0.295045 0.124883
C12   C     C_3   0.046377 0.837685 0.219981 -0.361231
C13   C     C_3   0.064376 0.792389 0.168086 -0.181811
C14   C     C_1   0.119318 0.833833 0.342795 0.094823
C15   C     C_1   0.148810 0.661437 0.160798 0.020198
C16   C     C_1   0.153642 0.624240 0.121887 -0.261683
H5    H     H_    0.169515 0.824196 0.125633 0.158742
H6    H     H_    0.893971 0.852747 0.225713 0.224288
H7    H     H_    0.858806 0.665450 0.254369 0.075924
H8    H     H_    0.851320 0.728686 0.331796 0.219907
H9    H     H_    0.122492 0.894848 0.197151 0.204889
H10   H     H_    0.941523 0.528142 0.695205 0.159312
C17   C     C_R   0.255212 0.774049 0.874106 -0.156232
C18   C     C_R   0.303709 0.849117 0.870784 -0.105194
C19   C     C_R   0.292359 0.912715 0.806430 -0.122624
C20   C     C_R   0.232071 0.901767 0.744916 -0.169871
C21   C     C_R   0.183436 0.826110 0.746371 0.118621
C22   C     C_R   0.195576 0.760851 0.812380 0.114852
C23   C     C_R   0.120079 0.815161 0.683796 -0.295903
C24   C     C_R   0.069834 0.738734 0.687312 0.118518
C25   C     C_R   0.082374 0.673448 0.753305 0.111252
C26   C     C_R   0.144878 0.684490 0.815923 -0.303791
C27   C     C_R   0.010819 0.725447 0.625566 -0.176951
C28   C     C_R   0.964165 0.650216 0.628794 -0.067853
C29   C     C_R   0.976530 0.586563 0.693088 -0.021241
C30   C     C_R   0.035452 0.597653 0.754685 -0.168971
H11   H     H_    0.263914 0.726802 0.925697 0.102942
H12   H     H_    0.349285 0.858025 0.918542 0.118073
H13   H     H_    0.329225 0.970997 0.804206 0.108527
H14   H     H_    0.222821 0.953440 0.696520 0.115736
H15   H     H_    0.001556 0.772737 0.574017 0.104720
H16   H     H_    0.919397 0.641211 0.580994 0.148565
H17   H     H_    0.045352 0.545981 0.803069 0.126356
H18   H     H_    0.598780 0.473997 0.313411 0.197419
C31   C     C_R   0.699002 0.227026 0.118719 -0.150124
C32   C     C_R   0.711372 0.152199 0.116909 -0.188840
C33   C     C_R   0.678429 0.087143 0.178299 -0.140346
C34   C     C_R   0.636917 0.095755 0.242888 0.312939
C35   C     C_R   0.638526 0.171556 0.247908 -0.060249
C36   C     C_R   0.662084 0.238369 0.183291 0.109773
C37   C     C_R   0.619759 0.182968 0.314249 -0.269191
C38   C     C_R   0.619451 0.260606 0.314276 0.089537
C39   C     C_R   0.623076 0.326409 0.248780 0.125008
C40   C     C_R   0.645711 0.315283 0.183468 -0.256942
C41   C     C_R   0.620028 0.274238 0.378992 -0.314529
C42   C     C_R   0.619364 0.350722 0.379364 0.414689
C43   C     C_R   0.605845 0.414488 0.314567 -0.104406
C44   C     C_R   0.609832 0.402784 0.250250 -0.239048
H19   H     H_    0.719637 0.275838 0.068743 0.104048
H20   H     H_    0.740544 0.144741 0.067033 0.139191
H21   H     H_    0.678057 0.029310 0.175240 0.184897
H22   H     H_    0.624543 0.225640 0.429814 0.141446
H23   H     H_    0.606786 0.454542 0.201712 0.138902
O11   O     O_R   0.770890 0.084490 0.414040 -0.583524
O12   O     O_R   0.445980 0.065450 0.555510 -0.606263
O13   O     O_R   0.270670 0.915620 0.586180 -0.599523
C45   C     C_R   0.612856 0.079330 0.576338 0.962128
O14   O     O_R   0.441480 0.093500 0.412450 -0.571380
O15   O     O_R   0.266140 0.943870 0.442100 -0.543801
C46   C     C_R   0.609976 0.115046 0.383870 1.006338
O16   O     O_R   0.775410 0.056240 0.558120 -0.593424
O17   O     O_3   0.602660 0.950990 0.510100 -0.258532
V3    V     V_3+5 0.329740 0.009100 0.498130 1.226938
O18   O     O_R   0.936120 0.934420 0.444240 -0.562318
C47   C     C_R   0.105117 0.919321 0.424936 1.001631
O19   O     O_R   0.940610 0.906370 0.587310 -0.601309
C48   C     C_R   0.109582 0.883441 0.614799 0.914522
V4    V     V_3+5 0.829110 0.990690 0.501470 1.226232
O20   O     O_3   0.106080 0.049010 0.489880 -0.278428
C49   C     C_3   0.797397 0.254827 0.696080 -0.348012
C50   C     C_3   0.429778 0.270291 0.693359 -0.341814
C51   C     C_3   0.470791 0.331474 0.731050 0.295716
H24   H     H_    0.874957 0.355222 0.724176 0.208284
H25   H     H_    0.807834 0.299196 0.641013 0.243478
H26   H     H_    0.302707 0.234510 0.720110 0.096577
C52   C     C_1   0.647276 0.375271 0.878467 -0.249283
C53   C     C_3   0.603076 0.210632 0.706370 0.320106
C54   C     C_3   0.821152 0.294366 0.751522 -0.401446
C55   C     C_3   0.628776 0.294339 0.790084 0.212302
C56   C     C_3   0.580326 0.206244 0.834055 -0.454358
C57   C     C_3   0.591135 0.156040 0.786295 -0.432376
C58   C     C_1   0.645089 0.338363 0.839309 0.013853
C59   C     C_1   0.603717 0.163139 0.659962 -0.027335
C60   C     C_1   0.612115 0.124922 0.621889 -0.232907
H27   H     H_    0.719250 0.116949 0.801306 0.176189
H28   H     H_    0.462695 0.117383 0.796077 0.156064
H29   H     H_    0.682328 0.181733 0.879353 0.177727
H30   H     H_    0.918860 0.213217 0.702209 0.138360
H31   H     H_    0.928917 0.260339 0.791673 0.171566
H32   H     H_    0.434123 0.201514 0.857513 0.169362
N1    N     N_R   0.063677 0.583392 0.313647 0.253203
O21   O     O_R   0.957865 0.526934 0.309227 -0.400617
O22   O     O_R   0.214807 0.565660 0.354418 -0.377738
N2    N     N_R   0.570199 0.027726 0.299569 0.222359
O23   O     O_R   0.387128 0.013343 0.303883 -0.404810
O24   O     O_R   0.689316 0.970692 0.330478 -0.358050
N3    N     N_R   0.638126 0.363534 0.445264 0.246204
O25   O     O_R   0.615350 0.433446 0.446836 -0.313764
O26   O     O_R   0.694784 0.306856 0.502914 -0.435976
C61   C     C_1   0.366587 0.306287 0.618426 0.293873
N4    N     N_1   0.313723 0.334255 0.560056 0.017679
N5    N     N_R   0.536289 0.409665 0.680949 0.233811
O27   O     O_R   0.539751 0.468982 0.701901 -0.417580
O28   O     O_R   0.614195 0.419210 0.619610 -0.363037
C62   C     C_1   0.295655 0.345427 0.766419 -0.004303
N6    N     N_1   0.166762 0.359033 0.796160 -0.093041
N7    N     N_R   0.473467 0.825919 0.268524 0.238096
O29   O     O_R   0.477057 0.879179 0.204362 -0.434898
O30   O     O_R   0.592330 0.831396 0.316083 -0.390480
C63   C     C_1   0.880814 0.793754 0.131077 0.085251
N8    N     N_1   0.737805 0.794993 0.101577 -0.081982

loop_
_geom_bond_atom_site_label_1
_geom_bond_atom_site_label_2
_geom_bond_distance
_ccdc_geom_bond_type
C9    C15   1.494275 S    
C45   O16   1.307038 A    
C61   N4    1.157085 T    
C6    H2    1.109987 S    
C19   C20   1.393178 A    
O2    C1    1.298774 A    
C1    O6    1.296784 A    
C23   C48   1.489786 S    
N5    O27   1.303127 A    
C1    C40   1.485289 S    
C50   C51   1.595374 S    
O15   C47   1.302902 A    
N3    O25   1.301762 A    
C17   H11   1.081513 S    
C23   C24   1.419200 A    
C31   H19   1.081541 S    
C24   C27   1.415741 A    
C10   C11   1.553306 S    
C51   C55   1.579468 S    
C5    C10   1.564116 S    
C12   C13   1.561939 S    
O14   C46   1.302625 A    
N1    O22   1.301619 A    
O5    C3    1.299246 A    
N3    O26   1.301319 A    
C56   C57   1.559560 S    
V2    O10   2.176517 S    
O16   V4    1.973973 S    
C13   H5    1.113330 S    
H18   C43   1.082407 S    
C27   H15   1.081531 S    
C6    C7    1.562533 S    
C43   C44   1.390777 A    
C19   H13   1.082736 S    
O11   C46   1.299482 A    
C20   H14   1.081566 S    
O8    V2    2.002611 S    
C31   C36   1.415509 A    
V4    O20   2.176581 S    
C15   C16   1.214744 T    
C38   C39   1.421738 A    
C35   C37   1.434062 A    
C2    C52   1.448802 S    
C51   C62   1.481153 S    
C52   C58   1.214482 T    
O1    V2    1.957124 S    
C7    C11   1.563807 S    
O7    V1    2.147319 S    
C3    C26   1.489116 S    
O12   V3    1.986582 S    
C51   N5    1.486849 S    
H24   C54   1.110389 S    
C12   H6    1.113120 S    
O13   C48   1.299298 A    
C6    H3    1.110324 S    
O9    C4    1.300107 A    
C11   C14   1.493160 S    
C32   H20   1.082798 S    
C39   C40   1.413743 A    
C6    C9    1.555391 S    
C54   C55   1.548333 S    
O12   C45   1.293634 A    
N2    O24   1.298519 A    
O18   V4    1.955377 S    
C9    C13   1.566152 S    
C55   C58   1.496665 S    
O17   V4    1.719307 S    
C56   H29   1.113084 S    
C37   C38   1.421915 A    
C28   H16   1.082637 S    
C17   C18   1.393337 A    
O4    C2    1.295595 A    
O15   V3    1.974788 S    
C42   C43   1.397372 A    
H10   C29   1.082907 S    
C29   C30   1.393130 A    
C56   H32   1.112261 S    
V3    O20   1.702142 S    
C7    H4    1.115128 S    
C21   C22   1.425498 A    
C32   C33   1.383778 A    
C30   H17   1.081704 S    
C54   H31   1.111409 S    
C21   C23   1.419926 A    
C25   C26   1.419708 A    
O19   V4    2.002539 S    
C28   C29   1.389495 A    
C45   C60   1.451683 S    
C39   C44   1.412696 A    
C57   H28   1.112911 S    
O13   V3    2.001657 S    
C50   C53   1.582855 S    
O3    C4    1.302165 A    
C10   H8    1.110016 S    
C18   C19   1.389335 A    
C35   C36   1.429641 A    
O6    V2    2.001244 S    
C18   H12   1.082621 S    
C44   H23   1.082348 S    
C49   C54   1.549387 S    
C42   N3    1.438480 S    
N7    O29   1.301409 A    
C20   C21   1.416413 A    
C17   C22   1.415808 A    
O11   V4    1.996593 S    
C62   N6    1.155960 T    
O2    V1    2.001489 S    
C8    C47   1.452297 S    
N2    O23   1.298836 A    
C33   H21   1.083340 S    
C24   C25   1.425697 A    
C37   C46   1.494211 S    
O1    C2    1.303650 A    
C57   H27   1.113373 S    
C4    C16   1.449655 S    
C50   C61   1.475490 S    
N5    O28   1.301440 A    
O5    V1    2.001597 S    
O8    C3    1.302622 A    
C25   C30   1.416561 A    
C5    N1    1.469848 S    
C7    N7    1.466480 S    
C55   C56   1.564091 S    
C34   N2    1.422119 S    
C53   C59   1.494512 S    
C5    C9    1.568697 S    
C34   C35   1.428629 A    
O9    V2    1.955179 S    
O7    V2    1.723048 S    
C41   C42   1.403356 A    
O3    V1    1.974866 S    
V1    O10   1.702020 S    
C59   C60   1.216319 T    
O18   C47   1.300484 A    
C36   C40   1.414238 A    
H1    C10   1.112444 S    
C12   H9    1.110642 S    
C38   C41   1.416435 A    
C49   H25   1.109936 S    
O19   C48   1.302995 A    
C31   C32   1.386695 A    
C8    C14   1.215988 T    
C49   H30   1.113935 S    
C33   C34   1.398423 A    
O4    V1    1.986789 S    
C13   C63   1.477057 S    
O17   V3    2.147436 S    
C27   C28   1.393768 A    
O14   V3    2.001591 S    
C49   C53   1.551917 S    
C11   C12   1.555494 S    
N7    O30   1.299664 A    
C63   N8    1.156981 T    
C53   C57   1.553567 S    
C5    H7    1.114580 S    
N1    O21   1.300164 A    
C41   H22   1.081458 S    
C50   H26   1.114855 S    
C22   C26   1.418637 A    
