data_mof_unit_33089.cif
_audit_creation_date              2012-10-26T18:33:28-0400
_audit_creation_method            fapswitch 2.2
_symmetry_space_group_name_H-M    P1
_symmetry_Int_Tables_number       1
_space_group_crystal_system       triclinic
_cell_length_a                    15.100066
_cell_length_b                    13.671883
_cell_length_c                    10.885206
_cell_angle_alpha                 89.157813
_cell_angle_beta                  89.786256
_cell_angle_gamma                 90.41358
_cell_volume                      2246.89305152

loop_
_atom_site_label
_atom_site_type_symbol
_atom_type_description
_atom_site_fract_x
_atom_site_fract_y
_atom_site_fract_z
_atom_type_partial_charge
C1    C     C_R   0.328424 0.499472 0.497813 0.579197
C2    C     C_R   0.047781 0.669325 0.571751 0.083645
C3    C     C_R   0.093567 0.584411 0.534268 -0.031426
C4    C     C_R   0.502115 0.500799 0.259934 0.543802
C5    C     C_R   0.045859 0.500542 0.497150 0.014930
C6    C     C_R   0.090913 0.415339 0.458885 0.033628
C7    C     C_R   0.041732 0.332736 0.422979 -0.124726
C8    C     C_R   0.949941 0.333813 0.424796 -0.125928
C9    C     C_R   0.186193 0.581791 0.531398 -0.131084
C10   C     C_R   0.231351 0.498073 0.495017 0.034275
C11   C     C_R   0.184104 0.414587 0.457022 0.084222
C12   C     C_3   0.596548 0.449899 0.928079 0.235582
C13   C     C_R   0.430227 0.792226 0.551017 0.092309
C14   C     C_R   0.430698 0.205539 0.552150 0.086388
C15   C     C_R   0.570941 0.794505 0.452781 0.057520
C16   C     C_R   0.569082 0.207771 0.447628 0.049450
C17   C     C_R   0.572534 0.897593 0.451421 -0.025585
C18   C     C_R   0.571361 0.104768 0.448124 -0.011017
C19   C     C_R   0.671324 0.500363 0.499407 0.514132
C20   C     C_R   0.500596 0.948202 0.502031 0.054901
C21   C     C_R   0.500328 0.051831 0.501264 0.052557
C22   C     C_R   0.428889 0.895242 0.553264 -0.000248
C23   C     C_R   0.813176 0.417604 0.462914 -0.142100
C24   C     C_R   0.428958 0.102466 0.553407 -0.008954
C25   C     C_R   0.643526 0.950964 0.399275 -0.136393
C26   C     C_R   0.642755 0.053703 0.397132 -0.124427
C27   C     C_R   0.357935 0.049078 0.605482 -0.122884
C28   C     C_R   0.357793 0.946306 0.605129 -0.116530
C29   C     C_R   0.502335 0.499329 0.740203 0.527360
C30   C     C_3   0.484972 0.611964 0.068301 0.085582
C31   C     C_3   0.428172 0.426144 0.075266 0.079672
C32   C     C_3   0.497177 0.608124 0.924621 -0.097902
C33   C     C_3   0.422874 0.439673 0.931412 -0.074996
C34   C     C_R   0.767708 0.501129 0.498382 -0.029948
C35   C     C_3   0.600555 0.464004 0.074884 0.198347
C36   C     C_3   0.504464 0.501283 0.122183 0.040164
C37   C     C_3   0.506879 0.498041 0.878212 -0.040789
C38   C     C_2   0.540802 0.696900 0.125727 0.645143
C39   C     C_2   0.441862 0.317794 0.116169 0.662928
C40   C     C_2   0.096310 0.756969 0.615383 0.548335
C41   C     C_2   0.559161 0.686627 0.868646 0.650794
C42   C     C_2   0.387804 0.350389 0.862881 0.599894
C43   C     C_R   0.814274 0.585172 0.532782 -0.099436
C44   C     C_R   0.907067 0.586353 0.533447 0.035719
C45   C     C_R   0.952819 0.501586 0.497530 0.031349
C46   C     C_R   0.905194 0.417370 0.461642 0.020405
C47   C     C_R   0.954288 0.670189 0.570013 0.083040
Cu1   Cu    Cu3+1 0.499990 0.597420 0.500010 1.009160
Cu2   Cu    Cu3+1 0.499990 0.402580 0.500010 0.988932
H1    H     H_    0.224469 0.645161 0.557855 0.160373
H2    H     H_    0.302412 0.086775 0.646066 0.112126
H3    H     H_    0.302112 0.906798 0.645314 0.140198
H4    H     H_    0.433285 0.632614 0.884247 0.104615
H5    H     H_    0.367162 0.490223 0.913493 0.114366
H6    H     H_    0.776911 0.352872 0.435078 0.112674
H7    H     H_    0.777644 0.649084 0.560463 0.181008
H8    H     H_    0.537160 0.826576 0.212192 0.330337
H9    H     H_    0.404941 0.206762 0.230980 0.339897
H10   H     H_    0.124321 0.900374 0.590935 0.335107
H11   H     H_    0.212657 0.317012 0.323341 0.247376
H12   H     H_    0.073302 0.266303 0.393453 0.117244
H13   H     H_    0.215783 0.270351 0.469843 0.220817
H14   H     H_    0.381566 0.713461 0.072575 0.266966
H15   H     H_    0.345712 0.607455 0.037526 0.237129
H16   H     H_    0.339696 0.448286 0.222431 0.287250
H17   H     H_    0.291407 0.406703 0.093297 0.259722
H18   H     H_    0.568208 0.817337 0.780198 0.341748
H19   H     H_    0.283746 0.288535 0.776421 0.326413
H20   H     H_    0.732616 0.509122 0.087088 0.235504
H21   H     H_    0.669122 0.547547 0.200548 0.222363
H22   H     H_    0.688837 0.350236 0.106989 0.205951
H23   H     H_    0.913821 0.269037 0.397005 0.111472
H24   H     H_    0.638148 0.383584 0.230705 0.221621
H25   H     H_    0.731758 0.458818 0.892881 0.212473
H26   H     H_    0.670327 0.489866 0.772672 0.226986
H27   H     H_    0.657689 0.313067 0.924529 0.223148
H28   H     H_    0.601398 0.336419 0.802109 0.255180
H29   H     H_    0.926058 0.772598 0.697672 0.263308
H30   H     H_    0.921753 0.813411 0.549307 0.273504
H31   H     H_    0.375868 0.750754 0.591189 0.139048
H32   H     H_    0.376734 0.245356 0.592935 0.146560
H33   H     H_    0.625532 0.754826 0.413183 0.139778
H34   H     H_    0.622686 0.249252 0.405548 0.119015
H35   H     H_    0.699324 0.913263 0.359441 0.128496
H36   H     H_    0.698068 0.093190 0.355928 0.113067
N1    N     N_R   0.499930 0.743810 0.499950 -0.221732
N2    N     N_3   0.906408 0.754934 0.608660 -0.630995
N3    N     N_R   0.499930 0.256190 0.499950 -0.232903
N4    N     N_3   0.231406 0.330860 0.413832 -0.592060
N5    N     N_3   0.391680 0.639724 0.095351 -0.564405
N6    N     N_3   0.340971 0.453189 0.126534 -0.641266
N7    N     N_3   0.669476 0.536169 0.105682 -0.524905
N8    N     N_3   0.626370 0.371647 0.137703 -0.562816
N9    N     N_3   0.674282 0.496340 0.868011 -0.538199
N10   N     N_3   0.598311 0.344916 0.896925 -0.495729
O1    O     O_R   0.370250 0.582280 0.500040 -0.524339
O2    O     O_R   0.498109 0.767606 0.196108 -0.668863
O3    O     O_2   0.495015 0.264963 0.065532 -0.425010
O4    O     O_R   0.390168 0.277586 0.211794 -0.688129
O5    O     O_2   0.142939 0.750954 0.706765 -0.529448
O6    O     O_R   0.088172 0.846208 0.552331 -0.706870
O7    O     O_2   0.639568 0.678666 0.870979 -0.420542
O8    O     O_R   0.521960 0.770306 0.814895 -0.700432
O9    O     O_2   0.434190 0.279388 0.843616 -0.450031
O10   O     O_R   0.300472 0.350916 0.820181 -0.714622
O11   O     O_R   0.370250 0.417720 0.500040 -0.459796
O12   O     O_R   0.499970 0.582270 0.317700 -0.460016
O13   O     O_R   0.499970 0.417730 0.317700 -0.487921
O14   O     O_R   0.629730 0.582260 0.499980 -0.519922
O15   O     O_R   0.629730 0.417740 0.499980 -0.538891
O16   O     O_R   0.500000 0.582270 0.682320 -0.492892
O17   O     O_R   0.500000 0.417730 0.682320 -0.488111
O18   O     O_2   0.619776 0.708322 0.105946 -0.470984

loop_
_geom_bond_atom_site_label_1
_geom_bond_atom_site_label_2
_ccdc_geom_bond_type
H29   N2    S    
C4    C36   S    
C18   C21   A    
H25   N9    S    
C29   O17   A    
C35   C36   S    
C18   C26   A    
C24   C27   A    
H24   N8    S    
C30   N5    S    
H30   N2    S    
H18   O8    S    
C7    C8    A    
C45   C46   A    
C4    O13   A    
C33   C42   S    
C1    O1    A    
H27   N10   S    
C5    C6    A    
Cu1   O12   S    
H13   N4    S    
C17   C20   A    
C41   O7    D    
C30   C38   S    
C15   C17   A    
C14   C24   A    
C12   C37   S    
C7    H12   S    
C40   O6    S    
C13   N1    A    
C25   H35   S    
C32   C41   S    
C31   C33   S    
C12   N10   S    
H15   N5    S    
Cu2   O13   S    
H20   N7    S    
C9    C10   A    
C44   C47   A    
C1    O11   A    
C35   N7    S    
C19   O14   A    
Cu1   O14   S    
C13   H31   S    
C23   C46   A    
C22   C28   A    
Cu2   N3    S    
C12   N9    S    
C38   O2    S    
C27   H2    S    
C15   H33   S    
C35   N8    S    
C4    O12   A    
C8    H23   S    
C9    H1    S    
H10   O6    S    
C6    C11   A    
C38   O18   D    
C39   O3    D    
C25   C26   A    
H11   N4    S    
C5    C45   A    
H28   N10   S    
C16   H34   S    
C33   C37   S    
C41   O8    S    
C47   N2    S    
C43   C44   A    
C3    C9    A    
C11   N4    S    
C39   O4    S    
C23   C34   A    
H8    O2    S    
C32   C37   S    
C12   C35   S    
C6    C7    A    
H17   N6    S    
C15   N1    A    
Cu1   Cu2   S    
C20   C22   A    
C31   N6    S    
Cu2   O17   S    
Cu1   N1    S    
H19   O10   S    
C32   H4    S    
C44   C45   A    
C1    C10   S    
C19   O15   A    
C33   H5    S    
H16   N6    S    
Cu1   O1    S    
C29   O16   A    
H21   N7    S    
H9    O4    S    
C3    C5    A    
C19   C34   S    
C42   O9    D    
C40   O5    D    
C23   H6    S    
Cu2   O11   S    
H22   N8    S    
C2    C47   A    
C30   C36   S    
C17   C25   A    
C2    C3    A    
C14   N3    A    
C30   C32   S    
C28   H3    S    
C26   H36   S    
H14   N5    S    
C31   C39   S    
C13   C22   A    
C42   O10   S    
C8    C46   A    
C10   C11   A    
C2    C40   S    
C43   H7    S    
Cu1   O16   S    
C20   C21   A    
C16   C18   A    
C21   C24   A    
C29   C37   S    
C27   C28   A    
C16   N3    A    
C31   C36   S    
C14   H32   S    
C34   C43   A    
H26   N9    S    
Cu2   O15   S    
