data_mof_unit_50006.cif
_audit_creation_date              2012-12-11T14:07:48-0500
_audit_creation_method            fapswitch 2.2
_symmetry_space_group_name_H-M    P1
_symmetry_Int_Tables_number       1
_space_group_crystal_system       monoclinic
_cell_length_a                    19.74755
_cell_length_b                    17.134016
_cell_length_c                    15.3727
_cell_angle_alpha                 90.0
_cell_angle_beta                  53.474902
_cell_angle_gamma                 90.0
_cell_volume                      4179.84743728

loop_
_atom_site_label
_atom_site_type_symbol
_atom_type_description
_atom_site_fract_x
_atom_site_fract_y
_atom_site_fract_z
_atom_type_partial_charge
C1    C     C_R   0.374822 0.196761 0.995661 -0.118241
C2    C     C_R   0.706124 0.848565 0.988998 0.161828
C3    C     C_R   0.206124 0.651435 0.988998 0.161830
C4    C     C_R   0.206124 0.348565 0.988998 0.161828
C5    C     C_R   0.611602 0.818046 0.695191 -0.016401
C6    C     C_R   0.611602 0.181954 0.695191 -0.016389
C7    C     C_R   0.111602 0.318046 0.695192 -0.016401
C8    C     C_R   0.111602 0.681954 0.695191 -0.016388
C9    C     C_3   0.200426 0.133614 0.520174 -0.374768
C10   C     C_3   0.200426 0.866386 0.520174 -0.374775
C11   C     C_3   0.700426 0.633614 0.520174 -0.374769
C12   C     C_R   0.374822 0.803239 0.995662 -0.118242
C13   C     C_3   0.700426 0.366386 0.520174 -0.374774
C14   C     C_3   0.148011 0.181206 0.625174 -0.373193
C15   C     C_3   0.148011 0.818794 0.625175 -0.373177
C16   C     C_3   0.648011 0.681206 0.625174 -0.373193
C17   C     C_3   0.648011 0.318794 0.625174 -0.373177
C18   C     C_3   0.309036 0.242948 0.440030 -0.401622
C19   C     C_3   0.309036 0.757051 0.440030 -0.401614
C20   C     C_3   0.809036 0.742948 0.440030 -0.401623
C21   C     C_3   0.809036 0.257051 0.440030 -0.401614
C22   C     C_3   0.694330 0.740027 0.412855 -0.413458
C23   C     C_R   0.874822 0.696761 0.995661 -0.118241
C24   C     C_3   0.694329 0.259973 0.412856 -0.413484
C25   C     C_3   0.194330 0.240027 0.412855 -0.413458
C26   C     C_3   0.194329 0.759973 0.412856 -0.413485
C27   C     C_3   0.255285 0.189514 0.421824 0.352468
C28   C     C_3   0.255285 0.810486 0.421824 0.352476
C29   C     C_3   0.755285 0.689514 0.421824 0.352469
C30   C     C_3   0.755285 0.310486 0.421824 0.352475
C31   C     C_3   0.658859 0.769736 0.597854 0.306573
C32   C     C_3   0.658860 0.230264 0.597854 0.306588
C33   C     C_3   0.158859 0.269735 0.597854 0.306573
C34   C     C_R   0.874822 0.303239 0.995662 -0.118242
C35   C     C_3   0.158859 0.730264 0.597854 0.306590
C36   C     C_3   0.752401 0.792061 0.541038 -0.398493
C37   C     C_3   0.752402 0.207939 0.541039 -0.398508
C38   C     C_3   0.252401 0.292061 0.541038 -0.398493
C39   C     C_3   0.252402 0.707940 0.541039 -0.398508
C40   C     C_R   0.353555 0.824581 0.219031 -0.139017
C41   C     C_R   0.353555 0.175419 0.219031 -0.139018
C42   C     C_R   0.853555 0.324581 0.219031 -0.139017
C43   C     C_R   0.853555 0.675419 0.219031 -0.139018
C44   C     C_3   0.635222 0.786793 0.518725 -0.142159
C45   C     C_R   0.665086 0.911703 0.058801 -0.150365
C46   C     C_3   0.635223 0.213205 0.518724 -0.142155
C47   C     C_3   0.135222 0.286793 0.518725 -0.142159
C48   C     C_3   0.135223 0.713205 0.518724 -0.142155
C49   C     C_2   0.278701 0.690137 0.969215 -0.193520
C50   C     C_2   0.278701 0.309863 0.969215 -0.193520
C51   C     C_2   0.778701 0.190137 0.969215 -0.193520
C52   C     C_2   0.778701 0.809863 0.969215 -0.193521
C53   C     C_2   0.808192 0.255162 0.909483 -0.176275
C54   C     C_2   0.808193 0.744838 0.909482 -0.176253
C55   C     C_2   0.308192 0.755162 0.909483 -0.176275
C56   C     C_R   0.665086 0.088297 0.058801 -0.150369
C57   C     C_2   0.308193 0.244838 0.909482 -0.176255
C58   C     C_R   0.364876 0.889533 0.897313 -0.152967
C59   C     C_R   0.364876 0.110467 0.897312 -0.152964
C60   C     C_R   0.864876 0.389533 0.897313 -0.152967
C61   C     C_R   0.864876 0.610467 0.897312 -0.152963
C62   C     C_R   0.365436 0.087261 0.316524 -0.133352
C63   C     C_R   0.365436 0.912739 0.316524 -0.133354
C64   C     C_R   0.865436 0.587261 0.316524 -0.133353
C65   C     C_R   0.865436 0.412739 0.316524 -0.133354
C66   C     C_R   0.346570 0.186162 0.934046 0.141678
C67   C     C_R   0.165086 0.411703 0.058801 -0.150365
C68   C     C_R   0.346570 0.813838 0.934047 0.141680
C69   C     C_R   0.846570 0.686162 0.934046 0.141678
C70   C     C_R   0.846570 0.313838 0.934047 0.141680
C71   C     C_R   0.315178 0.853756 0.322424 0.012496
C72   C     C_R   0.315178 0.146244 0.322424 0.012495
C73   C     C_R   0.815178 0.353756 0.322424 0.012496
C74   C     C_R   0.815179 0.646244 0.322424 0.012495
C75   C     C_R   0.657950 0.180029 0.958068 -0.120090
C76   C     C_R   0.657950 0.819971 0.958068 -0.120091
C77   C     C_R   0.157950 0.680029 0.958068 -0.120090
C78   C     C_R   0.165086 0.588297 0.058801 -0.150369
C79   C     C_R   0.157950 0.319971 0.958068 -0.120090
C80   C     C_R   0.602150 0.802168 0.789972 -0.125101
C81   C     C_R   0.602150 0.197832 0.789972 -0.125106
C82   C     C_R   0.102150 0.302168 0.789972 -0.125101
C83   C     C_R   0.102150 0.697832 0.789972 -0.125106
C84   C     C_R   0.594814 0.104154 0.694779 -0.144417
C85   C     C_R   0.594814 0.895846 0.694779 -0.144416
C86   C     C_R   0.094814 0.604154 0.694779 -0.144417
C87   C     C_R   0.094814 0.395846 0.694779 -0.144417
C88   C     C_2   0.542796 0.772850 0.570297 0.501378
C89   C     C_R   0.706124 0.151435 0.988998 0.161830
C90   C     C_2   0.542798 0.227144 0.570293 0.501383
C91   C     C_2   0.042796 0.272850 0.570297 0.501379
C92   C     C_2   0.042798 0.727143 0.570292 0.501384
H1    H     H_    0.384044 0.251516 0.022025 0.079346
H2    H     H_    0.580635 0.336256 0.673427 0.192909
H3    H     H_    0.080636 0.163744 0.673427 0.192893
H4    H     H_    0.080635 0.836256 0.673428 0.192910
H5    H     H_    0.170769 0.167093 0.674355 0.138217
H6    H     H_    0.170770 0.832907 0.674355 0.138209
H7    H     H_    0.670770 0.667093 0.674355 0.138217
H8    H     H_    0.670770 0.332907 0.674355 0.138210
H9    H     H_    0.351522 0.207284 0.449351 0.164599
H10   H     H_    0.351523 0.792716 0.449348 0.164600
H11   H     H_    0.851521 0.707284 0.449351 0.164598
H12   H     H_    0.384044 0.748484 0.022025 0.079346
H13   H     H_    0.851523 0.292716 0.449348 0.164599
H14   H     H_    0.730162 0.782548 0.345317 0.125486
H15   H     H_    0.730160 0.217454 0.345315 0.125490
H16   H     H_    0.230162 0.282547 0.345317 0.125485
H17   H     H_    0.230160 0.717455 0.345315 0.125490
H18   H     H_    0.658843 0.702173 0.393963 0.188634
H19   H     H_    0.658839 0.297829 0.393969 0.188623
H20   H     H_    0.158843 0.202172 0.393964 0.188634
H21   H     H_    0.158839 0.797829 0.393969 0.188623
H22   H     H_    0.647427 0.849362 0.494990 0.055031
H23   H     H_    0.884044 0.751516 0.022025 0.079346
H24   H     H_    0.647433 0.150637 0.494987 0.055029
H25   H     H_    0.147427 0.349362 0.494990 0.055031
H26   H     H_    0.147433 0.650637 0.494987 0.055029
H27   H     H_    0.349575 0.282166 0.369149 0.161040
H28   H     H_    0.349574 0.717833 0.369149 0.161040
H29   H     H_    0.849575 0.782166 0.369149 0.161040
H30   H     H_    0.849574 0.217833 0.369149 0.161041
H31   H     H_    0.336444 0.773680 0.195015 0.090388
H32   H     H_    0.336444 0.226320 0.195015 0.090388
H33   H     H_    0.836444 0.273680 0.195015 0.090388
H34   H     H_    0.884044 0.248484 0.022025 0.079346
H35   H     H_    0.836444 0.726320 0.195015 0.090388
H36   H     H_    0.762737 0.854961 0.518115 0.164524
H37   H     H_    0.762738 0.145039 0.518118 0.164526
H38   H     H_    0.262737 0.354961 0.518115 0.164524
H39   H     H_    0.262738 0.645039 0.518118 0.164526
H40   H     H_    0.297088 0.672305 0.020062 0.117001
H41   H     H_    0.297088 0.327695 0.020061 0.117001
H42   H     H_    0.797088 0.172305 0.020062 0.117001
H43   H     H_    0.797089 0.827695 0.020061 0.117001
H44   H     H_    0.791598 0.271946 0.856386 0.125862
H45   H     H_    0.158030 0.098690 0.510037 0.187865
H46   H     H_    0.791598 0.728054 0.856386 0.125860
H47   H     H_    0.291598 0.771946 0.856386 0.125862
H48   H     H_    0.291598 0.228054 0.856386 0.125861
H49   H     H_    0.360297 0.915510 0.836837 0.088324
H50   H     H_    0.360298 0.084490 0.836837 0.088324
H51   H     H_    0.860297 0.415510 0.836837 0.088324
H52   H     H_    0.860298 0.584490 0.836837 0.088324
H53   H     H_    0.363211 0.061695 0.382049 0.079670
H54   H     H_    0.363211 0.938306 0.382049 0.079671
H55   H     H_    0.863211 0.561694 0.382049 0.079671
H56   H     H_    0.158029 0.901311 0.510038 0.187864
H57   H     H_    0.863211 0.438306 0.382049 0.079671
H58   H     H_    0.667787 0.230950 0.910538 0.086785
H59   H     H_    0.667787 0.769050 0.910538 0.086785
H60   H     H_    0.167787 0.730950 0.910538 0.086785
H61   H     H_    0.167787 0.269050 0.910538 0.086785
H62   H     H_    0.591321 0.072696 0.636708 0.073992
H63   H     H_    0.591321 0.927304 0.636708 0.073993
H64   H     H_    0.091321 0.572696 0.636708 0.073992
H65   H     H_    0.091321 0.427304 0.636708 0.073993
H66   H     H_    0.682055 0.938295 0.106823 0.086612
H67   H     H_    0.658030 0.598690 0.510037 0.187866
H68   H     H_    0.682055 0.061705 0.106824 0.086613
H69   H     H_    0.182055 0.438295 0.106823 0.086612
H70   H     H_    0.182055 0.561705 0.106824 0.086613
H71   H     H_    0.239097 0.091612 0.528298 0.132834
H72   H     H_    0.239097 0.908388 0.528298 0.132834
H73   H     H_    0.739097 0.591612 0.528297 0.132834
H74   H     H_    0.739097 0.408388 0.528298 0.132834
H75   H     H_    0.770725 0.782951 0.596289 0.175269
H76   H     H_    0.770725 0.217052 0.596290 0.175271
H77   H     H_    0.270725 0.282950 0.596289 0.175269
H78   H     H_    0.658029 0.401310 0.510038 0.187864
H79   H     H_    0.270725 0.717052 0.596290 0.175271
H80   H     H_    0.499117 0.821537 0.606209 -0.019692
H81   H     H_    0.499125 0.178450 0.606173 -0.019704
H82   H     H_    0.999117 0.321537 0.606209 -0.019692
H83   H     H_    0.999125 0.678449 0.606171 -0.019705
H84   H     H_    0.604929 0.746055 0.819709 0.082224
H85   H     H_    0.604929 0.253944 0.819709 0.082225
H86   H     H_    0.104928 0.246055 0.819709 0.082224
H87   H     H_    0.104929 0.753944 0.819709 0.082225
H88   H     H_    0.580636 0.663744 0.673427 0.192892
N1    N     N_R   0.408680 0.130160 0.995800 -0.041682
N2    N     N_R   0.403730 0.078230 0.935950 -0.038839
N3    N     N_R   0.903730 0.421770 0.935950 -0.038839
N4    N     N_R   0.903730 0.578230 0.935950 -0.038839
N5    N     N_R   0.426630 0.075970 0.212960 -0.035482
N6    N     N_R   0.426630 0.924030 0.212960 -0.035482
N7    N     N_R   0.926630 0.575970 0.212960 -0.035482
N8    N     N_R   0.926630 0.424030 0.212960 -0.035482
N9    N     N_R   0.591320 0.134600 0.004200 -0.049529
N10   N     N_R   0.591320 0.865400 0.004200 -0.049529
N11   N     N_R   0.091320 0.634600 0.004200 -0.049529
N12   N     N_R   0.408680 0.869840 0.995800 -0.041682
N13   N     N_R   0.091320 0.365400 0.004200 -0.049529
N14   N     N_R   0.578320 0.867660 0.846880 -0.033724
N15   N     N_R   0.578320 0.132340 0.846880 -0.033724
N16   N     N_R   0.078320 0.367660 0.846880 -0.033724
N17   N     N_R   0.078320 0.632340 0.846880 -0.033724
N18   N     N_R   0.573370 0.074390 0.787040 -0.029839
N19   N     N_R   0.573370 0.925610 0.787040 -0.029839
N20   N     N_R   0.073370 0.574390 0.787040 -0.029839
N21   N     N_R   0.073370 0.425610 0.787040 -0.029838
N22   N     N_R   0.596270 0.927870 0.064040 -0.041547
N23   N     N_R   0.908680 0.630160 0.995800 -0.041682
N24   N     N_R   0.596270 0.072130 0.064040 -0.041547
N25   N     N_R   0.096270 0.427870 0.064040 -0.041547
N26   N     N_R   0.096270 0.572130 0.064040 -0.041547
N27   N     N_R   0.908680 0.369840 0.995800 -0.041682
N28   N     N_R   0.421680 0.867580 0.153120 -0.038181
N29   N     N_R   0.421680 0.132420 0.153120 -0.038181
N30   N     N_R   0.921680 0.367580 0.153120 -0.038181
N31   N     N_R   0.921680 0.632420 0.153120 -0.038181
N32   N     N_R   0.403730 0.921770 0.935950 -0.038839
Ni1   Ni    Ni4+2 0.500000 0.131190 0.000000 0.208170
Ni2   Ni    Ni4+2 0.500000 0.868810 0.000000 0.208169
Ni3   Ni    Ni4+2 1.000000 0.631190 0.000000 0.208170
Ni4   Ni    Ni4+2 1.000000 0.368810 0.000000 0.208169
Ni5   Ni    Ni4+2 0.488650 0.000000 0.862740 0.207568
Ni6   Ni    Ni4+2 0.988650 0.500000 0.862740 0.207568
Ni7   Ni    Ni4+2 0.511350 0.000000 0.137260 0.209657
Ni8   Ni    Ni4+2 0.011350 0.500000 0.137260 0.209657
O1    O     O_2   0.515758 0.707536 0.575683 -0.587859
O2    O     O_2   0.515752 0.292461 0.575710 -0.587859
O3    O     O_2   0.015758 0.207536 0.575684 -0.587860
O4    O     O_2   0.015752 0.792461 0.575712 -0.587860

loop_
_geom_bond_atom_site_label_1
_geom_bond_atom_site_label_2
_ccdc_geom_bond_type
N31   Ni3   S    
C40   N28   A    
N25   Ni8   S    
C88   H80   S    
C22   C29   S    
C59   N2    A    
C8    C83   A    
N20   Ni6   S    
N9    Ni1   S    
C23   C69   A    
C6    C32   S    
N19   Ni5   S    
C57   C66   S    
C14   C33   S    
C55   C68   S    
C3    C49   S    
C11   H67   S    
N8    N30   A    
C20   H11   S    
N1    N2    A    
C16   C31   S    
C47   C91   S    
C12   C68   A    
C90   H81   S    
C38   H77   S    
C38   H38   S    
C41   H32   S    
N23   Ni3   S    
C75   N9    A    
N21   Ni6   S    
C12   H12   S    
C10   C15   S    
C59   C66   A    
N16   Ni4   S    
C51   H42   S    
C81   N15   A    
N32   Ni5   S    
C53   C70   S    
C75   H58   S    
C61   C69   A    
C55   H47   S    
C85   H63   S    
C15   C35   S    
C21   H30   S    
C9    H71   S    
C86   H64   S    
N12   N32   A    
C39   H79   S    
C25   H20   S    
N11   Ni3   S    
C84   H62   S    
C85   N19   A    
C7    C87   A    
C59   H50   S    
C45   N22   A    
C22   H18   S    
C62   H53   S    
C67   N25   A    
C10   H72   S    
C67   H69   S    
C83   N17   A    
C43   N31   A    
C25   C47   S    
C63   H54   S    
C82   N16   A    
C42   H33   S    
C26   C48   S    
C20   C29   S    
N15   N18   A    
C5    C85   A    
C43   C74   A    
N4    Ni6   S    
C65   N8    A    
C44   H22   S    
C92   H83   S    
C6    C81   A    
C7    C33   S    
C86   N20   A    
C36   H36   S    
C24   H19   S    
C9    H45   S    
C35   C48   S    
C77   H60   S    
N12   Ni2   S    
C52   C54   D    
C18   H9    S    
C37   H76   S    
N7    Ni8   S    
N8    Ni8   S    
N9    N24   A    
C12   N12   A    
C49   H40   S    
C22   C44   S    
N13   N25   A    
C31   C44   S    
C18   C27   S    
N24   Ni7   S    
C77   N11   A    
C13   C30   S    
C92   O4    D    
C6    C84   A    
C80   H84   S    
C4    C79   A    
C65   C73   A    
C43   H35   S    
C15   H4    S    
C30   C73   S    
C1    N1    A    
N10   N22   A    
C48   H26   S    
C29   C74   S    
C76   H59   S    
N26   Ni8   S    
C49   C55   D    
C14   H5    S    
C36   H75   S    
N29   Ni1   S    
C87   H65   S    
C91   H82   S    
C23   N23   A    
C51   C53   D    
C8    C35   S    
C20   C36   S    
N22   Ni7   S    
N17   N20   A    
C35   C39   S    
C9    C14   S    
C78   N26   A    
C79   H61   S    
C11   C16   S    
N11   N26   A    
C61   H52   S    
N14   N19   A    
C60   C70   A    
C34   H34   S    
C63   N6    A    
N3    N27   A    
C82   H86   S    
C1    C66   A    
C62   C72   A    
C24   H15   S    
C32   C37   S    
C5    C80   A    
C19   C28   S    
N10   Ni2   S    
C26   H17   S    
C11   C29   S    
C20   H29   S    
C40   C71   A    
C2    C52   S    
C62   N5    A    
C46   C90   S    
C58   C68   A    
C56   C89   A    
N7    N31   A    
C19   H28   S    
C78   H70   S    
N3    Ni6   S    
C41   C72   A    
C64   H55   S    
C33   C47   S    
N5    N29   A    
C28   C71   S    
C52   H43   S    
C15   H6    S    
C91   O3    D    
C3    C77   A    
C14   H3    S    
C2    C76   A    
C9    C27   S    
N13   Ni4   S    
C11   H73   S    
N6    Ni7   S    
C10   C28   S    
C1    H1    S    
C40   H31   S    
C34   C70   A    
C13   H78   S    
C42   C73   A    
N28   Ni2   S    
N5    Ni7   S    
C88   O1    D    
C50   C57   D    
C32   C46   S    
C45   H66   S    
C33   C38   S    
C63   C71   A    
C50   H41   S    
N17   Ni3   S    
N14   Ni2   S    
C4    C67   A    
N6    N28   A    
C16   H7    S    
C90   O2    D    
C56   N24   A    
C58   N32   A    
C34   N27   A    
C25   C27   S    
C80   N14   A    
C21   C30   S    
C26   C28   S    
C83   H87   S    
C79   N13   A    
C46   H24   S    
C56   H68   S    
C84   N18   A    
C42   N30   A    
C18   C38   S    
C26   H21   S    
C81   H85   S    
C41   N29   A    
C60   H51   S    
C22   H14   S    
C51   C89   S    
C58   H49   S    
C13   H74   S    
C54   H46   S    
C54   C69   S    
C39   H39   S    
C60   N3    A    
N30   Ni4   S    
N27   Ni4   S    
C19   H10   S    
C37   H37   S    
C8    C86   A    
C65   H57   S    
C61   N4    A    
C17   H8    S    
C24   C30   S    
N15   Ni1   S    
C64   N7    A    
C76   N10   A    
C2    C45   A    
C75   C89   A    
C23   H23   S    
C13   C17   S    
N18   Ni5   S    
C53   H44   S    
C47   H25   S    
C7    C82   A    
C21   C37   S    
C57   H48   S    
N2    Ni5   S    
C19   C39   S    
C48   C92   S    
C4    C50   S    
N4    N23   A    
C17   C32   S    
C64   C74   A    
C31   C36   S    
N1    Ni1   S    
C17   H2    S    
N16   N21   A    
C44   C88   S    
C3    C78   A    
C18   H27   S    
C87   N21   A    
C21   H13   S    
C27   C72   S    
C16   H88   S    
C25   H16   S    
C10   H56   S    
C24   C46   S    
C5    C31   S    
