data_mof_unit_17105.cif
_audit_creation_date              2012-12-10T19:35:30-0500
_audit_creation_method            fapswitch 2.2
_symmetry_space_group_name_H-M    P1
_symmetry_Int_Tables_number       1
_space_group_crystal_system       triclinic
_cell_length_a                    30.766393
_cell_length_b                    30.676167
_cell_length_c                    22.567976
_cell_angle_alpha                 90.110965
_cell_angle_beta                  89.623565
_cell_angle_gamma                 89.646095
_cell_volume                      21298.6354791

loop_
_atom_site_label
_atom_site_type_symbol
_atom_type_description
_atom_site_fract_x
_atom_site_fract_y
_atom_site_fract_z
_atom_type_partial_charge
C1    C     C_R   0.614600 0.120847 0.257540 -0.418604
C2    C     C_R   0.383942 0.879970 0.747323 -0.402795
C3    C     C_R   0.121971 0.386220 0.257765 -0.418547
C4    C     C_R   0.882540 0.618346 0.752035 -0.392030
C5    C     C_R   0.379837 0.884142 0.245326 -0.396827
C6    C     C_R   0.620353 0.115842 0.755447 -0.364747
C7    C     C_R   0.882715 0.618214 0.251090 -0.418777
C8    C     C_R   0.117726 0.382547 0.748613 -0.383412
C9    C     C_R   0.382235 0.118355 0.750171 -0.391549
C10   C     C_R   0.615064 0.879902 0.254347 -0.371057
C11   C     C_R   0.879782 0.384449 0.743564 -0.400426
C12   C     C_R   0.115014 0.621050 0.247496 -0.363150
C13   C     C_R   0.620649 0.883482 0.750652 -0.390184
C14   C     C_R   0.383387 0.118572 0.253050 -0.380930
C15   C     C_R   0.120776 0.614274 0.740005 -0.400972
C16   C     C_R   0.883704 0.380062 0.247996 -0.368329
C17   C     C_R   0.751231 0.218036 0.295411 0.429499
C18   C     C_R   0.247176 0.784016 0.710688 0.383309
C19   C     C_R   0.239743 0.269641 0.320448 0.368750
C20   C     C_R   0.790702 0.755486 0.712679 0.354202
C21   C     C_R   0.245151 0.788525 0.286097 0.396014
C22   C     C_R   0.760416 0.208244 0.729460 0.384626
C23   C     C_R   0.761917 0.729047 0.313591 0.401095
C24   C     C_R   0.240962 0.273637 0.696014 0.345863
C25   C     C_R   0.276521 0.244974 0.698027 0.361687
C26   C     C_R   0.736976 0.767345 0.312096 0.340399
C27   C     C_R   0.784593 0.245053 0.713996 0.387395
C28   C     C_R   0.206892 0.765132 0.275515 0.365972
C29   C     C_R   0.755810 0.784908 0.707620 0.341826
C30   C     C_R   0.266540 0.232597 0.317125 0.359713
C31   C     C_R   0.222394 0.747343 0.697240 0.401681
C32   C     C_R   0.788299 0.241665 0.280385 0.375854
C33   C     C_R   0.248858 0.715265 0.787555 0.415709
C34   C     C_R   0.743147 0.287530 0.218993 0.355232
C35   C     C_R   0.731601 0.764571 0.806710 0.381738
C36   C     C_R   0.276028 0.244287 0.211602 0.340197
C37   C     C_R   0.753988 0.280412 0.800237 0.409496
C38   C     C_R   0.247642 0.719708 0.207287 0.354307
C39   C     C_R   0.257047 0.226233 0.799509 0.338585
C40   C     C_R   0.712860 0.744297 0.215683 0.420808
C41   C     C_R   0.752613 0.723037 0.207923 0.403827
C42   C     C_R   0.228314 0.261814 0.801214 0.333850
C43   C     C_R   0.275449 0.755000 0.197721 0.403243
C44   C     C_R   0.717133 0.254223 0.793798 0.350476
C45   C     C_R   0.240449 0.272820 0.212696 0.351522
C46   C     C_R   0.758964 0.728076 0.804345 0.367370
C47   C     C_R   0.714885 0.252119 0.212995 0.391032
C48   C     C_R   0.286955 0.739371 0.779693 0.354840
C49   C     C_R   0.000041 0.500031 0.409916 0.830252
C50   C     C_R   0.000028 0.499977 0.590078 0.823380
C51   C     C_R   0.499910 0.000085 0.409881 0.837444
C52   C     C_R   0.500089 0.000063 0.590119 0.827990
C53   C     C_R   0.499972 0.000031 0.909917 0.832165
C54   C     C_R   0.499960 0.999976 0.090082 0.834418
C55   C     C_R   0.999904 0.500021 0.909884 0.831689
C56   C     C_R   0.000077 0.500118 0.090124 0.835203
C57   C     C_R   0.916174 0.583974 0.250418 0.865141
C58   C     C_R   0.083956 0.416266 0.749464 0.917164
C59   C     C_R   0.582974 0.084914 0.251876 0.902555
C60   C     C_R   0.416269 0.915614 0.749553 0.904695
C61   C     C_R   0.084702 0.416553 0.251055 0.881056
C62   C     C_R   0.915848 0.583835 0.749936 0.971551
C63   C     C_R   0.415460 0.916355 0.249088 0.931782
C64   C     C_R   0.584675 0.083544 0.751259 0.904548
C65   C     C_R   0.084819 0.582978 0.747597 0.909315
C66   C     C_R   0.916417 0.415442 0.249381 0.908207
C67   C     C_R   0.416233 0.084255 0.749792 0.887759
C68   C     C_R   0.583386 0.915604 0.250732 0.936302
C69   C     C_R   0.915157 0.416790 0.748199 0.907850
C70   C     C_R   0.083796 0.584425 0.249858 0.931717
C71   C     C_R   0.584566 0.916084 0.750115 0.918519
C72   C     C_R   0.416018 0.083796 0.250024 0.984285
C73   C     C_1   0.000063 0.500204 0.026680 -0.170540
C74   C     C_1   0.999843 0.500152 0.973335 -0.174500
C75   C     C_1   0.499933 0.999978 0.026663 -0.170455
C76   C     C_1   0.499936 0.000050 0.973334 -0.167505
C77   C     C_1   0.500111 0.000167 0.526672 -0.163281
C78   C     C_1   0.499878 0.000175 0.473330 -0.172250
C79   C     C_1   0.000064 0.499983 0.526657 -0.176583
C80   C     C_1   0.000068 0.500055 0.473329 -0.179479
C81   C     C_R   0.605499 0.163256 0.236698 0.309358
C82   C     C_R   0.383006 0.847823 0.791879 0.304696
C83   C     C_R   0.156329 0.385371 0.215991 0.291959
C84   C     C_R   0.870844 0.637559 0.806732 0.288106
C85   C     C_R   0.388308 0.841492 0.224300 0.297574
C86   C     C_R   0.623095 0.144213 0.804431 0.267290
C87   C     C_R   0.853667 0.622071 0.203481 0.315029
C88   C     C_R   0.110213 0.342005 0.776721 0.352218
C89   C     C_R   0.375092 0.144649 0.800747 0.309883
C90   C     C_R   0.626416 0.855575 0.204065 0.248907
C91   C     C_R   0.838618 0.392104 0.769473 0.296289
C92   C     C_R   0.139105 0.629291 0.195643 0.251855
C93   C     C_R   0.614090 0.840906 0.772334 0.302886
C94   C     C_R   0.354238 0.124988 0.206217 0.291080
C95   C     C_R   0.162562 0.605037 0.762044 0.288724
C96   C     C_R   0.853738 0.377137 0.201357 0.268316
C97   C     C_R   0.114161 0.653562 0.708453 0.324486
C98   C     C_R   0.882251 0.348176 0.293110 0.234291
C99   C     C_R   0.662461 0.894699 0.728947 0.292619
C100  C     C_R   0.380382 0.144877 0.304004 0.280299
C101  C     C_R   0.886896 0.344761 0.713187 0.318427
C102  C     C_R   0.118218 0.650353 0.295432 0.267333
C103  C     C_R   0.357026 0.125499 0.699234 0.301345
C104  C     C_R   0.633583 0.868502 0.308731 0.270972
C105  C     C_R   0.878251 0.646961 0.299748 0.319227
C106  C     C_R   0.157647 0.390211 0.718557 0.314667
C107  C     C_R   0.336719 0.895864 0.261096 0.304356
C108  C     C_R   0.653106 0.117819 0.711522 0.266086
C109  C     C_R   0.124538 0.358334 0.307308 0.328823
C110  C     C_R   0.861826 0.632268 0.699830 0.304541
C111  C     C_R   0.654294 0.113511 0.286967 0.329395
C112  C     C_R   0.354392 0.876573 0.700009 0.275221
C113  C     C_R   0.636217 0.196408 0.245232 0.375182
C114  C     C_R   0.348281 0.818736 0.794851 0.348069
C115  C     C_R   0.193018 0.359326 0.226267 0.410023
C116  C     C_R   0.844981 0.675222 0.807279 0.376313
C117  C     C_R   0.355946 0.809711 0.227899 0.359114
C118  C     C_R   0.659516 0.171608 0.810044 0.332290
C119  C     C_R   0.814966 0.645244 0.212383 0.382008
C120  C     C_R   0.141940 0.309100 0.772168 0.389552
C121  C     C_R   0.346665 0.180384 0.797523 0.377307
C122  C     C_R   0.664217 0.829590 0.205542 0.378684
C123  C     C_R   0.806001 0.360385 0.764351 0.343085
C124  C     C_R   0.164052 0.667640 0.190731 0.380502
C125  C     C_R   0.647193 0.809418 0.766985 0.367079
C126  C     C_R   0.319515 0.154218 0.213748 0.408086
C127  C     C_R   0.195938 0.635586 0.754251 0.358166
C128  C     C_R   0.826668 0.340453 0.197453 0.345624
C129  C     C_R   0.143321 0.687712 0.715957 0.364791
C130  C     C_R   0.844480 0.322280 0.299555 0.377014
C131  C     C_R   0.697550 0.865800 0.735552 0.380180
C132  C     C_R   0.353215 0.181869 0.303685 0.375469
C133  C     C_R   0.859811 0.309502 0.725418 0.378560
C134  C     C_R   0.149687 0.683320 0.294549 0.325684
C135  C     C_R   0.322015 0.154861 0.701103 0.358021
C136  C     C_R   0.656596 0.829063 0.312921 0.377803
C137  C     C_R   0.848264 0.681334 0.296442 0.399872
C138  C     C_R   0.191746 0.360022 0.724203 0.379064
C139  C     C_R   0.302837 0.866178 0.252336 0.353443
C140  C     C_R   0.678954 0.155698 0.707302 0.375337
C141  C     C_R   0.153672 0.323159 0.305960 0.367559
C142  C     C_R   0.827494 0.662474 0.703786 0.384169
C143  C     C_R   0.688771 0.141808 0.276680 0.372088
C144  C     C_R   0.328656 0.838883 0.694471 0.376119
C145  C     C_R   0.679853 0.185448 0.259725 -0.222494
C146  C     C_R   0.321281 0.811924 0.744850 -0.188498
C147  C     C_R   0.190141 0.324257 0.267274 -0.211244
C148  C     C_R   0.821046 0.686636 0.756604 -0.197675
C149  C     C_R   0.312353 0.821935 0.239157 -0.193356
C150  C     C_R   0.685859 0.180370 0.759745 -0.118732
C151  C     C_R   0.813011 0.678440 0.256217 -0.222409
C152  C     C_R   0.183599 0.318430 0.748670 -0.185833
C153  C     C_R   0.317765 0.184408 0.749176 -0.167277
C154  C     C_R   0.676274 0.811182 0.261015 -0.181450
C155  C     C_R   0.817422 0.317049 0.747993 -0.210130
C156  C     C_R   0.173597 0.692434 0.242103 -0.147794
C157  C     C_R   0.689910 0.822200 0.751582 -0.159882
C158  C     C_R   0.320347 0.185314 0.260371 -0.174190
C159  C     C_R   0.185787 0.678777 0.736450 -0.214155
C160  C     C_R   0.818194 0.315476 0.248785 -0.136087
C161  C     C_R   0.783192 0.281336 0.248818 -0.214334
C162  C     C_R   0.219119 0.713927 0.740185 -0.255395
C163  C     C_R   0.287422 0.221223 0.263198 -0.192738
C164  C     C_R   0.726701 0.790706 0.755636 -0.209836
C165  C     C_R   0.209163 0.726217 0.241205 -0.249307
C166  C     C_R   0.785408 0.280567 0.754090 -0.255249
C167  C     C_R   0.708428 0.774028 0.263672 -0.243551
C168  C     C_R   0.283524 0.219080 0.748966 -0.194953
C169  C     C_R   0.218118 0.284339 0.748598 -0.192119
C170  C     C_R   0.775674 0.710078 0.259169 -0.262202
C171  C     C_R   0.721128 0.214422 0.761495 -0.213457
C172  C     C_R   0.277600 0.788164 0.241271 -0.236654
C173  C     C_R   0.790109 0.723987 0.758290 -0.209671
C174  C     C_R   0.223928 0.288797 0.267344 -0.224392
C175  C     C_R   0.285353 0.778250 0.745162 -0.258958
C176  C     C_R   0.715269 0.218921 0.256557 -0.262687
O1    O     O_3   0.000000 0.500000 0.250000 -0.492543
O2    O     O_3   1.000000 0.500000 0.750000 -0.493784
O3    O     O_3   0.500000 0.000000 0.250000 -0.493193
O4    O     O_3   0.500000 0.000000 0.750000 -0.499463
O5    O     O_R   1.000000 0.463680 0.381910 -0.652103
O6    O     O_R   0.000000 0.536320 0.618090 -0.658109
O7    O     O_R   0.463680 0.000000 0.381910 -0.658181
O8    O     O_R   0.536320 0.000000 0.618090 -0.645279
O9    O     O_R   0.000000 0.536320 0.381910 -0.659643
O10   O     O_R   0.000000 0.463680 0.618090 -0.653952
O11   O     O_R   0.536320 0.000000 0.381910 -0.654906
O12   O     O_R   0.463680 0.000000 0.618090 -0.639589
O13   O     O_R   0.500000 0.963680 0.881910 -0.643084
O14   O     O_R   0.500000 0.036320 0.118090 -0.656916
O15   O     O_R   0.963680 0.500000 0.881910 -0.652955
O16   O     O_R   0.036320 0.500000 0.118090 -0.647264
O17   O     O_R   0.500000 0.036320 0.881910 -0.648449
O18   O     O_R   0.500000 0.963680 0.118090 -0.640983
O19   O     O_R   0.036320 0.500000 0.881910 -0.651158
O20   O     O_R   0.963680 0.500000 0.118090 -0.654554
O21   O     O_R   0.948950 0.587490 0.284490 -0.630437
O22   O     O_R   0.051050 0.412510 0.715510 -0.641056
O23   O     O_R   0.587490 0.051050 0.284490 -0.636573
O24   O     O_R   0.412510 0.948950 0.715510 -0.629126
O25   O     O_R   0.051050 0.412510 0.284490 -0.648215
O26   O     O_R   0.948950 0.587490 0.715510 -0.651185
O27   O     O_R   0.412510 0.948950 0.284490 -0.642994
O28   O     O_R   0.587490 0.051050 0.715510 -0.627926
O29   O     O_R   0.051050 0.587490 0.715510 -0.637244
O30   O     O_R   0.948950 0.412510 0.284490 -0.622681
O31   O     O_R   0.412510 0.051050 0.715510 -0.621952
O32   O     O_R   0.587490 0.948950 0.284490 -0.621317
O33   O     O_R   0.948950 0.412510 0.715510 -0.628045
O34   O     O_R   0.051050 0.587490 0.284490 -0.624746
O35   O     O_R   0.587490 0.948950 0.715510 -0.630714
O36   O     O_R   0.412510 0.051050 0.284490 -0.657325
O37   O     O_R   0.448950 0.087490 0.784490 -0.630611
O38   O     O_R   0.551050 0.912510 0.215510 -0.630360
O39   O     O_R   0.087490 0.551050 0.784490 -0.618171
O40   O     O_R   0.912510 0.448950 0.215510 -0.612521
O41   O     O_R   0.551050 0.912510 0.784490 -0.642463
O42   O     O_R   0.448950 0.087490 0.215510 -0.662623
O43   O     O_R   0.912510 0.448950 0.784490 -0.621939
O44   O     O_R   0.087490 0.551050 0.215510 -0.623050
O45   O     O_R   0.551050 0.087490 0.215510 -0.635393
O46   O     O_R   0.448950 0.912510 0.784490 -0.629323
O47   O     O_R   0.912510 0.551050 0.215510 -0.640943
O48   O     O_R   0.087490 0.448950 0.784490 -0.654743
O49   O     O_R   0.448950 0.912510 0.215510 -0.637907
O50   O     O_R   0.551050 0.087490 0.784490 -0.616077
O51   O     O_R   0.087490 0.448950 0.215510 -0.611332
O52   O     O_R   0.912510 0.551050 0.784490 -0.653521
Zn1   Zn    Zn3+2 0.948160 0.500000 0.200440 0.936126
Zn2   Zn    Zn3+2 0.051840 0.500000 0.799560 0.952206
Zn3   Zn    Zn3+2 0.500000 0.051840 0.200440 0.952522
Zn4   Zn    Zn3+2 0.500000 0.948160 0.799560 0.949787
Zn5   Zn    Zn3+2 0.051840 0.500000 0.200440 0.953295
Zn6   Zn    Zn3+2 0.948160 0.500000 0.799560 0.954676
Zn7   Zn    Zn3+2 0.500000 0.948160 0.200440 0.965292
Zn8   Zn    Zn3+2 0.500000 0.051840 0.799560 0.951897
Zn9   Zn    Zn3+2 0.448160 0.000000 0.700440 0.958667
Zn10  Zn    Zn3+2 0.551840 0.000000 0.299560 0.959126
Zn11  Zn    Zn3+2 0.000000 0.551840 0.700440 0.953469
Zn12  Zn    Zn3+2 1.000000 0.448160 0.299560 0.935448
Zn13  Zn    Zn3+2 0.551840 0.000000 0.700440 0.954800
Zn14  Zn    Zn3+2 0.448160 0.000000 0.299560 0.953421
Zn15  Zn    Zn3+2 0.000000 0.448160 0.700440 0.961701
Zn16  Zn    Zn3+2 0.000000 0.551840 0.299560 0.937165
O53   O     O_3   0.752461 0.192991 0.346212 -0.546268
C177  C     C_3   0.723437 0.210488 0.389138 0.125683
H1    H     H_    0.719020 0.185070 0.423275 0.131555
H2    H     H_    0.690427 0.217022 0.371384 0.108474
C178  C     C_3   0.742030 0.250792 0.420249 -0.392899
H3    H     H_    0.735748 0.248111 0.468488 0.192932
H4    H     H_    0.777613 0.251906 0.413647 0.287708
C179  C     C_3   0.721608 0.293233 0.398301 -0.926446
H5    H     H_    0.727210 0.297199 0.350133 0.250076
H6    H     H_    0.736452 0.321333 0.421449 0.253421
H7    H     H_    0.686121 0.293505 0.407605 0.249822
O54   O     O_3   0.233493 0.823868 0.688731 -0.553564
C180  C     C_3   0.220854 0.851053 0.736615 0.106259
H8    H     H_    0.250300 0.864766 0.758408 0.126443
H9    H     H_    0.201013 0.832976 0.770398 0.095145
C181  C     C_3   0.193029 0.888779 0.712944 -0.301294
H10   H     H_    0.210714 0.905709 0.676594 0.230239
H11   H     H_    0.162175 0.875812 0.694472 0.220446
C182  C     C_3   0.182268 0.921724 0.761680 -0.997292
H12   H     H_    0.164484 0.905586 0.798665 0.268802
H13   H     H_    0.161349 0.948140 0.743356 0.269400
H14   H     H_    0.212662 0.936516 0.778929 0.255836
O55   O     O_3   0.225380 0.282193 0.376281 -0.562889
C183  C     C_3   0.244692 0.321843 0.393633 0.126919
H15   H     H_    0.225690 0.334356 0.432064 0.159020
H16   H     H_    0.242695 0.347245 0.358766 0.101245
C184  C     C_3   0.291776 0.315270 0.413858 -0.350583
H17   H     H_    0.293117 0.288925 0.447611 0.250749
H18   H     H_    0.312491 0.305597 0.375424 0.219585
C185  C     C_3   0.309566 0.357260 0.440590 -1.005033
H19   H     H_    0.307648 0.384238 0.407862 0.264948
H20   H     H_    0.344093 0.352595 0.453116 0.268377
H21   H     H_    0.290703 0.366387 0.480997 0.272449
O56   O     O_3   0.822960 0.755926 0.669461 -0.601543
C186  C     C_3   0.862442 0.771377 0.693450 0.091986
H22   H     H_    0.888479 0.764951 0.660194 0.159675
H23   H     H_    0.872071 0.753533 0.734104 0.107092
C187  C     C_3   0.860632 0.820562 0.705662 -0.346388
H24   H     H_    0.850463 0.837991 0.664857 0.249819
H25   H     H_    0.836508 0.827381 0.741362 0.208750
C188  C     C_3   0.904683 0.837597 0.725536 -0.988947
H26   H     H_    0.915056 0.820839 0.766742 0.258567
H27   H     H_    0.902199 0.873122 0.734584 0.273809
H28   H     H_    0.929537 0.832126 0.690337 0.270494
O57   O     O_3   0.247412 0.813835 0.337180 -0.579249
C189  C     C_3   0.285276 0.804156 0.370898 0.098050
H29   H     H_    0.285403 0.826786 0.409012 0.166500
H30   H     H_    0.315767 0.811395 0.346949 0.119508
C190  C     C_3   0.286748 0.757209 0.394839 -0.425069
H31   H     H_    0.259320 0.751930 0.425761 0.236231
H32   H     H_    0.284444 0.733471 0.357862 0.189433
C191  C     C_3   0.328783 0.748074 0.428282 -0.984412
H33   H     H_    0.357614 0.757030 0.401260 0.255635
H34   H     H_    0.330972 0.712789 0.438659 0.272336
H35   H     H_    0.329204 0.766681 0.470418 0.268360
O58   O     O_3   0.773269 0.167669 0.708754 -0.556921
C192  C     C_3   0.809083 0.152213 0.742133 0.122814
H36   H     H_    0.798138 0.124827 0.770594 0.137404
H37   H     H_    0.823470 0.176865 0.772645 0.057744
C193  C     C_3   0.845226 0.136385 0.700314 -0.313898
H38   H     H_    0.852561 0.162314 0.667462 0.254600
H39   H     H_    0.875050 0.129946 0.726490 0.167008
C194  C     C_3   0.833143 0.094591 0.667760 -0.862206
H40   H     H_    0.829368 0.067423 0.699725 0.246981
H41   H     H_    0.859370 0.085798 0.635816 0.241715
H42   H     H_    0.802466 0.099014 0.642992 0.289260
O59   O     O_3   0.772202 0.711657 0.368333 -0.556207
C195  C     C_3   0.748185 0.672883 0.377404 0.092001
H43   H     H_    0.761331 0.656758 0.417472 0.164144
H44   H     H_    0.752432 0.649411 0.340045 0.112091
C196  C     C_3   0.699707 0.682007 0.389203 -0.387777
H45   H     H_    0.696222 0.702298 0.429791 0.238007
H46   H     H_    0.685140 0.699897 0.351464 0.208487
C197  C     C_3   0.674517 0.639724 0.397208 -0.988022
H47   H     H_    0.676207 0.619950 0.355946 0.270388
H48   H     H_    0.639894 0.647411 0.407019 0.266991
H49   H     H_    0.687994 0.620381 0.434404 0.264789
O60   O     O_3   0.229750 0.291661 0.641966 -0.593554
C198  C     C_3   0.194661 0.268000 0.617639 0.100031
H50   H     H_    0.163681 0.283960 0.631492 0.130898
H51   H     H_    0.193706 0.233058 0.631978 0.109062
C199  C     C_3   0.198394 0.268886 0.549873 -0.290790
H52   H     H_    0.201131 0.303234 0.534419 0.223002
H53   H     H_    0.228347 0.251106 0.535644 0.233991
C200  C     C_3   0.158939 0.247661 0.520996 -0.984904
H54   H     H_    0.157623 0.212346 0.532338 0.258822
H55   H     H_    0.161374 0.251138 0.471974 0.303081
H56   H     H_    0.128405 0.263784 0.536349 0.265803
O61   O     O_3   0.302422 0.240343 0.648027 -0.567705
C201  C     C_3   0.337531 0.269937 0.650219 0.114814
H57   H     H_    0.367841 0.251179 0.640652 0.139858
H58   H     H_    0.342132 0.285974 0.694280 0.077915
C202  C     C_3   0.331772 0.304961 0.602534 -0.297041
H59   H     H_    0.326207 0.289154 0.558854 0.233290
H60   H     H_    0.303060 0.325662 0.613538 0.267512
C203  C     C_3   0.371657 0.334104 0.598064 -1.016181
H61   H     H_    0.377822 0.350257 0.641306 0.264120
H62   H     H_    0.366014 0.359686 0.564148 0.273991
H63   H     H_    0.400695 0.314573 0.584811 0.267845
O62   O     O_3   0.739875 0.795513 0.359625 -0.558860
C204  C     C_3   0.765701 0.831493 0.343184 0.135149
H64   H     H_    0.746027 0.854832 0.316706 0.121924
H65   H     H_    0.794860 0.821481 0.316635 0.094011
C205  C     C_3   0.781447 0.854285 0.399297 -0.326284
H66   H     H_    0.753285 0.862659 0.428234 0.222868
H67   H     H_    0.803107 0.831804 0.424187 0.233970
C206  C     C_3   0.806106 0.895912 0.384608 -1.002376
H68   H     H_    0.835024 0.888293 0.356638 0.267900
H69   H     H_    0.817122 0.911567 0.426246 0.272089
H70   H     H_    0.784649 0.919170 0.360768 0.262876
O63   O     O_3   0.804968 0.245339 0.659069 -0.563412
C207  C     C_3   0.785490 0.277387 0.622297 0.116902
H71   H     H_    0.806044 0.280551 0.582098 0.153360
H72   H     H_    0.784751 0.310044 0.643308 0.112811
C208  C     C_3   0.739530 0.265080 0.602407 -0.382367
H73   H     H_    0.741520 0.235640 0.574050 0.237818
H74   H     H_    0.718376 0.257885 0.641151 0.224711
C209  C     C_3   0.718553 0.302313 0.567868 -1.016801
H75   H     H_    0.712484 0.330638 0.597552 0.266406
H76   H     H_    0.687046 0.291441 0.549420 0.275155
H77   H     H_    0.740078 0.312763 0.530949 0.272664
O64   O     O_3   0.168183 0.781821 0.297580 -0.531383
C210  C     C_3   0.143748 0.798656 0.249792 0.161160
H78   H     H_    0.129598 0.771713 0.223194 0.120330
H79   H     H_    0.164201 0.819025 0.219834 0.065220
C211  C     C_3   0.107091 0.827917 0.273326 -0.336994
H80   H     H_    0.120736 0.853013 0.303406 0.225118
H81   H     H_    0.091591 0.844948 0.235431 0.166872
C212  C     C_3   0.072443 0.801996 0.306360 -0.833348
H82   H     H_    0.058439 0.776762 0.276867 0.225686
H83   H     H_    0.045926 0.824285 0.321121 0.236375
H84   H     H_    0.086605 0.786176 0.345978 0.286644
O65   O     O_3   0.751835 0.810195 0.657219 -0.571110
C213  C     C_3   0.735616 0.784255 0.610758 0.134589
H85   H     H_    0.705742 0.766495 0.624834 0.086835
H86   H     H_    0.760802 0.760410 0.595787 0.200752
C214  C     C_3   0.723875 0.813669 0.558711 -0.390184
H87   H     H_    0.696339 0.835415 0.571819 0.216473
H88   H     H_    0.752204 0.834365 0.546762 0.240022
C215  C     C_3   0.710888 0.786809 0.504761 -0.910971
H89   H     H_    0.739031 0.767227 0.488253 0.297461
H90   H     H_    0.700187 0.809141 0.469131 0.320178
H91   H     H_    0.683665 0.764574 0.516041 0.242999
O66   O     O_3   0.272746 0.208694 0.368292 -0.572198
C216  C     C_3   0.246234 0.171181 0.367036 0.109347
H92   H     H_    0.265777 0.143221 0.349868 0.127835
H93   H     H_    0.216726 0.174982 0.338761 0.103300
C217  C     C_3   0.231075 0.161133 0.430150 -0.321353
H94   H     H_    0.259589 0.157396 0.459615 0.233962
H95   H     H_    0.211183 0.188838 0.447023 0.239289
C218  C     C_3   0.204067 0.119614 0.432413 -0.998368
H96   H     H_    0.174770 0.123104 0.404250 0.269731
H97   H     H_    0.193422 0.113480 0.478736 0.272396
H98   H     H_    0.223701 0.091259 0.416794 0.267642
O67   O     O_3   0.202029 0.745818 0.642772 -0.550591
C219  C     C_3   0.219591 0.711104 0.608347 0.115111
H99   H     H_    0.198468 0.707236 0.569403 0.159388
H100  H     H_    0.218551 0.679439 0.631756 0.107154
C220  C     C_3   0.266133 0.720077 0.586739 -0.383241
H101  H     H_    0.265815 0.748619 0.556868 0.242741
H102  H     H_    0.287558 0.727240 0.624906 0.204873
C221  C     C_3   0.285306 0.680922 0.553669 -1.007357
H103  H     H_    0.284771 0.651479 0.582176 0.264461
H104  H     H_    0.319588 0.687755 0.541448 0.271035
H105  H     H_    0.266783 0.674292 0.512665 0.265001
O68   O     O_3   0.827834 0.227077 0.301743 -0.559727
C222  C     C_3   0.854466 0.213849 0.253734 0.094013
H106  H     H_    0.865699 0.242649 0.228122 0.122760
H107  H     H_    0.836818 0.191368 0.223468 0.115686
C223  C     C_3   0.894193 0.189948 0.278075 -0.305938
H108  H     H_    0.911344 0.211390 0.309930 0.220771
H109  H     H_    0.883531 0.160284 0.302185 0.224036
C224  C     C_3   0.925556 0.176721 0.228498 -1.006942
H110  H     H_    0.909214 0.154671 0.196644 0.274302
H111  H     H_    0.953924 0.159320 0.247612 0.269693
H112  H     H_    0.937395 0.206051 0.204684 0.254593
O69   O     O_3   0.243293 0.692340 0.840013 -0.573429
C225  C     C_3   0.203956 0.704922 0.869189 0.088130
H113  H     H_    0.201099 0.684862 0.909459 0.164644
H114  H     H_    0.174761 0.696884 0.843099 0.117879
C226  C     C_3   0.202478 0.753224 0.888123 -0.416174
H115  H     H_    0.228352 0.759788 0.920712 0.233568
H116  H     H_    0.207352 0.774744 0.849215 0.185360
C227  C     C_3   0.158844 0.765045 0.916561 -0.984134
H117  H     H_    0.131678 0.757316 0.886216 0.258919
H118  H     H_    0.157855 0.800521 0.926371 0.268089
H119  H     H_    0.154463 0.746917 0.958636 0.264229
O70   O     O_3   0.731652 0.326734 0.193197 -0.528940
C228  C     C_3   0.707440 0.351868 0.234674 0.145045
H120  H     H_    0.729764 0.373870 0.258960 0.115475
H121  H     H_    0.689780 0.331782 0.268197 0.065410
C229  C     C_3   0.672786 0.378734 0.202563 -0.323623
H122  H     H_    0.652787 0.356777 0.174713 0.237375
H123  H     H_    0.651029 0.394371 0.236015 0.165428
C230  C     C_3   0.692392 0.414245 0.163719 -0.844062
H124  H     H_    0.712015 0.436811 0.191020 0.226020
H125  H     H_    0.665940 0.433245 0.142457 0.241554
H126  H     H_    0.713012 0.399571 0.128399 0.282225
O71   O     O_3   0.706810 0.771160 0.857575 -0.571202
C231  C     C_3   0.719231 0.810319 0.886149 0.095438
H127  H     H_    0.694486 0.817805 0.920461 0.162665
H128  H     H_    0.718442 0.838828 0.856246 0.094891
C232  C     C_3   0.763866 0.806190 0.915800 -0.347709
H129  H     H_    0.763607 0.778322 0.947158 0.249828
H130  H     H_    0.789321 0.799961 0.881635 0.207309
C233  C     C_3   0.775515 0.847893 0.948996 -1.015050
H131  H     H_    0.775291 0.876186 0.918341 0.264701
H132  H     H_    0.808473 0.844784 0.968221 0.271637
H133  H     H_    0.752133 0.853965 0.985684 0.267808
O72   O     O_3   0.296671 0.236040 0.158124 -0.588649
C234  C     C_3   0.326082 0.269979 0.145035 0.114690
H134  H     H_    0.359055 0.259919 0.159884 0.121259
H135  H     H_    0.317664 0.301699 0.166850 0.125305
C235  C     C_3   0.326661 0.277216 0.078059 -0.300366
H136  H     H_    0.335494 0.246425 0.054916 0.221510
H137  H     H_    0.293560 0.286890 0.063592 0.247720
C236  C     C_3   0.358901 0.312552 0.060354 -0.990121
H138  H     H_    0.350058 0.344039 0.081891 0.269883
H139  H     H_    0.358251 0.317007 0.011574 0.267833
H140  H     H_    0.392387 0.302940 0.073467 0.266033
O73   O     O_3   0.757712 0.305459 0.851116 -0.555071
C237  C     C_3   0.794924 0.291995 0.883386 0.093686
H141  H     H_    0.800286 0.316137 0.918913 0.160284
H142  H     H_    0.825115 0.292568 0.856187 0.110411
C238  C     C_3   0.789150 0.246821 0.911794 -0.358930
H143  H     H_    0.762168 0.248054 0.944706 0.235816
H144  H     H_    0.781028 0.222251 0.877453 0.198599
C239  C     C_3   0.830844 0.231892 0.942083 -1.007093
H145  H     H_    0.858938 0.233871 0.911036 0.257577
H146  H     H_    0.827570 0.197422 0.956046 0.267952
H147  H     H_    0.837219 0.252343 0.981647 0.264591
O74   O     O_3   0.258157 0.680129 0.181379 -0.532272
C240  C     C_3   0.278275 0.653200 0.224312 0.144085
H148  H     H_    0.253422 0.631874 0.245177 0.111905
H149  H     H_    0.294415 0.671912 0.260573 0.048772
C241  C     C_3   0.313756 0.625278 0.194881 -0.322770
H150  H     H_    0.335678 0.646547 0.168578 0.235962
H151  H     H_    0.333357 0.609132 0.229857 0.165779
C242  C     C_3   0.295196 0.590277 0.154419 -0.851975
H152  H     H_    0.273747 0.568138 0.180061 0.231593
H153  H     H_    0.322185 0.570647 0.134978 0.241588
H154  H     H_    0.276767 0.605507 0.117706 0.281528
O75   O     O_3   0.261809 0.201054 0.849819 -0.571175
C243  C     C_3   0.226726 0.171635 0.854561 0.113931
H155  H     H_    0.235199 0.141240 0.829778 0.108239
H156  H     H_    0.195442 0.184914 0.836821 0.152297
C244  C     C_3   0.219676 0.161030 0.920074 -0.296811
H157  H     H_    0.250629 0.149162 0.939690 0.225556
H158  H     H_    0.209710 0.191337 0.944038 0.232911
C245  C     C_3   0.184746 0.126340 0.928427 -1.002929
H159  H     H_    0.152966 0.138381 0.911485 0.270030
H160  H     H_    0.181094 0.118923 0.976368 0.269404
H161  H     H_    0.194134 0.095768 0.904663 0.267320
O76   O     O_3   0.680870 0.737139 0.173975 -0.561169
C246  C     C_3   0.644306 0.717447 0.201005 0.085940
H162  H     H_    0.617349 0.719071 0.168768 0.162069
H163  H     H_    0.633003 0.735340 0.241121 0.112574
C247  C     C_3   0.652824 0.669298 0.215489 -0.372641
H164  H     H_    0.661433 0.651602 0.174099 0.242246
H165  H     H_    0.680283 0.666320 0.246918 0.203297
C248  C     C_3   0.612903 0.648309 0.243545 -0.972054
H166  H     H_    0.604312 0.665079 0.285747 0.264900
H167  H     H_    0.619993 0.613517 0.253211 0.266367
H168  H     H_    0.584864 0.650122 0.212868 0.265998
O77   O     O_3   0.766517 0.714742 0.150452 -0.542210
C249  C     C_3   0.803733 0.740025 0.137076 0.115978
H169  H     H_    0.817503 0.727530 0.094805 0.160507
H170  H     H_    0.829654 0.736281 0.170713 0.107433
C250  C     C_3   0.792374 0.788339 0.128073 -0.366170
H171  H     H_    0.770104 0.791322 0.089895 0.247626
H172  H     H_    0.776027 0.801794 0.168182 0.217774
C251  C     C_3   0.832873 0.815391 0.115961 -1.005047
H173  H     H_    0.855708 0.812967 0.153760 0.263620
H174  H     H_    0.823409 0.850100 0.110126 0.268750
H175  H     H_    0.849447 0.804062 0.074930 0.272149
O78   O     O_3   0.209443 0.273042 0.855061 -0.579891
C252  C     C_3   0.232985 0.307988 0.880208 0.144978
H176  H     H_    0.218014 0.339119 0.865512 0.128593
H177  H     H_    0.268278 0.308144 0.867343 0.104029
C253  C     C_3   0.230262 0.305032 0.947914 -0.339293
H178  H     H_    0.195619 0.301948 0.962010 0.227665
H179  H     H_    0.248077 0.275412 0.963008 0.221118
C254  C     C_3   0.250076 0.345259 0.977206 -0.981474
H180  H     H_    0.285562 0.346952 0.967098 0.268399
H181  H     H_    0.245371 0.343527 0.026172 0.292124
H182  H     H_    0.234002 0.375474 0.960875 0.262390
O79   O     O_3   0.300138 0.755725 0.146138 -0.561945
C255  C     C_3   0.283929 0.788775 0.108071 0.079030
H183  H     H_    0.308677 0.794620 0.073231 0.144665
H184  H     H_    0.280136 0.820596 0.131047 0.115974
C256  C     C_3   0.241385 0.775342 0.077555 -0.346927
H185  H     H_    0.248925 0.753668 0.039364 0.225495
H186  H     H_    0.220299 0.757091 0.108466 0.246579
C257  C     C_3   0.215378 0.814858 0.056465 -1.032208
H187  H     H_    0.203153 0.833782 0.095086 0.259590
H188  H     H_    0.186956 0.803749 0.030675 0.277467
H189  H     H_    0.235466 0.836517 0.028316 0.265513
O80   O     O_3   0.679162 0.267757 0.821393 -0.547410
C258  C     C_3   0.649520 0.282118 0.777960 0.117205
H190  H     H_    0.636504 0.253884 0.752854 0.125467
H191  H     H_    0.665112 0.305161 0.746238 0.115540
C259  C     C_3   0.611697 0.305628 0.808703 -0.314078
H192  H     H_    0.596413 0.283523 0.841607 0.214365
H193  H     H_    0.624107 0.334632 0.832682 0.226806
C260  C     C_3   0.577403 0.320186 0.764287 -0.999217
H194  H     H_    0.591762 0.342958 0.731467 0.275212
H195  H     H_    0.550489 0.337197 0.788029 0.269613
H196  H     H_    0.563902 0.291510 0.740742 0.258676
O81   O     O_3   0.223095 0.285725 0.159076 -0.572437
C261  C     C_3   0.185630 0.260943 0.146273 0.126352
H197  H     H_    0.158345 0.284089 0.138274 0.128954
H198  H     H_    0.175002 0.238610 0.182613 0.079670
C262  C     C_3   0.193816 0.234054 0.090156 -0.322037
H199  H     H_    0.205214 0.255760 0.053981 0.221596
H200  H     H_    0.219637 0.209397 0.098860 0.258448
C263  C     C_3   0.152559 0.210972 0.070369 -1.022477
H201  H     H_    0.140462 0.189129 0.106026 0.263600
H202  H     H_    0.159624 0.191021 0.030349 0.278348
H203  H     H_    0.126905 0.235252 0.059236 0.267004
O82   O     O_3   0.755023 0.697140 0.848514 -0.566056
C264  C     C_3   0.732145 0.660727 0.826422 0.103215
H204  H     H_    0.755930 0.635880 0.810419 0.118272
H205  H     H_    0.709793 0.668913 0.789174 0.106432
C265  C     C_3   0.704883 0.641228 0.876463 -0.306912
H206  H     H_    0.725933 0.633843 0.915023 0.224952
H207  H     H_    0.679811 0.665366 0.890753 0.240126
C266  C     C_3   0.682549 0.599447 0.856610 -1.001069
H208  H     H_    0.660883 0.606089 0.818446 0.268755
H209  H     H_    0.662674 0.586352 0.893678 0.272964
H210  H     H_    0.707165 0.574503 0.843588 0.263691
O83   O     O_3   0.688371 0.250883 0.163645 -0.564037
C267  C     C_3   0.701202 0.215776 0.126177 0.102246
H211  H     H_    0.677052 0.213402 0.090387 0.162000
H212  H     H_    0.699807 0.183889 0.149148 0.106266
C268  C     C_3   0.746436 0.222441 0.098120 -0.357887
H213  H     H_    0.746061 0.252030 0.069821 0.240484
H214  H     H_    0.771229 0.226854 0.133116 0.196088
C269  C     C_3   0.760224 0.182996 0.061211 -1.021059
H215  H     H_    0.757248 0.152546 0.087457 0.261043
H216  H     H_    0.794733 0.186515 0.047847 0.274534
H217  H     H_    0.740008 0.180518 0.020913 0.270113
O84   O     O_3   0.324366 0.723532 0.805475 -0.550753
C270  C     C_3   0.350453 0.703485 0.761338 0.130883
H218  H     H_    0.368835 0.728848 0.736693 0.122081
H219  H     H_    0.330929 0.684335 0.729038 0.108214
C271  C     C_3   0.382225 0.672071 0.791125 -0.320393
H220  H     H_    0.400278 0.689250 0.826426 0.230682
H221  H     H_    0.363795 0.645246 0.812444 0.224936
C272  C     C_3   0.414622 0.652910 0.746582 -0.998431
H222  H     H_    0.397295 0.634946 0.711214 0.274375
H223  H     H_    0.436822 0.629906 0.769524 0.271878
H224  H     H_    0.434323 0.679258 0.726274 0.261131
O85   O     O_3   0.564150 0.174367 0.217964 -0.603016
C273  C     C_3   0.561746 0.171715 0.155361 0.180876
H225  H     H_    0.530912 0.154844 0.144577 0.179197
H226  H     H_    0.588438 0.152146 0.134180 0.085047
C274  C     C_3   0.560381 0.217415 0.128239 -0.338859
H227  H     H_    0.538085 0.238684 0.154534 0.239473
H228  H     H_    0.593430 0.231748 0.129168 0.258105
C275  C     C_3   0.544666 0.216024 0.064226 -1.022211
H229  H     H_    0.565197 0.193378 0.037597 0.265091
H230  H     H_    0.546574 0.249093 0.044502 0.277784
H231  H     H_    0.510386 0.204951 0.062560 0.270759
O86   O     O_3   0.413539 0.846708 0.836708 -0.577351
C276  C     C_3   0.451089 0.823630 0.816754 0.227080
H232  H     H_    0.479411 0.836503 0.841103 0.172133
H233  H     H_    0.458455 0.828735 0.768768 0.077134
C277  C     C_3   0.447878 0.774693 0.828755 -0.415382
H234  H     H_    0.419743 0.761343 0.804649 0.237857
H235  H     H_    0.477559 0.758140 0.811369 0.176584
C278  C     C_3   0.443368 0.765045 0.894700 -0.783589
H236  H     H_    0.472498 0.776172 0.918781 0.247153
H237  H     H_    0.439788 0.729466 0.901767 0.225696
H238  H     H_    0.414483 0.782085 0.913118 0.312861
O87   O     O_3   0.155373 0.411196 0.165885 -0.591349
C279  C     C_3   0.130764 0.389560 0.122060 0.146008
H239  H     H_    0.101366 0.373434 0.141188 0.101842
H240  H     H_    0.151131 0.363966 0.100202 0.137197
C280  C     C_3   0.116064 0.422593 0.075316 -0.293123
H241  H     H_    0.110721 0.454943 0.096370 0.271093
H242  H     H_    0.141796 0.426001 0.040717 0.193384
C281  C     C_3   0.073582 0.408828 0.046415 -0.976965
H243  H     H_    0.076177 0.374826 0.030223 0.255610
H244  H     H_    0.066144 0.430721 0.008681 0.271569
H245  H     H_    0.046441 0.410843 0.079074 0.259081
O88   O     O_3   0.886066 0.621170 0.859893 -0.599455
C282  C     C_3   0.858468 0.586824 0.878871 0.172313
H246  H     H_    0.878691 0.562488 0.902705 0.169833
H247  H     H_    0.843118 0.568738 0.841541 0.090755
C283  C     C_3   0.822238 0.603099 0.920452 -0.415479
H248  H     H_    0.805195 0.631329 0.900711 0.277015
H249  H     H_    0.797927 0.576795 0.926424 0.175043
C284  C     C_3   0.839641 0.615716 0.980957 -0.781165
H250  H     H_    0.853226 0.586492 0.003199 0.232263
H251  H     H_    0.812845 0.629199 0.008792 0.258172
H252  H     H_    0.865325 0.640664 0.976202 0.288266
O89   O     O_3   0.429287 0.829163 0.204616 -0.614599
C285  C     C_3   0.432550 0.836775 0.142731 0.149697
H253  H     H_    0.467496 0.841079 0.132013 0.175338
H254  H     H_    0.415985 0.867504 0.128617 0.120960
C286  C     C_3   0.415022 0.798264 0.106904 -0.328309
H255  H     H_    0.427718 0.767027 0.124727 0.257823
H256  H     H_    0.379147 0.797799 0.110469 0.243058
C287  C     C_3   0.427182 0.801835 0.041603 -1.028655
H257  H     H_    0.413335 0.832157 0.022419 0.270725
H258  H     H_    0.413868 0.773289 0.017732 0.280471
H259  H     H_    0.463002 0.802051 0.035707 0.279660
O90   O     O_3   0.593170 0.141441 0.850322 -0.610577
C288  C     C_3   0.564011 0.177111 0.846699 0.126320
H260  H     H_    0.551507 0.181372 0.800711 0.122056
H261  H     H_    0.580454 0.207531 0.860894 0.161909
C289  C     C_3   0.525263 0.168883 0.887925 -0.303398
H262  H     H_    0.508538 0.138533 0.874064 0.270979
H263  H     H_    0.536899 0.164438 0.934041 0.207484
C290  C     C_3   0.492795 0.206685 0.886582 -0.940810
H264  H     H_    0.508432 0.237209 0.901938 0.254165
H265  H     H_    0.464875 0.199420 0.916340 0.289982
H266  H     H_    0.480416 0.211438 0.840910 0.261394
O91   O     O_3   0.860290 0.601553 0.149208 -0.610713
C291  C     C_3   0.898383 0.617437 0.120507 0.164909
H267  H     H_    0.903317 0.597989 0.079503 0.153794
H268  H     H_    0.928227 0.612130 0.146758 0.122191
C292  C     C_3   0.895239 0.665835 0.103655 -0.411554
H269  H     H_    0.866396 0.671242 0.075449 0.236210
H270  H     H_    0.891846 0.686202 0.144190 0.199305
C293  C     C_3   0.936120 0.680186 0.070473 -0.983296
H271  H     H_    0.965464 0.673632 0.097546 0.261663
H272  H     H_    0.934574 0.715702 0.061622 0.268559
H273  H     H_    0.939144 0.662471 0.027668 0.267347
O92   O     O_3   0.070350 0.331622 0.803126 -0.614940
C294  C     C_3   0.065016 0.353008 0.859036 0.132265
H274  H     H_    0.032284 0.343464 0.876901 0.112576
H275  H     H_    0.062713 0.389165 0.854652 0.135143
C295  C     C_3   0.099561 0.339716 0.905198 -0.365722
H276  H     H_    0.083145 0.332318 0.948194 0.169960
H277  H     H_    0.116850 0.309155 0.891977 0.279422
C296  C     C_3   0.132402 0.376380 0.915006 -0.915747
H278  H     H_    0.151707 0.382189 0.873937 0.253541
H279  H     H_    0.154540 0.367450 0.951648 0.260941
H280  H     H_    0.115550 0.407173 0.927735 0.267985
O93   O     O_3   0.397572 0.137943 0.853015 -0.593269
C297  C     C_3   0.380469 0.101296 0.883323 0.152480
H281  H     H_    0.404053 0.092268 0.918345 0.157339
H282  H     H_    0.377534 0.072133 0.854232 0.095194
C298  C     C_3   0.336331 0.111448 0.912547 -0.359615
H283  H     H_    0.338441 0.142031 0.938656 0.263845
H284  H     H_    0.311345 0.116071 0.877766 0.221505
C299  C     C_3   0.321975 0.074303 0.952978 -1.004798
H285  H     H_    0.318181 0.043815 0.926934 0.265506
H286  H     H_    0.290272 0.082621 0.974019 0.272581
H287  H     H_    0.346266 0.068773 0.988424 0.273816
O94   O     O_3   0.598817 0.852800 0.156202 -0.616853
C300  C     C_3   0.569432 0.818113 0.167183 0.160170
H288  H     H_    0.540213 0.831013 0.190722 0.168470
H289  H     H_    0.583508 0.791491 0.194973 0.101315
C301  C     C_3   0.555368 0.797633 0.108790 -0.365251
H290  H     H_    0.537415 0.822218 0.082243 0.224744
H291  H     H_    0.584494 0.786900 0.083443 0.243120
C302  C     C_3   0.526700 0.757904 0.119421 -0.994553
H292  H     H_    0.546036 0.730753 0.138368 0.257078
H293  H     H_    0.512708 0.746707 0.076865 0.277235
H294  H     H_    0.500041 0.765979 0.150893 0.279794
O95   O     O_3   0.828721 0.432421 0.793710 -0.595480
C303  C     C_3   0.825645 0.428302 0.855981 0.171538
H295  H     H_    0.852904 0.408295 0.874233 0.103481
H296  H     H_    0.794180 0.413086 0.868549 0.179453
C304  C     C_3   0.827842 0.473641 0.883660 -0.332188
H297  H     H_    0.859589 0.488526 0.872075 0.244844
H298  H     H_    0.801425 0.494489 0.865526 0.213856
C305  C     C_3   0.823316 0.471709 0.950891 -1.028484
H299  H     H_    0.791169 0.458148 0.963447 0.268750
H300  H     H_    0.825867 0.505070 0.969547 0.271652
H301  H     H_    0.849515 0.451139 0.970064 0.275108
O96   O     O_3   0.135875 0.601530 0.147693 -0.616248
C306  C     C_3   0.171706 0.572582 0.148509 0.146936
H302  H     H_    0.171761 0.553087 0.190171 0.142484
H303  H     H_    0.202705 0.590782 0.145122 0.156740
C307  C     C_3   0.168694 0.541639 0.095655 -0.343513
H304  H     H_    0.135954 0.526658 0.094989 0.247313
H305  H     H_    0.173145 0.560245 0.053962 0.217495
C308  C     C_3   0.203149 0.505786 0.098664 -0.960898
H306  H     H_    0.236204 0.520120 0.098563 0.260225
H307  H     H_    0.200237 0.483907 0.059710 0.273843
H308  H     H_    0.198489 0.486191 0.139452 0.298542
O97   O     O_3   0.574670 0.829017 0.796916 -0.617405
C309  C     C_3   0.576137 0.834895 0.859279 0.163048
H309  H     H_    0.548446 0.856279 0.872308 0.167679
H310  H     H_    0.606049 0.851366 0.875972 0.090048
C310  C     C_3   0.571439 0.790941 0.890381 -0.321475
H311  H     H_    0.544792 0.772073 0.869834 0.230295
H312  H     H_    0.602092 0.771949 0.885448 0.268361
C311  C     C_3   0.561682 0.797073 0.956167 -1.052244
H313  H     H_    0.587694 0.816439 0.977158 0.270119
H314  H     H_    0.559767 0.764758 0.978051 0.283889
H315  H     H_    0.530309 0.814543 0.962687 0.269254
O98   O     O_3   0.356412 0.099441 0.155604 -0.620958
C312  C     C_3   0.386889 0.117545 0.115275 0.119985
H316  H     H_    0.399842 0.090530 0.087298 0.157138
H317  H     H_    0.415411 0.132606 0.137406 0.145995
C313  C     C_3   0.365444 0.151415 0.074987 -0.348957
H318  H     H_    0.337827 0.136410 0.051215 0.246089
H319  H     H_    0.352717 0.178753 0.102286 0.260128
C314  C     C_3   0.398083 0.169645 0.030313 -0.999772
H320  H     H_    0.424498 0.187048 0.053705 0.263635
H321  H     H_    0.381529 0.193018 0.000385 0.274524
H322  H     H_    0.412475 0.142966 0.003138 0.278098
O99   O     O_3   0.172598 0.563587 0.781995 -0.592198
C315  C     C_3   0.175776 0.564281 0.844401 0.152679
H323  H     H_    0.147012 0.580829 0.865111 0.119779
H324  H     H_    0.205878 0.581416 0.858178 0.167975
C316  C     C_3   0.177651 0.517237 0.866642 -0.295512
H325  H     H_    0.148696 0.499287 0.850661 0.265142
H326  H     H_    0.207230 0.500847 0.848503 0.209182
C317  C     C_3   0.178484 0.515236 0.934141 -1.016272
H327  H     H_    0.207609 0.532278 0.951326 0.271194
H328  H     H_    0.179695 0.480615 0.948527 0.269155
H329  H     H_    0.148655 0.530640 0.953054 0.271182
O100  O     O_3   0.852774 0.408209 0.157085 -0.581051
C318  C     C_3   0.815305 0.434479 0.165843 0.157247
H330  H     H_    0.817756 0.453368 0.207925 0.112906
H331  H     H_    0.785443 0.414319 0.167899 0.143439
C319  C     C_3   0.809819 0.466052 0.114166 -0.462283
H332  H     H_    0.808220 0.447430 0.072071 0.236187
H333  H     H_    0.778630 0.484079 0.119809 0.187351
C320  C     C_3   0.846845 0.498759 0.110884 -0.639954
H334  H     H_    0.849625 0.516239 0.153741 0.282853
H335  H     H_    0.840168 0.522977 0.075598 0.216809
H336  H     H_    0.877980 0.481831 0.100497 0.286498
O101  O     O_3   0.079310 0.660183 0.670663 -0.585896
C321  C     C_3   0.084840 0.634995 0.617904 0.193647
H337  H     H_    0.054757 0.638600 0.591333 0.154900
H338  H     H_    0.088619 0.599660 0.627157 0.139720
C322  C     C_3   0.123629 0.649179 0.579655 -0.427892
H339  H     H_    0.119549 0.683813 0.566436 0.245477
H340  H     H_    0.153948 0.645513 0.605373 0.201909
C323  C     C_3   0.128221 0.620203 0.524784 -0.991571
H341  H     H_    0.129207 0.585244 0.537508 0.265362
H342  H     H_    0.159048 0.627621 0.501219 0.262014
H343  H     H_    0.100595 0.625795 0.494413 0.286303
O102  O     O_3   0.917239 0.341710 0.330423 -0.594531
C324  C     C_3   0.948588 0.315416 0.300575 0.150957
H344  H     H_    0.963359 0.333493 0.262881 0.127792
H345  H     H_    0.933644 0.285236 0.282436 0.081938
C325  C     C_3   0.985295 0.301529 0.342519 -0.414367
H346  H     H_    0.975414 0.272419 0.368313 0.183097
H347  H     H_    0.014104 0.291786 0.315525 0.177141
C326  C     C_3   0.998514 0.337551 0.385516 -0.617274
H348  H     H_    0.006906 0.367643 0.361023 0.304769
H349  H     H_    0.027247 0.326701 0.411230 0.231392
H350  H     H_    0.971654 0.344820 0.417211 0.236312
O103  O     O_3   0.670187 0.935103 0.704196 -0.625571
C327  C     C_3   0.669165 0.931812 0.641431 0.165299
H351  H     H_    0.647470 0.958181 0.625031 0.169044
H352  H     H_    0.655337 0.900673 0.624141 0.093397
C328  C     C_3   0.714817 0.938325 0.615440 -0.342974
H353  H     H_    0.730929 0.966065 0.637886 0.226346
H354  H     H_    0.734782 0.908580 0.622046 0.278007
C329  C     C_3   0.713217 0.947247 0.549252 -1.032341
H355  H     H_    0.698232 0.919325 0.525729 0.269796
H356  H     H_    0.746754 0.951730 0.531935 0.277896
H357  H     H_    0.694157 0.977417 0.540795 0.280686
O104  O     O_3   0.405355 0.135835 0.353341 -0.640268
C330  C     C_3   0.383489 0.104992 0.389497 0.131553
H358  H     H_    0.408581 0.084108 0.410696 0.169880
H359  H     H_    0.361926 0.082550 0.364223 0.139005
C331  C     C_3   0.356989 0.127676 0.438388 -0.372631
H360  H     H_    0.378912 0.147018 0.466814 0.227242
H361  H     H_    0.333030 0.150257 0.418453 0.274458
C332  C     C_3   0.332467 0.094659 0.476317 -0.974433
H362  H     H_    0.307457 0.077981 0.449340 0.260414
H363  H     H_    0.316017 0.111694 0.513751 0.286646
H364  H     H_    0.355103 0.069857 0.494537 0.274007
O105  O     O_3   0.920274 0.338719 0.672246 -0.582837
C333  C     C_3   0.912259 0.363870 0.620290 0.191991
H365  H     H_    0.940778 0.359843 0.590286 0.154674
H366  H     H_    0.909531 0.399254 0.629861 0.145380
C334  C     C_3   0.871407 0.350098 0.586601 -0.424491
H367  H     H_    0.875364 0.316094 0.570535 0.241975
H368  H     H_    0.842672 0.352008 0.616267 0.201686
C335  C     C_3   0.862647 0.380897 0.534916 -1.011189
H369  H     H_    0.857380 0.414671 0.551435 0.272451
H370  H     H_    0.832754 0.370613 0.511715 0.256633
H371  H     H_    0.890432 0.380822 0.503279 0.266119
O106  O     O_3   0.093422 0.644689 0.346285 -0.581321
C336  C     C_3   0.059083 0.675705 0.346790 0.192200
H372  H     H_    0.034239 0.667174 0.313145 0.139827
H373  H     H_    0.070669 0.709167 0.336956 0.120202
C337  C     C_3   0.037743 0.677239 0.408116 -0.403320
H374  H     H_    0.062437 0.685967 0.441768 0.221070
H375  H     H_    0.012151 0.702988 0.408530 0.180274
C338  C     C_3   0.017041 0.633812 0.424414 -0.710702
H376  H     H_    0.991899 0.625257 0.391431 0.284406
H377  H     H_    0.001590 0.636317 0.468877 0.204839
H378  H     H_    0.041986 0.607540 0.425627 0.281602
O107  O     O_3   0.367291 0.104564 0.646560 -0.587308
C339  C     C_3   0.395381 0.131564 0.612746 0.134759
H379  H     H_    0.411171 0.158084 0.638902 0.090199
H380  H     H_    0.376178 0.147362 0.577160 0.174132
C340  C     C_3   0.431522 0.103641 0.584966 -0.308473
H381  H     H_    0.449817 0.086975 0.620680 0.227253
H382  H     H_    0.417196 0.078389 0.555855 0.233221
C341  C     C_3   0.463420 0.131110 0.549067 -1.018423
H383  H     H_    0.446363 0.149219 0.513506 0.268415
H384  H     H_    0.488349 0.109488 0.528345 0.272208
H385  H     H_    0.480068 0.154770 0.578432 0.262134
O108  O     O_3   0.626929 0.894227 0.358347 -0.599706
C342  C     C_3   0.665901 0.917152 0.368981 0.136599
H386  H     H_    0.681847 0.928291 0.326970 0.120574
H387  H     H_    0.688905 0.895753 0.393312 0.150557
C343  C     C_3   0.656358 0.957545 0.406531 -0.325469
H388  H     H_    0.629703 0.976768 0.386047 0.265560
H389  H     H_    0.645595 0.947437 0.451499 0.210713
C344  C     C_3   0.696730 0.986152 0.411025 -0.963455
H390  H     H_    0.725143 0.966650 0.425872 0.269301
H391  H     H_    0.690905 0.012894 0.443336 0.264538
H392  H     H_    0.704447 0.000709 0.367200 0.297362
O109  O     O_3   0.905306 0.644844 0.348608 -0.599074
C345  C     C_3   0.892316 0.610305 0.386500 0.150338
H393  H     H_    0.918427 0.605411 0.419574 0.154353
H394  H     H_    0.889003 0.578779 0.362557 0.108076
C346  C     C_3   0.849828 0.620675 0.419487 -0.375692
H395  H     H_    0.851617 0.653523 0.440072 0.271929
H396  H     H_    0.822885 0.620332 0.387176 0.195870
C347  C     C_3   0.840201 0.586685 0.466996 -0.987933
H397  H     H_    0.836494 0.553995 0.446455 0.261335
H398  H     H_    0.809471 0.595399 0.490328 0.271083
H399  H     H_    0.866887 0.585367 0.499847 0.280054
O110  O     O_3   0.164796 0.427247 0.684058 -0.607494
C348  C     C_3   0.140839 0.424707 0.630185 0.117907
H400  H     H_    0.143249 0.456935 0.607298 0.127910
H401  H     H_    0.105446 0.420485 0.638415 0.153666
C349  C     C_3   0.157913 0.389119 0.587190 -0.372589
H402  H     H_    0.181159 0.403656 0.555046 0.215212
H403  H     H_    0.175770 0.362996 0.610469 0.270835
C350  C     C_3   0.120343 0.367825 0.554087 -0.970557
H404  H     H_    0.098740 0.350537 0.585880 0.268941
H405  H     H_    0.132994 0.343583 0.521739 0.277109
H406  H     H_    0.101062 0.392870 0.530273 0.266933
O111  O     O_3   0.326348 0.937954 0.278823 -0.604470
C351  C     C_3   0.329271 0.941670 0.341374 0.183538
H407  H     H_    0.344786 0.973507 0.351049 0.177966
H408  H     H_    0.350142 0.916164 0.362465 0.093300
C352  C     C_3   0.284033 0.941578 0.370089 -0.342524
H409  H     H_    0.261910 0.963520 0.345073 0.238894
H410  H     H_    0.270654 0.908065 0.369049 0.262018
C353  C     C_3   0.285856 0.956839 0.434478 -1.024345
H411  H     H_    0.308670 0.936060 0.460064 0.265100
H412  H     H_    0.253021 0.954659 0.454957 0.278607
H413  H     H_    0.296776 0.991255 0.436762 0.272195
O112  O     O_3   0.661566 0.082743 0.674316 -0.640263
C354  C     C_3   0.680858 0.048403 0.707331 0.171624
H414  H     H_    0.675739 0.017875 0.682407 0.189330
H415  H     H_    0.664855 0.043249 0.751191 0.148461
C355  C     C_3   0.729972 0.054504 0.715070 -0.422644
H416  H     H_    0.747425 0.041063 0.675790 0.204381
H417  H     H_    0.737946 0.089504 0.718720 0.279768
C356  C     C_3   0.746010 0.031628 0.770877 -0.986358
H418  H     H_    0.733146 0.048625 0.810874 0.257482
H419  H     H_    0.782041 0.032160 0.772279 0.269485
H420  H     H_    0.734835 0.997308 0.771623 0.288366
O113  O     O_3   0.099070 0.364103 0.357689 -0.602909
C357  C     C_3   0.110336 0.403428 0.387418 0.162408
H421  H     H_    0.088163 0.406863 0.426171 0.153078
H422  H     H_    0.104565 0.432750 0.359849 0.124805
C358  C     C_3   0.157518 0.403944 0.409570 -0.402897
H423  H     H_    0.162900 0.376022 0.439623 0.240086
H424  H     H_    0.180610 0.401030 0.371705 0.196465
C359  C     C_3   0.167392 0.446466 0.441951 -0.981805
H425  H     H_    0.164580 0.474482 0.411040 0.264361
H426  H     H_    0.201082 0.445316 0.459258 0.266494
H427  H     H_    0.144486 0.451520 0.479619 0.265620
O114  O     O_3   0.870568 0.611938 0.646211 -0.617715
C360  C     C_3   0.903076 0.635292 0.615017 0.128509
H428  H     H_    0.920955 0.611385 0.586785 0.166974
H429  H     H_    0.927755 0.650413 0.644580 0.134662
C361  C     C_3   0.882976 0.670352 0.575112 -0.341026
H430  H     H_    0.854759 0.656750 0.551096 0.265193
H431  H     H_    0.871283 0.698000 0.602706 0.259434
C362  C     C_3   0.916008 0.687683 0.530417 -0.984467
H432  H     H_    0.944317 0.701851 0.553727 0.264767
H433  H     H_    0.900615 0.713443 0.502982 0.288379
H434  H     H_    0.927394 0.661060 0.500691 0.270868
O115  O     O_3   0.660307 0.079581 0.326757 -0.586754
C363  C     C_3   0.634243 0.086872 0.378439 0.184052
H435  H     H_    0.633981 0.056455 0.404791 0.161256
H436  H     H_    0.599695 0.094213 0.368281 0.137621
C364  C     C_3   0.651178 0.123832 0.417178 -0.415079
H437  H     H_    0.684835 0.116151 0.431297 0.242867
H438  H     H_    0.651030 0.154443 0.391290 0.200157
C365  C     C_3   0.621692 0.130962 0.471044 -1.016919
H439  H     H_    0.587772 0.137627 0.456918 0.272274
H440  H     H_    0.633093 0.159659 0.496303 0.255175
H441  H     H_    0.622043 0.101793 0.500123 0.273505
O116  O     O_3   0.351870 0.908444 0.656679 -0.611045
C366  C     C_3   0.321807 0.941504 0.674345 0.184797
H442  H     H_    0.340335 0.972367 0.682851 0.185174
H443  H     H_    0.302566 0.933765 0.716136 0.083223
C367  C     C_3   0.289901 0.950438 0.623162 -0.338497
H444  H     H_    0.308461 0.958317 0.581563 0.227959
H445  H     H_    0.270001 0.920660 0.615109 0.239200
C368  C     C_3   0.259560 0.988677 0.637549 -0.985164
H446  H     H_    0.241706 0.982718 0.680103 0.263483
H447  H     H_    0.235309 0.992640 0.601148 0.272221
H448  H     H_    0.278717 0.019416 0.641346 0.278746
O117  O     O_3   0.622961 0.239122 0.237359 -0.582661
C369  C     C_3   0.616959 0.258856 0.293402 0.119931
H449  H     H_    0.649032 0.267599 0.312177 0.128353
H450  H     H_    0.599447 0.237069 0.325055 0.122107
C370  C     C_3   0.589954 0.300367 0.285893 -0.319338
H451  H     H_    0.605234 0.321391 0.251748 0.220207
H452  H     H_    0.556855 0.291641 0.270570 0.222341
C371  C     C_3   0.586356 0.325784 0.343908 -1.009678
H453  H     H_    0.570922 0.305439 0.378754 0.268424
H454  H     H_    0.566085 0.355402 0.337126 0.269224
H455  H     H_    0.619085 0.336007 0.358874 0.262459
O118  O     O_3   0.344322 0.794895 0.846128 -0.531174
C372  C     C_3   0.312822 0.814270 0.883385 0.201735
H456  H     H_    0.279760 0.806414 0.867332 0.096458
H457  H     H_    0.316050 0.850478 0.885360 0.067285
C373  C     C_3   0.318351 0.796827 0.946292 -0.415293
H458  H     H_    0.347445 0.811863 0.966476 0.212550
H459  H     H_    0.289641 0.806980 0.972610 0.169017
C374  C     C_3   0.323050 0.747117 0.949040 -0.705263
H460  H     H_    0.295431 0.730812 0.927221 0.279978
H461  H     H_    0.324208 0.736504 0.995990 0.220484
H462  H     H_    0.353534 0.736166 0.927020 0.286832
O119  O     O_3   0.229299 0.365786 0.190621 -0.562866
C375  C     C_3   0.263470 0.383807 0.224231 0.101403
H463  H     H_    0.294341 0.377043 0.200021 0.149002
H464  H     H_    0.267036 0.368350 0.268429 0.102366
C376  C     C_3   0.258143 0.433356 0.230279 -0.349732
H465  H     H_    0.258049 0.448211 0.185432 0.239881
H466  H     H_    0.226802 0.441283 0.252716 0.216673
C377  C     C_3   0.295054 0.453016 0.266153 -0.986821
H467  H     H_    0.295169 0.439310 0.311711 0.262980
H468  H     H_    0.290508 0.488903 0.269182 0.267176
H469  H     H_    0.326857 0.446105 0.244358 0.266195
O120  O     O_3   0.841635 0.699396 0.858795 -0.553168
C378  C     C_3   0.875599 0.730288 0.860797 0.162560
H470  H     H_    0.862333 0.762853 0.848738 0.115544
H471  H     H_    0.903353 0.723054 0.829994 0.056234
C379  C     C_3   0.894121 0.732063 0.923400 -0.326135
H472  H     H_    0.907980 0.699682 0.934887 0.234152
H473  H     H_    0.920862 0.756236 0.924654 0.160042
C380  C     C_3   0.859641 0.744909 0.969168 -0.835009
H474  H     H_    0.874181 0.745007 0.013878 0.227640
H475  H     H_    0.832217 0.721536 0.969089 0.300275
H476  H     H_    0.847343 0.778138 0.959714 0.248055
O121  O     O_3   0.367606 0.766698 0.217999 -0.584128
C381  C     C_3   0.377096 0.746857 0.272774 0.120544
H477  H     H_    0.346195 0.737924 0.295114 0.138515
H478  H     H_    0.396320 0.768526 0.302443 0.122751
C382  C     C_3   0.403681 0.705470 0.261548 -0.315329
H479  H     H_    0.386307 0.684258 0.229788 0.219842
H480  H     H_    0.435589 0.714283 0.241658 0.225426
C383  C     C_3   0.411142 0.680313 0.318882 -1.003899
H481  H     H_    0.428951 0.700770 0.351215 0.267851
H482  H     H_    0.430744 0.650578 0.309351 0.268990
H483  H     H_    0.379556 0.670335 0.338616 0.265072
O122  O     O_3   0.665862 0.194305 0.862078 -0.559807
C384  C     C_3   0.676865 0.166639 0.909698 0.190652
H484  H     H_    0.711963 0.170863 0.919226 0.108093
H485  H     H_    0.671639 0.131226 0.901082 0.088264
C385  C     C_3   0.650259 0.180054 0.964455 -0.385745
H486  H     H_    0.615999 0.170068 0.958380 0.228825
H487  H     H_    0.662910 0.162632 0.003903 0.153295
C386  C     C_3   0.651495 0.229311 0.975445 -0.741683
H488  H     H_    0.685476 0.240270 0.981673 0.249191
H489  H     H_    0.632275 0.237589 0.015672 0.222890
H490  H     H_    0.636884 0.247336 0.937818 0.295077
O123  O     O_3   0.780378 0.636336 0.175730 -0.553295
C387  C     C_3   0.758171 0.599513 0.197713 0.118288
H491  H     H_    0.735851 0.609925 0.234103 0.117093
H492  H     H_    0.780588 0.573781 0.215010 0.114939
C388  C     C_3   0.732045 0.579249 0.147485 -0.287484
H493  H     H_    0.711566 0.604568 0.126093 0.230361
H494  H     H_    0.754842 0.565956 0.113454 0.227824
C389  C     C_3   0.703034 0.542671 0.170215 -1.022611
H495  H     H_    0.722882 0.517356 0.192690 0.256717
H496  H     H_    0.685849 0.527386 0.132462 0.273152
H497  H     H_    0.678485 0.555835 0.201938 0.272933
O124  O     O_3   0.132717 0.268328 0.795050 -0.566885
C390  C     C_3   0.117379 0.240292 0.749692 0.154634
H498  H     H_    0.142442 0.214463 0.740672 0.103960
H499  H     H_    0.110740 0.257085 0.706499 0.052928
C391  C     C_3   0.075023 0.218539 0.770625 -0.317976
H500  H     H_    0.049626 0.244293 0.778094 0.247901
H501  H     H_    0.063484 0.196062 0.735192 0.159229
C392  C     C_3   0.081050 0.192340 0.828045 -0.804005
H502  H     H_    0.105706 0.165864 0.821143 0.231375
H503  H     H_    0.049661 0.177166 0.841399 0.230469
H504  H     H_    0.091572 0.214135 0.864789 0.287121
O125  O     O_3   0.345180 0.209066 0.844838 -0.564721
C393  C     C_3   0.371324 0.245408 0.831553 0.121845
H505  H     H_    0.356008 0.265272 0.796049 0.104254
H506  H     H_    0.404588 0.235114 0.817082 0.129905
C394  C     C_3   0.375332 0.273452 0.887235 -0.313352
H507  H     H_    0.342378 0.283709 0.902597 0.221025
H508  H     H_    0.390751 0.253935 0.922999 0.230848
C395  C     C_3   0.402734 0.313901 0.875478 -1.002147
H509  H     H_    0.436114 0.304309 0.861168 0.271943
H510  H     H_    0.405051 0.333533 0.916712 0.269879
H511  H     H_    0.387500 0.334315 0.840522 0.258449
O126  O     O_3   0.685539 0.816764 0.153802 -0.568636
C396  C     C_3   0.690263 0.850405 0.111215 0.187748
H512  H     H_    0.725425 0.853897 0.101326 0.107188
H513  H     H_    0.679342 0.883294 0.126376 0.079056
C397  C     C_3   0.667167 0.838302 0.053372 -0.381610
H514  H     H_    0.631884 0.844641 0.057790 0.241913
H515  H     H_    0.678968 0.859786 0.017248 0.146865
C398  C     C_3   0.674456 0.790588 0.035631 -0.729139
H516  H     H_    0.709524 0.783812 0.028673 0.251297
H517  H     H_    0.656970 0.783330 0.994037 0.221084
H518  H     H_    0.661545 0.768311 0.070002 0.313279
O127  O     O_3   0.763770 0.372136 0.778788 -0.579938
C399  C     C_3   0.739817 0.377647 0.726174 0.118636
H519  H     H_    0.732431 0.345325 0.706454 0.120685
H520  H     H_    0.757794 0.397815 0.693075 0.125876
C400  C     C_3   0.697020 0.400744 0.741154 -0.303561
H521  H     H_    0.679624 0.382391 0.776352 0.235122
H522  H     H_    0.703931 0.433970 0.758284 0.226558
C401  C     C_3   0.667909 0.404335 0.686885 -1.011032
H523  H     H_    0.684478 0.423048 0.651313 0.270629
H524  H     H_    0.637267 0.421498 0.699175 0.272824
H525  H     H_    0.659725 0.371383 0.669972 0.260690
O128  O     O_3   0.181910 0.679139 0.136504 -0.565892
C402  C     C_3   0.149378 0.690431 0.094846 0.175388
H526  H     H_    0.154631 0.724766 0.081330 0.106879
H527  H     H_    0.115396 0.689091 0.112424 0.067702
C403  C     C_3   0.152863 0.661629 0.039171 -0.351251
H528  H     H_    0.135510 0.630543 0.046357 0.236657
H529  H     H_    0.136222 0.678217 0.001895 0.147044
C404  C     C_3   0.199881 0.651665 0.021163 -0.756894
H530  H     H_    0.217653 0.682357 0.012244 0.249868
H531  H     H_    0.200264 0.630878 0.980841 0.202226
H532  H     H_    0.216901 0.633411 0.056503 0.286159
O129  O     O_3   0.637758 0.766810 0.782076 -0.590442
C405  C     C_3   0.634700 0.741464 0.730012 0.114119
H533  H     H_    0.667605 0.735585 0.710875 0.112881
H534  H     H_    0.613763 0.757599 0.696189 0.123313
C406  C     C_3   0.614593 0.697557 0.745773 -0.321968
H535  H     H_    0.632410 0.682824 0.783485 0.229954
H536  H     H_    0.580208 0.702639 0.759728 0.221951
C407  C     C_3   0.616272 0.666179 0.693246 -1.007262
H537  H     H_    0.598347 0.680097 0.655056 0.269274
H538  H     H_    0.601006 0.634824 0.705941 0.271207
H539  H     H_    0.650529 0.659681 0.679881 0.256790
O130  O     O_3   0.286211 0.153456 0.172914 -0.556570
C408  C     C_3   0.249361 0.132290 0.197076 0.145234
H540  H     H_    0.221365 0.155385 0.196070 0.127222
H541  H     H_    0.252958 0.121696 0.244183 0.036989
C409  C     C_3   0.238760 0.092036 0.159785 -0.328268
H542  H     H_    0.266970 0.069186 0.160069 0.245051
H543  H     H_    0.210480 0.075065 0.179940 0.160784
C410  C     C_3   0.227896 0.103944 0.095800 -0.811649
H544  H     H_    0.198956 0.125744 0.094656 0.245071
H545  H     H_    0.220563 0.073829 0.070441 0.231888
H546  H     H_    0.255771 0.120487 0.074049 0.284847
O131  O     O_3   0.238196 0.622656 0.765568 -0.582896
C411  C     C_3   0.259064 0.612683 0.711200 0.119334
H547  H     H_    0.271433 0.643240 0.691068 0.123230
H548  H     H_    0.237011 0.596245 0.679022 0.125037
C412  C     C_3   0.297298 0.581987 0.722838 -0.304139
H549  H     H_    0.319058 0.596708 0.756333 0.229733
H550  H     H_    0.284899 0.550627 0.740738 0.228281
C413  C     C_3   0.323240 0.573074 0.666173 -1.014915
H551  H     H_    0.302132 0.558079 0.632045 0.268271
H552  H     H_    0.350452 0.550288 0.675898 0.272112
H553  H     H_    0.336917 0.603905 0.648467 0.264518
O132  O     O_3   0.805492 0.331635 0.144932 -0.553092
C414  C     C_3   0.834974 0.316702 0.100753 0.177172
H554  H     H_    0.825518 0.283071 0.088203 0.115213
H555  H     H_    0.869608 0.314766 0.115154 0.051573
C415  C     C_3   0.832263 0.345677 0.045552 -0.364683
H556  H     H_    0.848682 0.377145 0.053906 0.244381
H557  H     H_    0.849936 0.329473 0.008432 0.146620
C416  C     C_3   0.785381 0.354633 0.026957 -0.761800
H558  H     H_    0.768080 0.323546 0.018832 0.252492
H559  H     H_    0.785199 0.374400 0.985815 0.212581
H560  H     H_    0.767862 0.373401 0.061782 0.282402
O133  O     O_3   0.130357 0.728926 0.698648 -0.553046
C417  C     C_3   0.118043 0.752893 0.749555 0.122950
H561  H     H_    0.147225 0.760333 0.776635 0.130651
H562  H     H_    0.093966 0.734618 0.777181 0.112096
C418  C     C_3   0.097152 0.795888 0.730145 -0.290467
H563  H     H_    0.119139 0.812633 0.698250 0.238666
H564  H     H_    0.065875 0.789067 0.707342 0.222343
C419  C     C_3   0.088553 0.825840 0.783057 -1.003316
H565  H     H_    0.066113 0.809880 0.815126 0.266132
H566  H     H_    0.073363 0.856751 0.767519 0.272787
H567  H     H_    0.119589 0.833708 0.805709 0.267287
O134  O     O_3   0.834479 0.299073 0.350962 -0.573051
C420  C     C_3   0.847100 0.318422 0.404987 0.176664
H568  H     H_    0.817952 0.320530 0.434070 0.119285
H569  H     H_    0.858531 0.352605 0.401109 0.116369
C421  C     C_3   0.881292 0.289401 0.435007 -0.305302
H570  H     H_    0.906543 0.279903 0.402462 0.252430
H571  H     H_    0.897421 0.307705 0.470898 0.179153
C422  C     C_3   0.862022 0.247625 0.460364 -0.861301
H572  H     H_    0.834878 0.255213 0.491324 0.237724
H573  H     H_    0.887480 0.229499 0.484978 0.245030
H574  H     H_    0.850189 0.226406 0.424050 0.308200
O135  O     O_3   0.738908 0.879893 0.721191 -0.586979
C423  C     C_3   0.760024 0.895035 0.772431 0.097608
H575  H     H_    0.772490 0.866771 0.798075 0.130544
H576  H     H_    0.738081 0.915295 0.801049 0.123159
C424  C     C_3   0.798739 0.922812 0.753488 -0.322877
H577  H     H_    0.820651 0.903504 0.724228 0.229773
H578  H     H_    0.787162 0.951226 0.727503 0.228587
C425  C     C_3   0.824284 0.938693 0.806971 -0.996983
H579  H     H_    0.803068 0.958540 0.836673 0.269139
H580  H     H_    0.851807 0.959158 0.791749 0.268279
H581  H     H_    0.837491 0.910492 0.832055 0.270730
O136  O     O_3   0.356087 0.212449 0.348730 -0.570735
C426  C     C_3   0.395026 0.236679 0.343857 0.171386
H582  H     H_    0.386300 0.271077 0.333852 0.110536
H583  H     H_    0.417461 0.225595 0.307636 0.076188
C427  C     C_3   0.419951 0.235269 0.402465 -0.328475
H584  H     H_    0.430608 0.201403 0.411952 0.247768
H585  H     H_    0.449605 0.255565 0.398147 0.162789
C428  C     C_3   0.392794 0.252198 0.454618 -0.835105
H586  H     H_    0.383765 0.286771 0.447271 0.253086
H587  H     H_    0.412079 0.250011 0.495938 0.228473
H588  H     H_    0.362872 0.232549 0.460452 0.291758
O137  O     O_3   0.875138 0.268109 0.712836 -0.560287
C429  C     C_3   0.897157 0.251835 0.763113 0.117879
H589  H     H_    0.873406 0.234765 0.792115 0.121048
H590  H     H_    0.913282 0.277766 0.789921 0.108248
C430  C     C_3   0.932523 0.219906 0.742630 -0.293379
H591  H     H_    0.918398 0.195321 0.712356 0.216507
H592  H     H_    0.957966 0.237976 0.717694 0.234191
C431  C     C_3   0.953448 0.196637 0.795034 -1.023758
H593  H     H_    0.968935 0.220617 0.825133 0.273570
H594  H     H_    0.978798 0.173629 0.778498 0.270754
H595  H     H_    0.928623 0.177873 0.820114 0.264132
O138  O     O_3   0.152331 0.709641 0.343837 -0.546513
C432  C     C_3   0.182548 0.692202 0.383862 0.188950
H596  H     H_    0.216013 0.699147 0.368094 0.088411
H597  H     H_    0.179246 0.656192 0.389065 0.094072
C433  C     C_3   0.175255 0.712984 0.444780 -0.415696
H598  H     H_    0.146353 0.698122 0.465922 0.225368
H599  H     H_    0.204148 0.705764 0.471953 0.159369
C434  C     C_3   0.167643 0.762293 0.443047 -0.683896
H600  H     H_    0.191620 0.778713 0.414135 0.296402
H601  H     H_    0.170258 0.775853 0.488536 0.221043
H602  H     H_    0.134547 0.769533 0.426364 0.267579
O139  O     O_3   0.294185 0.156139 0.653266 -0.568837
C435  C     C_3   0.256536 0.132144 0.667344 0.119081
H603  H     H_    0.237667 0.148770 0.703211 0.109280
H604  H     H_    0.265086 0.098409 0.681794 0.127470
C436  C     C_3   0.228160 0.129094 0.612187 -0.317159
H605  H     H_    0.221248 0.162364 0.595091 0.228010
H606  H     H_    0.245884 0.110554 0.577132 0.229596
C437  C     C_3   0.185287 0.106349 0.625803 -1.006603
H607  H     H_    0.191453 0.072703 0.641999 0.275634
H608  H     H_    0.165467 0.104522 0.584953 0.267882
H609  H     H_    0.166635 0.124888 0.659937 0.258028
O140  O     O_3   0.660400 0.809774 0.367915 -0.562032
C438  C     C_3   0.625942 0.780032 0.376906 0.133644
H610  H     H_    0.637820 0.753795 0.406521 0.152232
H611  H     H_    0.615488 0.763474 0.335402 0.048216
C439  C     C_3   0.586544 0.801846 0.407021 -0.364874
H612  H     H_    0.572540 0.827229 0.377702 0.227485
H613  H     H_    0.561048 0.776860 0.414192 0.161321
C440  C     C_3   0.598069 0.821985 0.466830 -0.769316
H614  H     H_    0.609831 0.796384 0.497624 0.227842
H615  H     H_    0.568699 0.837598 0.486574 0.225595
H616  H     H_    0.623517 0.847210 0.461534 0.294848
O141  O     O_3   0.852344 0.715272 0.336508 -0.560813
C441  C     C_3   0.869656 0.752297 0.307682 0.114244
H617  H     H_    0.862934 0.780904 0.336629 0.164841
H618  H     H_    0.853480 0.759222 0.264714 0.095314
C442  C     C_3   0.919075 0.748185 0.299183 -0.348288
H619  H     H_    0.934529 0.740833 0.342449 0.247483
H620  H     H_    0.926701 0.721130 0.267936 0.212300
C443  C     C_3   0.938216 0.790113 0.274207 -0.998846
H621  H     H_    0.923414 0.797803 0.230661 0.265212
H622  H     H_    0.973816 0.785980 0.267916 0.268202
H623  H     H_    0.932296 0.817683 0.305266 0.268648
O142  O     O_3   0.231526 0.369441 0.698214 -0.560003
C444  C     C_3   0.261060 0.384791 0.741385 0.150122
H624  H     H_    0.291734 0.365560 0.737167 0.126515
H625  H     H_    0.249754 0.380921 0.788284 0.034144
C445  C     C_3   0.271124 0.432978 0.730488 -0.343361
H626  H     H_    0.241026 0.452757 0.736874 0.246687
H627  H     H_    0.295398 0.444020 0.763554 0.156064
C446  C     C_3   0.289324 0.440750 0.668136 -0.760940
H628  H     H_    0.319158 0.420774 0.660679 0.236973
H629  H     H_    0.297766 0.475696 0.663008 0.230987
H630  H     H_    0.264729 0.432312 0.634121 0.289653
O143  O     O_3   0.260760 0.880283 0.263100 -0.585141
C447  C     C_3   0.239996 0.888910 0.208853 0.128982
H631  H     H_    0.229548 0.857733 0.188644 0.118845
H632  H     H_    0.261538 0.906728 0.177206 0.125659
C448  C     C_3   0.199791 0.917039 0.221080 -0.314656
H633  H     H_    0.178986 0.900896 0.254860 0.226541
H634  H     H_    0.210073 0.949120 0.239009 0.222392
C449  C     C_3   0.173328 0.924264 0.164975 -1.008597
H635  H     H_    0.193584 0.939978 0.130229 0.272213
H636  H     H_    0.145129 0.945830 0.175148 0.269259
H637  H     H_    0.160936 0.892704 0.148046 0.258049
O144  O     O_3   0.702089 0.167286 0.656325 -0.584730
C450  C     C_3   0.683703 0.154696 0.601742 0.169787
H638  H     H_    0.680728 0.184289 0.573792 0.112126
H639  H     H_    0.650070 0.141869 0.604843 0.119907
C451  C     C_3   0.714212 0.122041 0.570576 -0.300900
H640  H     H_    0.723061 0.095364 0.601279 0.247045
H641  H     H_    0.697438 0.107013 0.532538 0.180526
C452  C     C_3   0.755895 0.143588 0.548524 -0.852163
H642  H     H_    0.748310 0.168748 0.514962 0.229875
H643  H     H_    0.777484 0.118647 0.527846 0.244442
H644  H     H_    0.773428 0.159130 0.585756 0.323337
O145  O     O_3   0.147061 0.289404 0.345348 -0.557921
C453  C     C_3   0.123784 0.256235 0.316260 0.124207
H645  H     H_    0.143422 0.242351 0.279089 0.104702
H646  H     H_    0.092378 0.269045 0.298810 0.118270
C454  C     C_3   0.114107 0.219831 0.360387 -0.314128
H647  H     H_    0.145146 0.207083 0.378562 0.229240
H648  H     H_    0.094167 0.233074 0.397640 0.230532
C455  C     C_3   0.089688 0.182479 0.331064 -1.010720
H649  H     H_    0.058140 0.194290 0.313324 0.265882
H650  H     H_    0.083214 0.156618 0.364279 0.271988
H651  H     H_    0.109461 0.168243 0.294369 0.259441
O146  O     O_3   0.801610 0.668940 0.654628 -0.572449
C456  C     C_3   0.760478 0.649629 0.664118 0.152333
H652  H     H_    0.737425 0.674389 0.682252 0.102557
H653  H     H_    0.761515 0.621481 0.695477 0.064417
C457  C     C_3   0.743085 0.632308 0.605379 -0.342099
H654  H     H_    0.766575 0.608260 0.586557 0.228415
H655  H     H_    0.711844 0.615294 0.613682 0.167285
C458  C     C_3   0.735440 0.668678 0.560554 -0.843478
H656  H     H_    0.711248 0.692449 0.578153 0.233811
H657  H     H_    0.722547 0.654507 0.519093 0.239414
H658  H     H_    0.766331 0.685610 0.549995 0.287938
O147  O     O_3   0.730277 0.126759 0.288111 -0.548166
C459  C     C_3   0.751099 0.116829 0.233777 0.107570
H659  H     H_    0.755177 0.146755 0.206562 0.118799
H660  H     H_    0.732172 0.092303 0.208284 0.115733
C460  C     C_3   0.796096 0.097943 0.246495 -0.287335
H661  H     H_    0.814368 0.121040 0.274803 0.241654
H662  H     H_    0.792633 0.066739 0.270984 0.224618
C461  C     C_3   0.821698 0.089782 0.189357 -1.019169
H663  H     H_    0.804446 0.065961 0.160960 0.268114
H664  H     H_    0.854292 0.076380 0.200177 0.273513
H665  H     H_    0.825998 0.120709 0.164525 0.263434
O148  O     O_3   0.306525 0.831483 0.642234 -0.551751
C462  C     C_3   0.335046 0.823512 0.593842 0.180812
H666  H     H_    0.332940 0.788558 0.581600 0.106685
H667  H     H_    0.369984 0.830041 0.603160 0.079172
C463  C     C_3   0.321255 0.851228 0.540619 -0.360877
H668  H     H_    0.328747 0.885863 0.549584 0.235912
H669  H     H_    0.340657 0.841396 0.501059 0.153664
C464  C     C_3   0.272803 0.847087 0.526654 -0.791392
H670  H     H_    0.265465 0.813838 0.510572 0.240253
H671  H     H_    0.263879 0.870699 0.491559 0.228702
H672  H     H_    0.252214 0.854200 0.566092 0.309112

loop_
_geom_bond_atom_site_label_1
_geom_bond_atom_site_label_2
_ccdc_geom_bond_type
C225  H114  S    
O23   Zn10  S    
C432  H596  S    
C49   C80   S    
C178  C179  S    
C362  H433  S    
C259  C260  S    
C444  H625  S    
C226  H115  S    
O79   C255  S    
C77   C78   T    
O119  C375  S    
C34   C161  A    
C241  H150  S    
C202  C203  S    
C321  C322  S    
O28   Zn13  S    
C450  C451  S    
C304  H297  S    
O16   Zn5   S    
C400  H522  S    
O61   C201  S    
C229  H122  S    
C159  C162  S    
C436  H606  S    
C303  C304  S    
C187  H24   S    
C61   O51   A    
C151  C170  S    
C305  H300  S    
C9    C67   S    
C345  H393  S    
C371  H455  S    
C105  O109  S    
O4    Zn4   S    
C327  H351  S    
C364  H438  S    
C131  O135  S    
O2    Zn15  S    
C385  H487  S    
C51   O7    A    
C378  H471  S    
C358  H424  S    
C92   O96   S    
C5    C107  A    
O104  C330  S    
C322  H340  S    
C343  H389  S    
C370  H452  S    
C222  H107  S    
C398  H517  S    
O80   C258  S    
C405  H534  S    
C316  H325  S    
C185  H21   S    
C459  C460  S    
C369  H449  S    
C324  C325  S    
O146  C456  S    
C115  C147  A    
C93   O97   S    
C185  H19   S    
O81   C261  S    
C256  C257  S    
C333  H366  S    
C336  H373  S    
C224  H110  S    
C428  H587  S    
C439  H612  S    
O134  C420  S    
C111  O115  S    
C223  C224  S    
C272  H223  S    
C443  H623  S    
C55   C74   S    
C193  C194  S    
C134  O138  S    
O38   Zn7   S    
C264  C265  S    
C372  H457  S    
C305  H301  S    
C122  O126  S    
O94   C300  S    
C306  C307  S    
C403  H529  S    
C269  H215  S    
O7    Zn14  S    
C402  C403  S    
C457  C458  S    
C47   C176  A    
C251  H173  S    
C48   C175  A    
C311  H313  S    
C405  C406  S    
C282  H247  S    
C64   O28   A    
C374  H460  S    
C384  H484  S    
C50   C79   S    
C292  C293  S    
C293  H272  S    
C244  H158  S    
O43   Zn6   S    
O33   Zn15  S    
C453  H646  S    
C15   C97   A    
C287  H259  S    
C30   O66   S    
C262  C263  S    
O2    Zn11  S    
C418  C419  S    
C457  H655  S    
O137  C429  S    
C317  H328  S    
C332  H363  S    
O54   C180  S    
O51   Zn5   S    
C348  C349  S    
C247  H165  S    
C403  C404  S    
C120  C152  A    
O113  C357  S    
C302  H292  S    
C433  C434  S    
C129  O133  S    
C182  H12   S    
C294  C295  S    
C203  H61   S    
C100  O104  S    
C288  C289  S    
C386  H489  S    
C273  H225  S    
C443  H621  S    
C388  C389  S    
C103  O107  S    
C434  H601  S    
C415  C416  S    
C108  O112  S    
C340  C341  S    
C192  H36   S    
C408  H541  S    
C273  C274  S    
C207  C208  S    
C427  C428  S    
C29   O65   S    
O106  C336  S    
C261  C262  S    
C55   O15   A    
C355  H417  S    
C75   C76   T    
C232  H130  S    
C319  H332  S    
C237  H142  S    
C142  C148  A    
C224  H112  S    
C243  H156  S    
C342  H386  S    
C4    C84   A    
C291  C292  S    
C9    C103  A    
C368  H448  S    
C37   O73   S    
C199  C200  S    
C275  H230  S    
O76   C246  S    
C285  C286  S    
C328  C329  S    
C350  H405  S    
O114  C360  S    
C204  C205  S    
C415  H557  S    
C290  H265  S    
C367  C368  S    
C114  C146  A    
C357  H422  S    
C423  C424  S    
C25   O61   S    
O5    Zn12  S    
O3    Zn7   S    
C435  H603  S    
C21   C28   A    
C323  H342  S    
C432  C433  S    
C71   O35   A    
C22   C27   A    
C231  C232  S    
C153  C168  S    
C3    C83   A    
C284  H250  S    
C226  C227  S    
C221  H104  S    
C154  C167  S    
C360  C361  S    
C355  C356  S    
C331  H360  S    
O3    Zn3   S    
C52   C77   S    
C377  H469  S    
C311  H315  S    
C126  O130  S    
C400  H521  S    
C346  C347  S    
C387  H491  S    
C429  H589  S    
C57   O47   A    
C308  H308  S    
C417  H562  S    
C182  H13   S    
O14   Zn3   S    
C377  H468  S    
C56   C73   S    
C89   C121  A    
C197  H49   S    
C57   O21   A    
C201  H57   S    
O73   C237  S    
C188  H28   S    
C327  C328  S    
C113  O117  S    
C52   O8    A    
C392  H502  S    
C106  O110  S    
C289  H262  S    
C460  H662  S    
C357  C358  S    
C215  H90   S    
O1    Zn5   S    
C352  H409  S    
C419  H567  S    
C410  H544  S    
C14   C100  A    
C391  H500  S    
C353  H412  S    
C10   C68   S    
C43   C172  A    
C310  C311  S    
C21   C172  A    
C72   O42   A    
C133  C155  A    
C319  C320  S    
C351  C352  S    
C139  O143  S    
C267  H211  S    
C363  H436  S    
C37   C44   A    
C1    C59   S    
C285  H253  S    
C19   C174  A    
C38   C43   A    
C240  H149  S    
C407  H537  S    
C414  C415  S    
C341  H385  S    
C16   C98   A    
C379  H472  S    
O77   C249  S    
O87   C279  S    
C353  H413  S    
C65   O39   A    
C243  H155  S    
O127  C399  S    
C335  H370  S    
C425  H579  S    
C210  C211  S    
C413  H552  S    
C326  H349  S    
C66   O30   A    
C408  H540  S    
C297  H282  S    
C51   C78   S    
C369  H450  S    
C114  O118  S    
C141  C147  A    
C144  O148  S    
C11   C91   A    
C412  C413  S    
C447  H631  S    
O4    Zn8   S    
C260  H195  S    
C442  H619  S    
C456  C457  S    
C292  H269  S    
C234  H135  S    
C17   C32   A    
O57   C189  S    
C231  H127  S    
C117  C149  A    
C18   C31   A    
C124  O128  S    
C180  H9    S    
C274  H227  S    
C45   C174  A    
C19   C30   A    
C7    C57   S    
C1    C111  A    
C135  C153  A    
O111  C351  S    
C337  H375  S    
C179  H5    S    
C420  H569  S    
C99   O103  S    
C412  H549  S    
C254  H182  S    
C233  H132  S    
O21   Zn16  S    
O69   C225  S    
C54   O18   A    
C192  C193  S    
C4    C62   S    
C97   O101  S    
C220  H101  S    
C265  H206  S    
C102  O106  S    
C294  H274  S    
C201  C202  S    
C203  H63   S    
C89   O93   S    
C299  H287  S    
C409  H542  S    
C390  C391  S    
C140  O144  S    
C464  H672  S    
C391  C392  S    
C411  C412  S    
C276  H232  S    
O132  C414  S    
C206  H70   S    
O135  C423  S    
C330  H359  S    
C95   C127  A    
C404  H530  S    
C279  H239  S    
O15   Zn6   S    
C338  H377  S    
C444  C445  S    
C418  H564  S    
C107  O111  S    
C178  H3    S    
C197  H47   S    
C63   O27   A    
C118  O122  S    
C318  H330  S    
C399  H519  S    
C339  H380  S    
C20   O56   S    
C329  H355  S    
C452  H644  S    
C430  H592  S    
O101  C321  S    
C462  C463  S    
C271  H221  S    
C300  H289  S    
C233  H133  S    
C65   O29   A    
C351  H407  S    
C6    C64   S    
O67   C219  S    
C121  O125  S    
C310  H312  S    
O50   Zn8   S    
C195  H43   S    
C371  H454  S    
C320  H334  S    
C252  H176  S    
C331  C332  S    
C352  C353  S    
C367  H444  S    
C205  H66   S    
O141  C441  S    
C249  H170  S    
C97   C129  A    
C85   O89   S    
O24   Zn9   S    
C435  C436  S    
C398  H516  S    
C83   O87   S    
O66   C216  S    
C316  H326  S    
C459  H660  S    
C374  H462  S    
C131  C157  A    
C323  H343  S    
O72   C234  S    
C280  C281  S    
C102  C134  A    
C322  H339  S    
O17   Zn8   S    
C293  H273  S    
C387  C388  S    
C104  O108  S    
C5    C85   A    
C298  C299  S    
C193  H39   S    
C184  H17   S    
C361  C362  S    
O46   Zn4   S    
C198  H50   S    
C84   C116  A    
C91   C123  A    
O125  C393  S    
C32   C161  A    
C295  H277  S    
C296  H279  S    
C393  C394  S    
C50   O6    A    
C133  O137  S    
C101  C133  A    
O144  C450  S    
C289  C290  S    
C238  H143  S    
C344  H391  S    
C455  H650  S    
C323  H341  S    
C224  H111  S    
C356  H418  S    
O6    Zn11  S    
C324  H344  S    
O9    Zn16  S    
C437  H608  S    
C422  H573  S    
C25   C168  A    
C366  C367  S    
C245  H160  S    
C26   C167  A    
C16   C96   A    
C34   O70   S    
C235  H136  S    
C404  H531  S    
C198  H51   S    
C267  C268  S    
C83   C115  A    
O44   Zn5   S    
C370  C371  S    
O13   Zn4   S    
C51   O11   A    
C239  H145  S    
C219  H100  S    
C287  H258  S    
C427  H584  S    
C378  C379  S    
C430  H591  S    
C414  H554  S    
O2    Zn6   S    
C127  O131  S    
O120  C378  S    
C188  H27   S    
C458  H658  S    
C321  H338  S    
C389  H497  S    
C98   O102  S    
C396  H512  S    
C243  C244  S    
C387  H492  S    
O95   C303  S    
C344  H392  S    
C301  H290  S    
C8    C88   A    
C433  H599  S    
C13   C99   A    
C408  C409  S    
C255  H183  S    
C354  H415  S    
C87   C119  A    
C190  H31   S    
C286  H256  S    
C446  H630  S    
C144  C146  A    
C252  H177  S    
C439  C440  S    
C183  C184  S    
C449  H636  S    
C258  H190  S    
C447  C448  S    
C17   O53   S    
C303  H295  S    
C442  C443  S    
C27   O63   S    
O86   C276  S    
C242  H154  S    
C277  H235  S    
O40   Zn1   S    
C258  C259  S    
C94   C126  A    
C278  H237  S    
C281  H245  S    
C395  H509  S    
C274  C275  S    
C120  O124  S    
C340  H382  S    
C157  C164  S    
C117  O121  S    
O68   C222  S    
C199  H52   S    
C308  H307  S    
C158  C163  S    
C179  H7    S    
C137  O141  S    
C230  H126  S    
C246  C247  S    
C116  O120  S    
C342  H387  S    
C359  H426  S    
C253  H179  S    
C409  C410  S    
C298  H283  S    
C307  H305  S    
C194  H40   S    
O1    Zn12  S    
C236  H140  S    
C365  H439  S    
C70   O34   A    
C314  H322  S    
C49   O5    A    
C210  H78   S    
C384  C385  S    
C204  H65   S    
C270  C271  S    
C283  H249  S    
C390  H498  S    
C50   O10   A    
C211  H80   S    
C278  H236  S    
O11   Zn10  S    
C44   O80   S    
C227  H117  S    
C449  H637  S    
C304  H298  S    
C286  C287  S    
C404  H532  S    
C12   C70   S    
C177  H1    S    
C193  H38   S    
C196  C197  S    
C263  H203  S    
C104  C136  A    
C325  H346  S    
C221  H103  S    
C125  C157  A    
C14   C72   S    
C424  H578  S    
C12   C92   A    
C399  C400  S    
C22   O58   S    
C457  H654  S    
C231  H128  S    
C325  H347  S    
C219  H99   S    
C241  H151  S    
C455  H651  S    
C446  H628  S    
C450  H639  S    
O136  C426  S    
O39   Zn2   S    
C86   O90   S    
O22   Zn15  S    
C206  H68   S    
C409  H543  S    
C123  O127  S    
C356  H419  S    
C187  H25   S    
C215  H91   S    
C6    C86   A    
C195  C196  S    
C241  C242  S    
C320  H336  S    
O131  C411  S    
C283  C284  S    
C327  H352  S    
C213  H85   S    
C253  C254  S    
C389  H496  S    
C260  H194  S    
C358  H423  S    
O140  C438  S    
C336  C337  S    
C385  H486  S    
C130  O134  S    
O129  C405  S    
C225  H113  S    
C255  C256  S    
C349  H403  S    
C88   O92   S    
C435  H604  S    
C455  H649  S    
C324  H345  S    
C14   C94   A    
C7    C105  A    
C208  C209  S    
C185  H20   S    
C351  H408  S    
C378  H470  S    
C66   O40   A    
C406  H535  S    
C437  H607  S    
C392  H504  S    
C439  H613  S    
C310  H311  S    
C322  C323  S    
C105  C137  A    
C54   C75   S    
C38   O74   S    
C196  H45   S    
C49   O9    A    
C445  H626  S    
C187  C188  S    
C42   O78   S    
C451  H640  S    
O128  C402  S    
C454  C455  S    
O75   C243  S    
C446  H629  S    
C279  C280  S    
C393  H505  S    
C282  H246  S    
C199  H53   S    
C52   O12   A    
C262  H199  S    
O53   C177  S    
C53   O13   A    
C240  C241  S    
C247  C248  S    
C107  C139  A    
C338  H378  S    
O147  C459  S    
C138  O142  S    
C362  H434  S    
C317  H329  S    
C184  C185  S    
C223  H109  S    
C366  H442  S    
C56   O16   A    
C39   O75   S    
O112  C354  S    
C393  H506  S    
C140  C150  A    
C292  H270  S    
C329  H357  S    
C53   O17   A    
C73   C74   T    
C395  H510  S    
O99   C315  S    
C29   C164  A    
C239  H147  S    
O18   Zn7   S    
C436  H605  S    
C361  H431  S    
C416  H560  S    
C461  H665  S    
C426  H582  S    
C281  H243  S    
C354  C355  S    
C458  H656  S    
C420  H568  S    
O27   Zn14  S    
C123  C155  A    
O117  C369  S    
C456  H653  S    
C396  C397  S    
C348  H401  S    
C2    C112  A    
C257  H187  S    
C441  H617  S    
C401  H524  S    
O25   Zn12  S    
C186  C187  S    
C301  C302  S    
C403  H528  S    
C456  H652  S    
C397  H514  S    
C294  H275  S    
C452  H642  S    
C203  H62   S    
C413  H553  S    
C382  C383  S    
C359  H427  S    
O41   Zn4   S    
C15   C95   A    
O10   Zn15  S    
C218  H98   S    
C273  H226  S    
C282  C283  S    
C373  C374  S    
C101  O105  S    
O116  C366  S    
C3    C61   S    
C1    C81   A    
C380  H476  S    
C15   C65   S    
C20   C173  A    
C46   O82   S    
C394  C395  S    
C383  H481  S    
O122  C384  S    
C5    C63   S    
C417  C418  S    
C130  C160  A    
C189  H29   S    
C200  H54   S    
C23   C26   A    
C113  C145  A    
C39   C168  A    
C118  C150  A    
C39   C42   A    
O64   C210  S    
C62   O26   A    
C40   C167  A    
C319  H333  S    
O12   Zn9   S    
C441  C442  S    
C202  H60   S    
C410  H546  S    
C56   O20   A    
C334  H368  S    
C134  C156  A    
C280  H241  S    
C299  H286  S    
O102  C324  S    
C266  H210  S    
C318  H331  S    
C286  H255  S    
C68   O32   A    
C19   O55   S    
C326  H348  S    
C307  H304  S    
C24   C25   A    
C346  H395  S    
C318  C319  S    
O133  C417  S    
C96   O100  S    
C88   C120  A    
C434  H600  S    
C68   O38   A    
C41   C170  A    
O98   C312  S    
C22   C171  A    
C227  H119  S    
C58   O22   A    
C438  C439  S    
C152  C169  S    
C460  C461  S    
C191  H34   S    
O60   C198  S    
C31   C162  A    
C266  H208  S    
C432  H597  S    
C230  H124  S    
C87   O91   S    
C259  H192  S    
C222  C223  S    
C281  H244  S    
C226  H116  S    
C463  C464  S    
C246  H163  S    
C2    C60   S    
C331  H361  S    
C30   C163  A    
C181  C182  S    
C208  H73   S    
O74   C240  S    
C346  H396  S    
C229  H123  S    
C416  H558  S    
C400  C401  S    
C429  H590  S    
C416  H559  S    
C238  H144  S    
C202  H59   S    
C180  C181  S    
C250  H172  S    
C214  H88   S    
C147  C174  S    
C290  H264  S    
C189  C190  S    
C305  H299  S    
C306  H302  S    
C333  C334  S    
C383  H482  S    
C436  C437  S    
C388  H493  S    
C364  C365  S    
C82   O86   S    
O90   C288  S    
C443  H622  S    
C36   O72   S    
C358  C359  S    
C9    C89   A    
O139  C435  S    
C116  C148  A    
C189  H30   S    
C58   O48   A    
C413  H551  S    
C339  H379  S    
C388  H494  S    
C391  H501  S    
C13   C71   S    
C345  C346  S    
C138  C152  A    
C405  H533  S    
C264  H204  S    
C139  C149  A    
C385  C386  S    
C40   O76   S    
C220  C221  S    
C268  H213  S    
O19   Zn2   S    
C13   C93   A    
O20   Zn1   S    
C369  C370  S    
C267  H212  S    
C406  C407  S    
C425  H580  S    
C270  H218  S    
C302  H293  S    
C312  H316  S    
C411  H547  S    
C42   C169  A    
O48   Zn2   S    
C414  H555  S    
C96   C128  A    
C136  C154  A    
C363  C364  S    
C379  H473  S    
O143  C447  S    
C245  H161  S    
C431  H595  S    
O58   C192  S    
O55   C183  S    
C386  H490  S    
C146  C175  S    
C290  H266  S    
C205  H67   S    
C333  H365  S    
C46   C173  A    
C376  H465  S    
C86   C118  A    
C293  H271  S    
C345  H394  S    
C368  H446  S    
C26   O62   S    
C297  C298  S    
C228  H120  S    
C237  C238  S    
C461  H663  S    
C192  H37   S    
C28   C165  A    
C109  O113  S    
C251  H174  S    
C375  H463  S    
C242  H153  S    
C255  H184  S    
C375  H464  S    
C314  H321  S    
C406  H536  S    
C381  H478  S    
C384  H485  S    
C431  H594  S    
C223  H108  S    
C244  C245  S    
C428  H588  S    
C53   C76   S    
C21   O57   S    
C453  H645  S    
C317  H327  S    
C38   C165  A    
C213  H86   S    
C424  H577  S    
C307  C308  S    
C36   C163  A    
C330  H358  S    
C303  H296  S    
C299  H285  S    
C232  H129  S    
C379  C380  S    
C179  H6    S    
O92   C294  S    
C277  C278  S    
C332  H364  S    
C234  H134  S    
C254  H181  S    
C4    C110  A    
C247  H164  S    
C23   C170  A    
C8    C58   S    
C249  H169  S    
C69   O43   A    
C355  H416  S    
C397  C398  S    
C308  H306  S    
C445  C446  S    
C217  H94   S    
C390  H499  S    
C343  C344  S    
C8    C106  A    
C421  C422  S    
C211  H81   S    
C218  H96   S    
C11   C69   S    
O2    Zn2   S    
C261  H198  S    
C196  H46   S    
C99   C131  A    
C283  H248  S    
O3    Zn10  S    
C381  C382  S    
C418  H563  S    
C145  C176  S    
C236  H139  S    
C60   O46   A    
C35   C164  A    
C71   O41   A    
C41   O77   S    
C84   O88   S    
C191  H33   S    
C18   O54   S    
O118  C372  S    
C194  H42   S    
C213  C214  S    
C399  H520  S    
C33   C162  A    
C121  C153  A    
C186  H22   S    
O107  C339  S    
C452  H643  S    
C360  H428  S    
C433  H598  S    
C186  H23   S    
O1    Zn1   S    
C200  H56   S    
C462  H667  S    
C271  C272  S    
C251  H175  S    
C300  H288  S    
C160  C161  S    
C209  H76   S    
C156  C165  S    
C3    C109  A    
C314  H320  S    
C142  O146  S    
C445  H627  S    
C10   C104  A    
C313  H318  S    
C381  H477  S    
C288  H261  S    
C291  H268  S    
C423  H576  S    
C341  H384  S    
C279  H240  S    
C315  C316  S    
O32   Zn10  S    
C415  H556  S    
C380  H475  S    
C367  H445  S    
C287  H257  S    
C211  C212  S    
C440  H615  S    
C357  H421  S    
C426  H583  S    
C27   C166  A    
O34   Zn16  S    
C438  H610  S    
C257  H189  S    
C332  H362  S    
C448  C449  S    
C7    C87   A    
C361  H430  S    
C10   C90   A    
C132  O136  S    
C377  H467  S    
C209  H75   S    
C81   C113  A    
C222  H106  S    
C216  H93   S    
C33   C48   A    
C337  C338  S    
C463  H668  S    
C34   C47   A    
C155  C166  S    
C28   O64   S    
C353  H411  S    
C212  H82   S    
C35   C46   A    
C315  H323  S    
C401  H525  S    
C81   O85   S    
C246  H162  S    
C407  H538  S    
C183  H15   S    
C209  H77   S    
C426  C427  S    
C55   O19   A    
O59   C195  S    
C340  H381  S    
O109  C345  S    
C136  O140  S    
O115  C363  S    
C341  H383  S    
C296  H278  S    
O35   Zn13  S    
C198  C199  S    
C285  H254  S    
C364  H437  S    
C284  H252  S    
C263  H201  S    
C448  H633  S    
C228  C229  S    
C215  H89   S    
C259  H193  S    
C64   O50   A    
C272  H222  S    
C309  H309  S    
C275  H231  S    
C63   O49   A    
C402  H527  S    
C72   O36   A    
O93   C297  S    
C335  H369  S    
C43   O79   S    
C276  C277  S    
C366  H443  S    
O85   C273  S    
C248  H166  S    
C380  H474  S    
C182  H14   S    
C235  H137  S    
C206  H69   S    
C242  H152  S    
C32   O68   S    
C368  H447  S    
C441  H618  S    
C417  H561  S    
O138  C432  S    
C239  H146  S    
C214  H87   S    
C180  H8    S    
C312  C313  S    
O100  C318  S    
C126  C158  A    
C47   O83   S    
C212  H84   S    
C201  H58   S    
C458  H657  S    
C100  C132  A    
C60   O24   A    
C440  H614  S    
C386  H488  S    
C429  C430  S    
C143  C145  A    
C462  H666  S    
C349  H402  S    
C450  H638  S    
C110  C142  A    
C250  H171  S    
C449  H635  S    
C326  H350  S    
O47   Zn1   S    
O29   Zn11  S    
C54   O14   A    
C297  H281  S    
C347  H397  S    
C149  C172  S    
C103  C135  A    
C178  H4    S    
C220  H102  S    
C35   O71   S    
C464  H671  S    
C301  H291  S    
O88   C282  S    
C265  H207  S    
O36   Zn14  S    
C33   O69   S    
O63   C207  S    
C419  H566  S    
O78   C252  S    
C298  H284  S    
C411  H548  S    
C219  C220  S    
C90   C122  A    
C304  C305  S    
C197  H48   S    
C244  H157  S    
C258  H191  S    
O4    Zn13  S    
C234  C235  S    
C253  H178  S    
C274  H228  S    
O37   Zn8   S    
C59   O45   A    
C141  O145  S    
C447  H632  S    
C329  H356  S    
C230  H125  S    
O105  C333  S    
C17   C176  A    
C94   O98   S    
C190  H32   S    
C420  C421  S    
C61   O25   A    
C268  C269  S    
C372  C373  S    
C256  H186  S    
C233  H131  S    
C373  H458  S    
C260  H196  S    
C320  H335  S    
C265  C266  S    
C11   C101  A    
C143  O147  S    
C365  H440  S    
C421  H571  S    
C122  C154  A    
C360  H429  S    
C98   C130  A    
C350  H406  S    
C336  H372  S    
C195  H44   S    
C269  H217  S    
C217  C218  S    
C277  H234  S    
C12   C102  A    
C313  H319  S    
O110  C348  S    
C276  H233  S    
C227  H118  S    
C444  H624  S    
C262  H200  S    
C311  H314  S    
C20   C29   A    
C352  H410  S    
C150  C171  S    
C119  C151  A    
C370  H451  S    
C148  C173  S    
C177  H2    S    
C111  C143  A    
C266  H209  S    
C275  H229  S    
O84   C270  S    
C264  H205  S    
O49   Zn7   S    
C407  H539  S    
C48   O84   S    
C398  H518  S    
O126  C396  S    
C82   C114  A    
C240  H148  S    
C181  H11   S    
C339  C340  S    
C248  H167  S    
C430  C431  S    
C59   O23   A    
O26   Zn11  S    
C108  C140  A    
C271  H220  S    
O142  C444  S    
C440  H616  S    
C461  H664  S    
C191  H35   S    
C249  C250  S    
C442  H620  S    
O97   C309  S    
C205  C206  S    
C321  H337  S    
C235  C236  S    
C313  C314  S    
C70   O44   A    
C330  C331  S    
O83   C267  S    
C383  H483  S    
C132  C158  A    
C371  H453  S    
C268  H214  S    
C207  H72   S    
C85   C117  A    
C232  C233  S    
C236  H138  S    
C389  H495  S    
C128  O132  S    
C421  H570  S    
C214  C215  S    
C31   O67   S    
C91   O95   S    
C312  H317  S    
C309  H310  S    
C402  H526  S    
C437  H609  S    
C375  C376  S    
C256  H185  S    
C316  C317  S    
C280  H242  S    
C459  H659  S    
O45   Zn3   S    
C347  H398  S    
C464  H670  S    
C200  H55   S    
C325  C326  S    
C36   C45   A    
C208  H74   S    
C190  C191  S    
C95   O99   S    
C112  C144  A    
O62   C204  S    
O91   C291  S    
C23   O59   S    
C24   C169  A    
C270  H219  S    
C217  H95   S    
O96   C306  S    
O65   C213  S    
O130  C408  S    
O8    Zn13  S    
C427  H585  S    
C365  H441  S    
C356  H420  S    
C40   C41   A    
C422  H574  S    
C93   C125  A    
C90   O94   S    
C343  H388  S    
C372  H456  S    
C451  H641  S    
C225  C226  S    
C124  C156  A    
C295  H276  S    
C296  H280  S    
C44   C171  A    
C67   O37   A    
C382  H479  S    
C69   O33   A    
C342  C343  S    
C460  H661  S    
O121  C381  S    
C349  C350  S    
C127  C159  A    
C129  C159  A    
C272  H224  S    
C67   O31   A    
O82   C264  S    
C128  C160  A    
C309  C310  S    
C306  H303  S    
O89   C285  S    
O145  C453  S    
C334  C335  S    
C338  H376  S    
C184  H18   S    
C181  H10   S    
C119  O123  S    
C245  H159  S    
O70   C228  S    
C248  H168  S    
C6    C108  A    
C302  H294  S    
C334  H367  S    
C347  H399  S    
C412  H550  S    
C92   C124  A    
O56   C186  S    
C221  H105  S    
C112  O116  S    
C434  H602  S    
C183  H16   S    
C359  H425  S    
C115  O119  S    
C315  H324  S    
C188  H26   S    
C109  C141  A    
O123  C387  S    
C229  C230  S    
C37   C166  A    
C431  H593  S    
C284  H251  S    
C263  H202  S    
C396  H513  S    
C451  C452  S    
C228  H121  S    
C348  H400  S    
C257  H188  S    
C237  H141  S    
C335  H371  S    
C24   O60   S    
C269  H216  S    
C250  C251  S    
C337  H374  S    
C374  H461  S    
C254  H180  S    
C397  H515  S    
O124  C390  S    
C344  H390  S    
C424  C425  S    
C194  H41   S    
O71   C231  S    
C382  H480  S    
C328  H353  S    
C376  C377  S    
C288  H260  S    
C18   C175  A    
C62   O52   A    
C422  H572  S    
C218  H97   S    
C410  H545  S    
C448  H634  S    
O52   Zn6   S    
C216  H92   S    
C395  H511  S    
O4    Zn9   S    
C362  H432  S    
C110  O114  S    
C376  H466  S    
C392  H503  S    
C207  H71   S    
C394  H508  S    
C212  H83   S    
C278  H238  S    
C463  H669  S    
C328  H354  S    
C210  H79   S    
C394  H507  S    
C106  C138  A    
C252  C253  S    
C216  C217  S    
O42   Zn3   S    
C238  C239  S    
C289  H263  S    
C2    C82   A    
O148  C462  S    
C419  H565  S    
C79   C80   T    
C425  H581  S    
C454  H648  S    
C300  C301  S    
O1    Zn16  S    
C16   C66   S    
C291  H267  S    
C295  C296  S    
C125  O129  S    
O108  C342  S    
C401  H523  S    
O103  C327  S    
C453  C454  S    
C135  O139  S    
O3    Zn14  S    
C137  C151  A    
O30   Zn12  S    
C350  H404  S    
C204  H64   S    
C454  H647  S    
O31   Zn9   S    
C428  H586  S    
C177  C178  S    
C354  H414  S    
C363  H435  S    
C45   O81   S    
C423  H575  S    
C438  H611  S    
C373  H459  S    
C261  H197  S    
