data_mof_unit_66032.cif
_audit_creation_date              2012-12-11T16:02:01-0500
_audit_creation_method            fapswitch 2.2
_symmetry_space_group_name_H-M    P1
_symmetry_Int_Tables_number       1
_space_group_crystal_system       triclinic
_cell_length_a                    6.969147
_cell_length_b                    20.120279
_cell_length_c                    21.724065
_cell_angle_alpha                 92.804629
_cell_angle_beta                  89.035407
_cell_angle_gamma                 90.634245
_cell_volume                      3041.9340646

loop_
_atom_site_label
_atom_site_type_symbol
_atom_type_description
_atom_site_fract_x
_atom_site_fract_y
_atom_site_fract_z
_atom_type_partial_charge
O1    O     O_R   0.616490 0.310280 0.688420 -0.519265
O2    O     O_R   0.383510 0.689720 0.311580 -0.518179
O3    O     O_R   0.286290 0.319340 0.804930 -0.522730
O4    O     O_R   0.713710 0.680660 0.195070 -0.521743
O5    O     O_R   0.115970 0.195830 0.805340 -0.530745
O6    O     O_R   0.884030 0.804170 0.194660 -0.532614
C1    C     C_R   0.454806 0.337048 0.827647 0.717555
C2    C     C_R   0.545181 0.662900 0.172394 0.721565
O7    O     O_R   0.286780 0.317900 0.688830 -0.520532
O8    O     O_R   0.713220 0.682100 0.311170 -0.519963
O9    O     O_R   0.116460 0.194390 0.688410 -0.519788
O10   O     O_R   0.883540 0.805610 0.311590 -0.519413
C3    C     C_R   0.457598 0.335672 0.666362 0.701006
C4    C     C_R   0.542402 0.664329 0.333639 0.703102
O11   O     O_R   0.616000 0.311730 0.805350 -0.518829
O12   O     O_R   0.384000 0.688270 0.194650 -0.517373
O13   O     O_3   0.449750 0.212530 0.746880 -0.353255
O14   O     O_3   0.550250 0.787470 0.253120 -0.356258
V1    V     V_3+5 0.174900 0.260570 0.746880 1.412693
V2    V     V_3+5 0.825100 0.739430 0.253120 1.407823
O15   O     O_R   0.786740 0.186770 0.688820 -0.522206
O16   O     O_R   0.213260 0.813230 0.311180 -0.522658
C5    C     C_R   0.956117 0.168653 0.666636 0.718098
C6    C     C_R   0.043882 0.831358 0.333353 0.717563
O17   O     O_R   0.786260 0.188210 0.804930 -0.532341
O18   O     O_R   0.213740 0.811790 0.195070 -0.536813
C7    C     C_R   0.953228 0.173216 0.824280 0.744173
C8    C     C_R   0.046945 0.826819 0.175646 0.744786
V3    V     V_3+5 0.674900 0.245540 0.746880 1.415209
V4    V     V_3+5 0.325100 0.754460 0.253120 1.399275
O19   O     O_3   0.949920 0.293580 0.746880 -0.357029
O20   O     O_3   0.050080 0.706420 0.253120 -0.354525
C9    C     C_3   0.061158 0.035021 0.052641 -0.346415
C10   C     C_3   0.950926 0.966748 0.948189 -0.213092
C11   C     C_3   0.871038 0.046508 0.017836 -0.277913
C12   C     C_3   0.140881 0.955634 0.982526 -0.220138
H1    H     H_    0.758612 0.083100 0.031690 0.143152
H2    H     H_    0.253940 0.918919 0.969413 0.167026
H3    H     H_    0.109744 0.061719 0.095611 0.129239
H4    H     H_    0.901748 0.939749 0.905438 0.144062
C13   C     C_1   0.958794 0.126463 0.869517 -0.195883
C14   C     C_1   0.043134 0.873715 0.130309 -0.221087
C15   C     C_3   0.170349 0.031576 0.990246 0.511844
C16   C     C_3   0.841466 0.970709 0.010303 0.548918
C17   C     C_3   0.984191 0.042183 0.956305 0.043941
C18   C     C_3   0.027649 0.959302 0.043996 0.026783
C19   C     C_1   0.967405 0.087655 0.908458 -0.004774
C20   C     C_1   0.039453 0.912858 0.091409 -0.017904
C21   C     C_1   0.032337 0.884058 0.384681 -0.215112
C22   C     C_1   0.967662 0.115961 0.615299 -0.210902
C23   C     C_1   0.020872 0.927361 0.427527 0.000348
C24   C     C_1   0.979126 0.072664 0.572447 0.002318
C25   C     C_1   0.006266 0.978478 0.478478 -0.000319
C26   C     C_1   0.993732 0.021550 0.521493 0.000323
C27   C     C_1   0.465169 0.388353 0.880574 -0.217328
C28   C     C_1   0.534803 0.611513 0.119529 -0.214497
C29   C     C_1   0.477124 0.430078 0.924917 0.000776
C30   C     C_1   0.522844 0.569734 0.075226 0.004070
C31   C     C_1   0.493079 0.479221 0.977788 -0.001514
C32   C     C_1   0.506888 0.520560 0.022378 -0.000482
C33   C     C_1   0.471328 0.387128 0.614815 -0.207763
C34   C     C_1   0.528672 0.612873 0.385186 -0.208240
C35   C     C_1   0.482084 0.429042 0.572309 0.012510
C36   C     C_1   0.517916 0.570959 0.427692 0.012470
C37   C     C_1   0.494737 0.479104 0.521308 -0.002742
C38   C     C_1   0.505263 0.520896 0.478692 -0.002792
O21   O     O_3   0.667974 0.935505 0.019113 -0.548683
C39   C     C_3   0.588369 0.951400 0.078208 0.078441
H5    H     H_    0.462929 0.984054 0.073319 0.155573
H6    H     H_    0.688334 0.977677 0.111024 0.101818
C40   C     C_3   0.521863 0.887559 0.106716 -0.661511
H7    H     H_    0.645035 0.854087 0.111973 0.220852
H8    H     H_    0.456642 0.899522 0.152802 0.182872
H9    H     H_    0.415577 0.861267 0.076583 0.217688
O22   O     O_3   0.346086 0.063069 0.975433 -0.545544
C41   C     C_3   0.345293 0.130216 0.997873 0.085634
H10   H     H_    0.403178 0.133460 0.045299 0.110363
H11   H     H_    0.199859 0.152894 0.999089 0.112180
C42   C     C_3   0.472294 0.171431 0.956335 -0.694564
H12   H     H_    0.416183 0.168762 0.908705 0.227263
H13   H     H_    0.473919 0.224211 0.973862 0.162345
H14   H     H_    0.621144 0.152563 0.955381 0.219799

loop_
_geom_bond_atom_site_label_1
_geom_bond_atom_site_label_2
_ccdc_geom_bond_type
C35   C37   S    
O13   V3    S    
C41   C42   S    
C1    C27   S    
O4    C2    A    
V1    O19   S    
C2    C28   S    
C25   C26   T    
O9    V1    S    
C9    H3    S    
C10   H4    S    
C11   H1    S    
C41   H11   S    
O3    C1    A    
C29   C31   S    
C30   C32   S    
C4    C34   S    
C8    C14   S    
C33   C35   T    
O7    C3    A    
C34   C36   T    
C9    C11   S    
O5    C7    A    
O7    V1    S    
O6    C8    A    
C16   C18   S    
C39   H5    S    
C21   C23   T    
C22   C24   T    
C12   C18   S    
O14   V4    S    
C10   C12   S    
C1    O11   A    
C31   C32   T    
C2    O12   A    
O17   V3    S    
C9    C18   S    
C24   C26   S    
O11   V3    S    
C17   C19   S    
C15   O22   S    
C18   C20   S    
O21   C39   S    
C9    C15   S    
C10   C16   S    
C41   H10   S    
O8    C4    A    
O8    V2    S    
C40   H8    S    
C5    C22   S    
O15   V3    S    
C23   C25   S    
C36   C38   S    
O22   C41   S    
C42   H14   S    
C7    C13   S    
O10   V2    S    
O1    V3    S    
C13   C19   T    
C10   C17   S    
C14   C20   T    
O3    V1    S    
C11   C16   S    
C15   C17   S    
O18   V4    S    
C27   C29   T    
O16   C6    A    
O1    C3    A    
C12   H2    S    
C11   C17   S    
C42   H13   S    
V2    O20   S    
C6    C21   S    
O16   V4    S    
C16   O21   S    
C40   H9    S    
O5    V1    S    
O17   C7    A    
O6    V2    S    
O10   C6    A    
O18   C8    A    
O2    V4    S    
O15   C5    A    
C40   H7    S    
V3    O19   S    
V4    O20   S    
C39   C40   S    
O9    C5    A    
O13   V1    S    
C28   C30   T    
O14   V2    S    
O2    C4    A    
C42   H12   S    
O4    V2    S    
C3    C33   S    
C39   H6    S    
C37   C38   T    
C12   C15   S    
O12   V4    S    
