data_mof_unit_19088.cif
_audit_creation_date              2013-03-05T15:44:12-0500
_audit_creation_method            fapswitch 2.2
_symmetry_space_group_name_H-M    P1
_symmetry_Int_Tables_number       1
_space_group_crystal_system       triclinic
_cell_length_a                    26.030557
_cell_length_b                    28.308163
_cell_length_c                    8.560926
_cell_angle_alpha                 89.539675
_cell_angle_beta                  96.185878
_cell_angle_gamma                 89.923592
_cell_volume                      6271.40381394

loop_
_atom_site_label
_atom_site_type_symbol
_atom_site_description
_atom_site_fract_x
_atom_site_fract_y
_atom_site_fract_z
_atom_type_partial_charge
P1    P     P_3+3 0.893960 0.447890 0.040050 0.434053
P2    P     P_3+3 0.893960 0.552110 0.540050 0.425614
P3    P     P_3+3 0.393960 0.947890 0.040050 0.434389
P4    P     P_3+3 0.393960 0.052110 0.540050 0.424518
O1    O     O_2   0.898940 0.431940 0.867860 -0.372766
O2    O     O_2   0.898940 0.568060 0.367860 -0.378432
O3    O     O_2   0.398940 0.931940 0.867860 -0.370185
O4    O     O_2   0.398940 0.068060 0.367860 -0.378937
O5    O     O_3   0.941140 0.476130 0.123050 -0.427921
O6    O     O_3   0.941140 0.523870 0.623050 -0.440941
O7    O     O_3   0.441140 0.976130 0.123050 -0.430268
O8    O     O_3   0.441140 0.023870 0.623050 -0.442365
O9    O     O_3   0.982430 0.389880 0.635700 -0.419569
O10   O     O_3   0.982430 0.610120 0.135700 -0.357733
O11   O     O_3   0.482430 0.889880 0.635700 -0.376672
O12   O     O_3   0.482430 0.110120 0.135700 -0.358256
O13   O     O_2   0.895194 0.353327 0.728749 -0.369820
O14   O     O_2   0.897004 0.648678 0.224229 -0.393314
O15   O     O_2   0.394296 0.855706 0.727715 -0.366564
O16   O     O_2   0.396977 0.148708 0.223920 -0.393888
O17   O     O_3   0.837333 0.482063 0.021976 -0.592774
O18   O     O_3   0.835805 0.520523 0.524596 -0.612214
O19   O     O_3   0.337322 0.982054 0.022025 -0.593517
O20   O     O_3   0.335784 0.020560 0.524486 -0.612285
O21   O     O_3   0.957318 0.290923 0.637265 -0.546403
O22   O     O_3   0.965136 0.707673 0.137624 -0.509876
O23   O     O_3   0.458675 0.792636 0.659078 -0.485491
O24   O     O_3   0.465234 0.207683 0.137808 -0.509894
H1    H     H_    0.023150 0.314304 0.769384 0.182998
H2    H     H_    0.014540 0.690761 0.968591 0.055165
H3    H     H_    0.519858 0.802411 0.525656 0.053982
H4    H     H_    0.514709 0.190801 0.968949 0.055137
C1    C     C_3   0.033424 0.243607 0.684839 -0.641399
C2    C     C_3   0.026935 0.762319 0.049249 -0.621512
C3    C     C_3   0.509962 0.728056 0.579031 -0.629000
C4    C     C_3   0.527051 0.262364 0.049663 -0.622017
H5    H     H_    0.018690 0.226814 0.789023 0.245841
H6    H     H_    0.004370 0.792228 0.090639 0.220576
H7    H     H_    0.478488 0.703752 0.605710 0.222844
H8    H     H_    0.504455 0.292262 0.090984 0.220401
P5    P     P_3+3 0.105800 0.447360 0.649510 0.472764
P6    P     P_3+3 0.105800 0.552640 0.149510 0.478823
P7    P     P_3+3 0.605800 0.947360 0.649510 0.479255
P8    P     P_3+3 0.605800 0.052640 0.149510 0.479114
P9    P     P_3+3 0.069000 0.348982 0.087389 0.427010
P10   P     P_3+3 0.064637 0.655309 0.590026 0.422358
P11   P     P_3+3 0.569279 0.849007 0.085547 0.473242
P12   P     P_3+3 0.564622 0.155310 0.590013 0.422367
O25   O     O_2   0.100770 0.431440 0.821660 -0.326939
O26   O     O_2   0.100770 0.568560 0.321660 -0.344463
O27   O     O_2   0.600770 0.931440 0.821660 -0.322414
O28   O     O_2   0.600770 0.068560 0.321660 -0.343635
O29   O     O_3   0.017130 0.389790 0.053700 -0.394012
O30   O     O_3   0.017130 0.610210 0.553700 -0.421401
O31   O     O_3   0.517130 0.889790 0.053700 -0.381090
O32   O     O_3   0.517130 0.110210 0.553700 -0.421741
O33   O     O_2   0.101225 0.351474 0.945998 -0.398639
O34   O     O_2   0.102092 0.650248 0.462274 -0.369373
O35   O     O_2   0.604256 0.855191 0.952343 -0.355320
O36   O     O_2   0.602108 0.150225 0.462355 -0.369221
O37   O     O_3   0.154976 0.489474 0.684014 -0.572550
O38   O     O_3   0.154770 0.510257 0.180994 -0.561146
O39   O     O_3   0.655228 0.989248 0.683198 -0.573806
O40   O     O_3   0.654772 0.010262 0.181109 -0.561122
O41   O     O_3   0.040965 0.292906 0.069321 -0.529156
O42   O     O_3   0.034675 0.709979 0.547423 -0.539719
O43   O     O_3   0.543121 0.793223 0.044264 -0.502095
O44   O     O_3   0.534685 0.209983 0.547299 -0.539954
C5    C     C_3   0.006613 0.288276 0.184379 0.425789
C6    C     C_3   0.981608 0.705143 0.561172 0.507065
C7    C     C_3   0.510144 0.781954 0.157709 0.417294
C8    C     C_3   0.481619 0.205184 0.561093 0.506921
H9    H     H_    0.977399 0.317182 0.174924 0.094142
H10   H     H_    0.963139 0.682767 0.464990 0.171493
H11   H     H_    0.482431 0.811111 0.173600 0.077563
H12   H     H_    0.463130 0.182783 0.465008 0.171387
H13   H     H_    0.028390 0.288012 0.303181 0.031558
H14   H     H_    0.974916 0.689342 0.676504 -0.005011
H15   H     H_    0.533906 0.773815 0.270031 0.014341
H16   H     H_    0.474927 0.189433 0.676497 -0.004934
C9    C     C_3   0.977744 0.241789 0.161875 -0.984814
C10   C     C_3   0.956037 0.753505 0.547562 -1.022025
C11   C     C_3   0.478911 0.738396 0.105307 -0.990233
C12   C     C_3   0.456087 0.253562 0.547292 -1.021852
H17   H     H_    0.955247 0.241158 0.044023 0.272530
H18   H     H_    0.961227 0.769815 0.431877 0.284165
H19   H     H_    0.455453 0.745659 0.991399 0.288254
H20   H     H_    0.461339 0.269847 0.431615 0.284079
H21   H     H_    0.005510 0.211818 0.172388 0.257744
H22   H     H_    0.973478 0.776774 0.642726 0.249562
H23   H     H_    0.505222 0.708168 0.091315 0.252813
H24   H     H_    0.473508 0.276837 0.642471 0.249372
C13   C     C_3   0.192657 0.519820 0.080141 0.326603
C14   C     C_3   0.183725 0.493120 0.554183 0.403108
C15   C     C_3   0.692658 0.019815 0.080229 0.325395
C16   C     C_3   0.684304 0.992017 0.553875 0.399720
H25   H     H_    0.175429 0.527426 0.958000 0.103973
H26   H     H_    0.186601 0.531096 0.522930 0.105400
H27   H     H_    0.675434 0.027368 0.958056 0.103492
H28   H     H_    0.687984 0.029849 0.521772 0.106602
H29   H     H_    0.216552 0.550309 0.125143 0.052167
H30   H     H_    0.166304 0.474993 0.447016 0.109668
H31   H     H_    0.716527 0.050326 0.125127 0.053215
H32   H     H_    0.666686 0.973915 0.446827 0.106490
C17   C     C_3   0.227463 0.476785 0.075657 -0.914750
C18   C     C_3   0.238041 0.474094 0.598980 -1.059100
C19   C     C_3   0.727498 0.976807 0.075897 -0.914776
C20   C     C_3   0.738193 0.972174 0.600019 -1.058729
H33   H     H_    0.204482 0.446000 0.028493 0.274763
H34   H     H_    0.257234 0.494242 0.699593 0.263455
H35   H     H_    0.704576 0.946047 0.028299 0.274833
H36   H     H_    0.757640 0.992306 0.700275 0.264462
H37   H     H_    0.258296 0.484143 0.998811 0.215799
H38   H     H_    0.261100 0.477794 0.497804 0.235005
H39   H     H_    0.758438 0.984218 0.999482 0.216098
H40   H     H_    0.761492 0.975133 0.499158 0.235264
H41   H     H_    0.245669 0.468115 0.195824 0.238334
H42   H     H_    0.236520 0.436215 0.632441 0.261348
H43   H     H_    0.745560 0.968078 0.196153 0.238309
H44   H     H_    0.735868 0.934440 0.634524 0.259428
Ba1   Ba    Ba6+2 0.999910 0.465960 0.844870 1.500110
Ba2   Ba    Ba6+2 0.999910 0.534040 0.344870 1.495404
Ba3   Ba    Ba6+2 0.499910 0.965960 0.844870 1.519353
Ba4   Ba    Ba6+2 0.499910 0.034040 0.344870 1.498553
C21   C     C_3   0.841601 0.523071 0.932044 0.345946
C22   C     C_3   0.837358 0.479738 0.434543 0.328829
C23   C     C_3   0.341596 0.023062 0.932052 0.344948
C24   C     C_3   0.337312 0.979812 0.434174 0.328181
H45   H     H_    0.871314 0.519567 0.848942 0.109213
H46   H     H_    0.866454 0.482374 0.349277 0.110111
H47   H     H_    0.371324 0.019556 0.849000 0.108873
H48   H     H_    0.366447 0.982423 0.348993 0.109132
C25   C     C_3   0.789778 0.532879 0.832386 -0.357122
C26   C     C_3   0.784738 0.472616 0.338508 -0.362773
C27   C     C_3   0.289797 0.032861 0.832251 -0.356459
C28   C     C_3   0.284687 0.972767 0.338070 -0.362576
H49   H     H_    0.783395 0.505162 0.741987 0.202122
H50   H     H_    0.777411 0.502276 0.253407 0.184034
H51   H     H_    0.283444 0.005125 0.741905 0.201804
H52   H     H_    0.277400 0.002464 0.253101 0.184040
H53   H     H_    0.792205 0.567225 0.770071 0.138921
H54   H     H_    0.786271 0.439213 0.271384 0.167644
H55   H     H_    0.292243 0.067202 0.769873 0.138985
H56   H     H_    0.286188 0.939384 0.270821 0.167479
O45   O     O_3   0.058810 0.523750 0.066650 -0.377004
O46   O     O_3   0.058810 0.476250 0.566650 -0.419575
O47   O     O_3   0.558810 0.023750 0.066650 -0.377139
O48   O     O_3   0.558810 0.976250 0.566650 -0.421922
P13   P     P_3+3 0.934439 0.653564 0.096254 0.434807
P14   P     P_3+3 0.931949 0.347724 0.599646 0.418448
P15   P     P_3+3 0.434494 0.153606 0.096177 0.434488
P16   P     P_3+3 0.431920 0.847749 0.602646 0.455081
C29   C     C_3   0.011394 0.293603 0.662195 0.421443
C30   C     C_3   0.991028 0.720457 0.007628 0.330029
C31   C     C_3   0.487696 0.777423 0.540157 0.347949
C32   C     C_3   0.491173 0.220490 0.007923 0.330209
H57   H     H_    0.027303 0.310383 0.560082 0.006737
H58   H     H_    0.962261 0.731758 0.909068 0.045351
H59   H     H_    0.462218 0.774571 0.428280 0.005466
H60   H     H_    0.462443 0.231795 0.909279 0.045145
H61   H     H_    0.020332 0.222087 0.579994 0.217566
H62   H     H_    0.043911 0.774219 0.941925 0.185284
H63   H     H_    0.526778 0.713976 0.474917 0.181759
H64   H     H_    0.544058 0.274274 0.942405 0.185202
H65   H     H_    0.950715 0.237823 0.253058 0.225382
H66   H     H_    0.914068 0.749882 0.557959 0.232683
H67   H     H_    0.452479 0.728778 0.193843 0.214230
H68   H     H_    0.414106 0.249977 0.557515 0.233118
C33   C     C_R   0.900460 0.389649 0.308086 -0.545921
C34   C     C_R   0.910260 0.613074 0.798552 -0.522660
C35   C     C_R   0.400761 0.889211 0.308808 -0.515903
C36   C     C_R   0.410302 0.113054 0.798623 -0.522492
C37   C     C_R   0.881604 0.392229 0.150445 0.338392
C38   C     C_R   0.884755 0.608249 0.647697 0.352665
C39   C     C_R   0.381808 0.892003 0.151031 0.336570
C40   C     C_R   0.384999 0.108346 0.647477 0.352741
C41   C     C_R   0.847682 0.356319 0.089552 -0.233705
C42   C     C_R   0.846665 0.642025 0.592726 -0.275552
C43   C     C_R   0.347981 0.856013 0.090229 -0.232940
C44   C     C_R   0.347434 0.142480 0.591609 -0.276918
C45   C     C_R   0.835062 0.317646 0.186216 0.023369
C46   C     C_R   0.833908 0.680185 0.689139 0.027878
C47   C     C_R   0.335410 0.817281 0.186847 0.038827
C48   C     C_R   0.334777 0.180783 0.687657 0.027832
C49   C     C_R   0.861064 0.314051 0.340719 -0.273478
C50   C     C_R   0.861361 0.683871 0.840711 -0.283735
C51   C     C_R   0.361430 0.813571 0.341388 -0.286383
C52   C     C_R   0.361895 0.184223 0.839817 -0.283695
C53   C     C_R   0.894501 0.350169 0.400929 0.298240
C54   C     C_R   0.899292 0.650437 0.895335 0.228134
C55   C     C_R   0.395119 0.849511 0.401611 0.236020
C56   C     C_R   0.399475 0.150538 0.895077 0.228181
C57   C     C_R   0.800945 0.233656 0.162746 -0.187609
C58   C     C_R   0.799026 0.764178 0.669019 -0.200492
C59   C     C_R   0.301171 0.733339 0.162881 -0.188582
C60   C     C_R   0.300320 0.265030 0.669317 -0.203399
C61   C     C_R   0.262239 0.700040 0.118001 -0.169107
C62   C     C_R   0.261878 0.299167 0.624937 -0.155335
C63   C     C_R   0.762061 0.200295 0.118088 -0.168401
C64   C     C_R   0.760230 0.798020 0.625369 -0.159823
C65   C     C_R   0.214516 0.714098 0.038101 0.155641
C66   C     C_R   0.214625 0.286593 0.540302 0.149220
C67   C     C_R   0.714330 0.214262 0.038050 0.155383
C68   C     C_R   0.712465 0.784936 0.544910 0.152566
C69   C     C_R   0.206890 0.762664 0.006095 -0.212887
C70   C     C_R   0.206853 0.238419 0.504082 -0.224958
C71   C     C_R   0.706649 0.262806 0.005673 -0.213536
C72   C     C_R   0.704510 0.736576 0.512228 -0.219416
C73   C     C_R   0.745170 0.296786 0.051556 0.040284
C74   C     C_R   0.742921 0.701977 0.558292 0.041779
C75   C     C_R   0.245452 0.796583 0.052251 0.039152
C76   C     C_R   0.244722 0.203495 0.551554 0.046558
C77   C     C_R   0.793543 0.282316 0.130182 0.136005
C78   C     C_R   0.791568 0.715689 0.635916 0.134645
C79   C     C_R   0.293822 0.782024 0.130705 0.132710
C80   C     C_R   0.292915 0.216690 0.633351 0.134248
C81   C     C_R   0.142683 0.684393 0.838978 -0.288741
C82   C     C_R   0.147429 0.320919 0.332624 -0.303844
C83   C     C_R   0.642579 0.184443 0.838982 -0.288025
C84   C     C_R   0.644944 0.818686 0.337147 -0.309145
C85   C     C_R   0.101616 0.653630 0.792672 0.185280
C86   C     C_R   0.110812 0.355467 0.277567 0.198353
C87   C     C_R   0.601558 0.153643 0.792674 0.185100
C88   C     C_R   0.608980 0.853626 0.280654 0.163565
C89   C     C_R   0.120045 0.608887 0.038992 0.240104
C90   C     C_R   0.123472 0.395025 0.530956 0.261382
C91   C     C_R   0.620021 0.108906 0.038994 0.239214
C92   C     C_R   0.622703 0.894289 0.532433 0.269982
C93   C     C_R   0.161587 0.639766 0.084788 -0.353926
C94   C     C_R   0.161199 0.360835 0.585250 -0.347473
C95   C     C_R   0.661522 0.139836 0.084815 -0.353753
C96   C     C_R   0.659748 0.859668 0.587930 -0.325690
C97   C     C_R   0.172513 0.678858 0.987300 0.057652
C98   C     C_R   0.174163 0.323447 0.485798 0.047654
C99   C     C_R   0.672396 0.178949 0.987321 0.057888
C100  C     C_R   0.671835 0.821554 0.490113 0.060779
C101  C     C_R   0.089416 0.618576 0.898976 -0.181845
C102  C     C_R   0.101505 0.393267 0.374844 -0.174362
C103  C     C_R   0.589386 0.118575 0.898963 -0.181926
C104  C     C_R   0.600586 0.892092 0.376613 -0.168467
H69   H     H_    0.184714 0.633668 0.195908 0.149260
H70   H     H_    0.179994 0.363190 0.704008 0.163132
H71   H     H_    0.684650 0.133763 0.195949 0.149520
H72   H     H_    0.678844 0.862335 0.706240 0.160298
H73   H     H_    0.269891 0.663040 0.143871 0.114322
H74   H     H_    0.269708 0.335807 0.653890 0.121070
H75   H     H_    0.769760 0.163317 0.144225 0.115445
H76   H     H_    0.768164 0.834826 0.651496 0.120680
H77   H     H_    0.837285 0.221213 0.222507 0.129305
H78   H     H_    0.835501 0.776207 0.727966 0.127432
H79   H     H_    0.337504 0.720830 0.222514 0.124045
H80   H     H_    0.336460 0.276731 0.731287 0.127362
H81   H     H_    0.830036 0.359305 0.969554 0.168813
H82   H     H_    0.826460 0.637896 0.476464 0.168398
H83   H     H_    0.330274 0.859015 0.970306 0.167052
H84   H     H_    0.327628 0.138539 0.474760 0.169782
H85   H     H_    0.170012 0.774510 0.948261 0.122826
H86   H     H_    0.170434 0.227641 0.441544 0.118542
H87   H     H_    0.669763 0.274588 0.947721 0.122811
H88   H     H_    0.667641 0.725489 0.453286 0.117310
H89   H     H_    0.151879 0.712042 0.758519 0.155233
H90   H     H_    0.154920 0.292100 0.255821 0.155219
H91   H     H_    0.651748 0.212094 0.758493 0.155337
H92   H     H_    0.652246 0.789609 0.261146 0.153271
H93   H     H_    0.853964 0.284352 0.415794 0.150869
H94   H     H_    0.852446 0.712039 0.918277 0.146505
H95   H     H_    0.354171 0.783921 0.416482 0.142262
H96   H     H_    0.353069 0.212445 0.917277 0.146052
H97   H     H_    0.918293 0.420040 0.362615 0.126093
H98   H     H_    0.936002 0.585379 0.846048 0.154404
H99   H     H_    0.418267 0.919699 0.363601 0.120330
H100  H     H_    0.435841 0.085246 0.846450 0.154040
N1    N     N_3   0.854938 0.562608 0.035953 -0.221262
H101  H     H_    0.893250 0.557579 0.082721 0.184251
H102  H     H_    0.832490 0.561424 0.129947 0.136442
N2    N     N_3   0.848580 0.439409 0.539261 -0.211964
H103  H     H_    0.886289 0.443847 0.591503 0.179523
H104  H     H_    0.824314 0.440039 0.628909 0.152765
N3    N     N_3   0.354911 0.062617 0.035914 -0.221294
H105  H     H_    0.393216 0.057597 0.082758 0.184076
H106  H     H_    0.332444 0.061448 0.129865 0.136331
N4    N     N_3   0.348486 0.939440 0.538669 -0.210459
H107  H     H_    0.386134 0.943952 0.591322 0.178015
H108  H     H_    0.324125 0.939987 0.628081 0.152999
N5    N     N_2   0.745992 0.534477 0.924184 -0.083493
H109  H     H_    0.749516 0.555273 0.022910 0.179165
C105  C     C_3   0.716390 0.491506 0.934035 -0.827533
H110  H     H_    0.681643 0.498863 0.994475 0.222796
H111  H     H_    0.739849 0.463805 0.000688 0.266762
H112  H     H_    0.703255 0.478373 0.814438 0.241120
N6    N     N_2   0.743383 0.470838 0.439392 -0.082398
H113  H     H_    0.736533 0.502880 0.489866 0.214232
C106  C     C_3   0.696373 0.448397 0.372243 -0.909868
H114  H     H_    0.667931 0.447818 0.460035 0.246576
H115  H     H_    0.704265 0.411348 0.340485 0.255643
H116  H     H_    0.679498 0.468241 0.266556 0.248303
N7    N     N_2   0.245981 0.034476 0.923914 -0.083160
H117  H     H_    0.249478 0.055278 0.022627 0.179368
C107  C     C_3   0.216355 0.991516 0.933676 -0.826184
H118  H     H_    0.181568 0.998895 0.993896 0.223123
H119  H     H_    0.239774 0.963820 0.000486 0.266368
H120  H     H_    0.203281 0.978367 0.814057 0.241036
N8    N     N_2   0.243319 0.970986 0.438910 -0.082571
H121  H     H_    0.236580 0.002987 0.489809 0.214385
C108  C     C_3   0.196226 0.948761 0.371417 -0.908662
H122  H     H_    0.167807 0.948092 0.459275 0.246716
H123  H     H_    0.203984 0.911754 0.338889 0.255458
H124  H     H_    0.179388 0.968824 0.266166 0.248371
N9    N     N_3   0.089842 0.243925 0.707005 -0.200926
H125  H     H_    0.103225 0.260015 0.608902 0.132656
H126  H     H_    0.102111 0.264416 0.805025 0.190779
N10   N     N_3   0.068801 0.749844 0.170271 -0.175718
H127  H     H_    0.088495 0.720459 0.133399 0.162734
H128  H     H_    0.052855 0.740204 0.272678 0.238758
N11   N     N_3   0.550177 0.728647 0.711813 -0.182128
H129  H     H_    0.578418 0.753340 0.689530 0.158199
H130  H     H_    0.533587 0.739449 0.811259 0.236383
N12   N     N_3   0.568888 0.249904 0.170791 -0.175757
H131  H     H_    0.588589 0.220509 0.134030 0.162809
H132  H     H_    0.552910 0.240285 0.273158 0.238828
N13   N     N_3   0.734429 0.346120 0.023193 -0.220338
H133  H     H_    0.732827 0.362057 0.132223 0.103711
H134  H     H_    0.698087 0.350862 0.960096 0.111246
N14   N     N_3   0.731825 0.652837 0.530955 -0.221382
H135  H     H_    0.729964 0.636636 0.640379 0.112149
H136  H     H_    0.695474 0.648692 0.467728 0.105085
N15   N     N_3   0.234751 0.845944 0.024371 -0.220710
H137  H     H_    0.233201 0.861790 0.133571 0.103789
H138  H     H_    0.198397 0.850759 0.961420 0.111390
N16   N     N_3   0.233417 0.154519 0.521571 -0.221639
H139  H     H_    0.230555 0.137974 0.629916 0.112384
H140  H     H_    0.197460 0.150776 0.455663 0.106745
N17   N     N_2   0.048759 0.588106 0.855404 -0.116440
H141  H     H_    0.014587 0.605065 0.820911 0.149207
C109  C     C_3   0.064349 0.551298 0.756357 -0.471888
H142  H     H_    0.029109 0.537087 0.694399 0.287360
H143  H     H_    0.086722 0.524189 0.825861 0.234538
H144  H     H_    0.089942 0.563658 0.668673 0.206289
N18   N     N_2   0.064900 0.427972 0.321452 -0.089375
H145  H     H_    0.069302 0.443518 0.214610 0.238107
C110  C     C_3   0.013328 0.414920 0.350714 -0.585722
H146  H     H_    0.987152 0.420490 0.248895 0.237554
H147  H     H_    0.996843 0.439040 0.430779 0.265558
H148  H     H_    0.010143 0.377129 0.383974 0.146060
N19   N     N_2   0.548769 0.088067 0.855350 -0.116457
H149  H     H_    0.514553 0.104968 0.820933 0.149217
C111  C     C_3   0.564409 0.051279 0.756309 -0.473212
H150  H     H_    0.529170 0.037057 0.694365 0.287228
H151  H     H_    0.586827 0.024188 0.825806 0.233429
H152  H     H_    0.589987 0.063666 0.668618 0.206713
N20   N     N_2   0.564753 0.927270 0.322258 -0.091431
H153  H     H_    0.569732 0.942827 0.215831 0.234378
C112  C     C_3   0.512949 0.914826 0.350395 -0.584732
H154  H     H_    0.487101 0.920856 0.248359 0.237526
H155  H     H_    0.496740 0.938995 0.430876 0.262678
H156  H     H_    0.509055 0.876964 0.382220 0.141591

loop_
_geom_bond_atom_site_label_1
_geom_bond_atom_site_label_2
_geom_bond_distance
_ccdc_geom_bond_type
C25   H49   1.106596 S    
C72   H88   1.083127 S    
C89   C101  1.391358 A    
C20   H44   1.109455 S    
N6    H113  1.031358 S    
P5    O37   1.753678 S    
C28   H52   1.109881 S    
C64   H76   1.082882 S    
P7    O39   1.753351 S    
N8    C108  1.444889 S    
C21   N1    1.454297 S    
N17   H141  1.024141 S    
P8    O40   1.747492 S    
C27   H51   1.106604 S    
P9    O33   1.546396 D    
N4    H107  1.042096 S    
C52   H96   1.082437 S    
P9    C86   1.868807 S    
C30   H58   1.110796 S    
C15   H27   1.111643 S    
C69   C75   1.417351 A    
O27   Ba3   2.827725 S    
C68   C72   1.410584 A    
N14   H135  1.045551 S    
C6    H10   1.110966 S    
C105  H111  1.108974 S    
C82   C86   1.407278 A    
P4    O8    1.566027 S    
C46   C78   1.521138 S    
N9    H126  1.045549 S    
C70   H86   1.082810 S    
C18   H42   1.109514 S    
P5    O25   1.556693 D    
C112  H155  1.091010 S    
P3    Ba3   3.412189 S    
C81   C85   1.405341 A    
Ba4   O47   2.984219 S    
O31   Ba3   2.794494 S    
N16   H139  1.045583 S    
C26   N6    1.451588 S    
C13   H29   1.111462 S    
C109  H143  1.094940 S    
O37   C14   1.408429 S    
C103  N19   1.387679 S    
C57   C63   1.409797 A    
O39   C16   1.408577 S    
C73   C77   1.420535 A    
P2    O2    1.557018 D    
C85   C101  1.400851 A    
C50   C54   1.407216 A    
C1    H61   1.111893 S    
C12   H68   1.110363 S    
C66   C98   1.516183 S    
N8    H121  1.031346 S    
O44   C8    1.405668 S    
C8    C12   1.519601 S    
C16   H32   1.109212 S    
C34   C38   1.394855 A    
C76   N16   1.437072 S    
C22   N2    1.455530 S    
P5    C90   1.886676 S    
O22   P13   1.749595 S    
C12   H20   1.110815 S    
O3    Ba3   2.826550 S    
C57   C77   1.412030 A    
C11   H23   1.110607 S    
O16   P15   1.548223 D    
C27   N7    1.453311 S    
O12   Ba4   2.794959 S    
C68   C100  1.515060 S    
C87   C103  1.400826 A    
O28   Ba4   2.829041 S    
O42   C6    1.405724 S    
C67   C71   1.409399 A    
P4    O20   1.752335 S    
O10   P13   1.756522 S    
C61   H73   1.082591 S    
C94   C98   1.426326 A    
O12   P15   1.756447 S    
Ba2   O46   2.819193 S    
C1    N9    1.460418 S    
C6    C10   1.519587 S    
P8    C91   1.903160 S    
C23   H47   1.110715 S    
P3    O7    1.573509 S    
C73   N13   1.437483 S    
C109  H142  1.088215 S    
C70   C76   1.420863 A    
H2    C30   1.113645 S    
C14   H30   1.108698 S    
N5    C105  1.447566 S    
N13   H133  1.044805 S    
O38   C13   1.404225 S    
C22   H46   1.109265 S    
P6    O45   1.578981 S    
C44   C48   1.425525 A    
C91   C95   1.415704 A    
O23   P16   1.750721 S    
C5    H13   1.109688 S    
C102  N18   1.406565 S    
C24   N4    1.455210 S    
C7    H15   1.108239 S    
C28   N8    1.451610 S    
C49   H93   1.082304 S    
Ba3   Ba4   4.680168 S    
C36   C56   1.396641 A    
C2    N10   1.461359 S    
P1    C37   1.876781 S    
C17   H37   1.110122 S    
N6    C106  1.444901 S    
C3    C31   1.532446 S    
C92   C104  1.396679 A    
C1    C29   1.529382 S    
C96   C100  1.426446 A    
N10   H127  1.045148 S    
P4    Ba4   3.415110 S    
N12   H132  1.044104 S    
H4    C32   1.113625 S    
C58   C64   1.409843 A    
P5    O46   1.571370 S    
C108  H123  1.109980 S    
C62   C66   1.406370 A    
C58   H78   1.082803 S    
C37   C41   1.412978 A    
P6    O38   1.747480 S    
C43   H83   1.081749 S    
P8    O28   1.563433 D    
N3    H106  1.044516 S    
O25   Ba1   2.827725 S    
P10   O34   1.548945 D    
N7    C107  1.447557 S    
C15   H31   1.111344 S    
O15   P16   1.544542 D    
C7    C11   1.521713 S    
C110  H147  1.090981 S    
C81   H89   1.082470 S    
C31   H59   1.108229 S    
P1    O5    1.573509 S    
C83   C99   1.422454 A    
C32   H60   1.110768 S    
N15   H138  1.045514 S    
C90   C94   1.417424 A    
C11   H67   1.109776 S    
P2    O18   1.752427 S    
C106  H114  1.110423 S    
C94   H70   1.082322 S    
C21   H45   1.110708 S    
O9    Ba1   2.817971 S    
C64   C68   1.406529 A    
C71   H87   1.083113 S    
C60   H80   1.082715 S    
C88   C104  1.400262 A    
C22   C26   1.534098 S    
P6    O26   1.563433 D    
P15   C56   1.861932 S    
C2    C30   1.530644 S    
P9    O41   1.749033 S    
C13   H25   1.111703 S    
P7    C92   1.890171 S    
C17   H33   1.111457 S    
C19   H35   1.111285 S    
C71   C73   1.417335 A    
C2    H62   1.111673 S    
C49   C53   1.408104 A    
C42   H82   1.081731 S    
C74   N14   1.436997 S    
C52   C56   1.407324 A    
C8    H16   1.111517 S    
C111  H152  1.110828 S    
O8    Ba3   2.819766 S    
C4    N12   1.461327 S    
C16   H28   1.110341 S    
N1    H102  1.044528 S    
C93   C97   1.427991 A    
C107  H120  1.111037 S    
P1    Ba1   3.412189 S    
C40   C44   1.416994 A    
N2    H103  1.042095 S    
O24   P15   1.749675 S    
N14   H136  1.045504 S    
O20   C24   1.396683 S    
C65   C69   1.409293 A    
Ba1   O46   2.980881 S    
C45   C77   1.515680 S    
C12   H24   1.110609 S    
C23   N3    1.454361 S    
C9    H17   1.110927 S    
C36   C40   1.394713 A    
C59   C61   1.409837 A    
C11   H19   1.110937 S    
O10   Ba2   2.794959 S    
P7    Ba3   3.416974 S    
O13   P14   1.546721 D    
O26   Ba2   2.829041 S    
C36   H100  1.078900 S    
C112  H154  1.056193 S    
C33   H97   1.065055 S    
Ba4   O48   2.819193 S    
N16   H140  1.045502 S    
P1    O1    1.563772 D    
O32   Ba4   2.817488 S    
C3    N11   1.460204 S    
C23   C27   1.540103 S    
O9    P14   1.780108 S    
P10   O42   1.750063 S    
C106  H116  1.110254 S    
P3    O3    1.563772 D    
C24   C28   1.534150 S    
C60   C80   1.413929 A    
C48   C80   1.522167 S    
C14   H26   1.110309 S    
P8    O47   1.578981 S    
C46   C50   1.416986 A    
P7    O48   1.571370 S    
P3    O19   1.754277 S    
O7    Ba4   2.839807 S    
N3    H105  1.042975 S    
C5    H9    1.112852 S    
C33   C53   1.384788 A    
N19   C111  1.434076 S    
C38   C42   1.417206 A    
C59   C79   1.411993 A    
C8    H12   1.110980 S    
C9    H21   1.110605 S    
C50   H94   1.082527 S    
N17   C109  1.434107 S    
N11   H129  1.046357 S    
C63   C67   1.407254 A    
C17   H41   1.110728 S    
C19   H43   1.110521 S    
O11   P16   1.777820 S    
P2    Ba2   3.415110 S    
O23   C31   1.401634 S    
O21   C29   1.403057 S    
C83   H91   1.082471 S    
C60   C62   1.410374 A    
C111  H150  1.088252 S    
O4    Ba4   2.825239 S    
C10   H18   1.110817 S    
P8    Ba4   3.413965 S    
C89   C93   1.415551 A    
C20   H36   1.110265 S    
C3    H7    1.111790 S    
C107  H118  1.109601 S    
C67   C99   1.512332 S    
N5    H109  1.029934 S    
C47   C51   1.422890 A    
C26   H54   1.113334 S    
C93   H69   1.082058 S    
C65   C97   1.512339 S    
N18   H145  1.029408 S    
C91   C103  1.391417 A    
P10   O30   1.784260 S    
O5    Ba2   2.839807 S    
C105  H112  1.111035 S    
C35   C55   1.388165 A    
P12   O44   1.750004 S    
C101  N17   1.387686 S    
Ba1   Ba2   4.680168 S    
C15   C19   1.520241 S    
P3    C39   1.883509 S    
C25   N5    1.453331 S    
C104  N20   1.405260 S    
C81   C97   1.422609 A    
C92   C96   1.416806 A    
C112  H156  1.111232 S    
C4    C32   1.530653 S    
O19   C23   1.399181 S    
C10   H66   1.110438 S    
C96   H72   1.082343 S    
N4    H108  1.045477 S    
P6    C89   1.902879 S    
C58   C78   1.413219 A    
C109  H144  1.110822 S    
H3    C31   1.113215 S    
N20   C112  1.438904 S    
C25   H53   1.110406 S    
C10   H22   1.110609 S    
C20   H40   1.110057 S    
Ba3   O47   2.839198 S    
H1    C29   1.108004 S    
N15   H137  1.044800 S    
C28   H56   1.113338 S    
O29   Ba1   2.794494 S    
P14   C53   1.868060 S    
P7    O27   1.556693 D    
C62   H74   1.082856 S    
O41   C5    1.405359 S    
N10   H128  1.044145 S    
O43   C7    1.399018 S    
C29   H57   1.110487 S    
C3    H63   1.110963 S    
C5    C9    1.519580 S    
C83   C87   1.405099 A    
C108  H122  1.110418 S    
P4    C40   1.871690 S    
C4    H64   1.111675 S    
C75   C79   1.420634 A    
P11   C88   1.872664 S    
P1    O17   1.754183 S    
C90   C102  1.397150 A    
C9    H65   1.110907 S    
C6    H14   1.111521 S    
N7    H117  1.029934 S    
C35   H99   1.064936 S    
P4    O4    1.557018 D    
O6    Ba1   2.819766 S    
C44   H84   1.081525 S    
C69   H85   1.083122 S    
N9    H125  1.044738 S    
P13   C54   1.861983 S    
P10   C85   1.891339 S    
O11   Ba3   2.817971 S    
C18   H38   1.110073 S    
P16   C55   1.877589 S    
C41   C45   1.426957 A    
O18   C22   1.396382 S    
C75   N15   1.437474 S    
O1    Ba1   2.826550 S    
Ba2   O45   2.984219 S    
P5    Ba1   3.416974 S    
C13   C17   1.520453 S    
C76   C80   1.421190 A    
N13   H134  1.045514 S    
C59   H79   1.082892 S    
C61   C65   1.407339 A    
C57   H77   1.082847 S    
O14   P13   1.548231 D    
C51   C55   1.408292 A    
C63   H75   1.082586 S    
O30   Ba2   2.817488 S    
C84   H92   1.082507 S    
C24   H48   1.109451 S    
P11   O43   1.744185 S    
P12   O36   1.548939 D    
C43   C47   1.427631 A    
N11   H130  1.043001 S    
P11   O35   1.543031 D    
C4    H8    1.111648 S    
C82   C98   1.419134 A    
C45   C49   1.422221 A    
C34   H98   1.078762 S    
C39   C43   1.412948 A    
C74   C78   1.421237 A    
C35   C39   1.388757 A    
C86   C102  1.397968 A    
C48   C52   1.417279 A    
O21   P14   1.751650 S    
C95   H71   1.082050 S    
N12   H131  1.045136 S    
C111  H151  1.095131 S    
C51   H95   1.082316 S    
C108  H124  1.110216 S    
C47   C79   1.515751 S    
N1    H101  1.042980 S    
C42   C46   1.425096 A    
Ba3   O48   2.980881 S    
C107  H119  1.108969 S    
C19   H39   1.110153 S    
N18   C110  1.440058 S    
N2    H104  1.045458 S    
C105  H110  1.109619 S    
C82   H90   1.082447 S    
Ba1   O45   2.839198 S    
O22   C30   1.406965 S    
O2    Ba2   2.825239 S    
P2    O6    1.566027 S    
C84   C88   1.407419 A    
P6    Ba2   3.413965 S    
P11   O31   1.777893 S    
C18   H34   1.110296 S    
C110  H148  1.110328 S    
C21   C25   1.540108 S    
P12   O32   1.784001 S    
C14   C18   1.521194 S    
C33   C37   1.386764 A    
C2    H6    1.111646 S    
C84   C100  1.419777 A    
O40   C15   1.404305 S    
C26   H50   1.109924 S    
C95   C99   1.428149 A    
P12   C87   1.890997 S    
C41   H81   1.081792 S    
C34   C54   1.396751 A    
C106  H115  1.110013 S    
P2    C38   1.871444 S    
C7    H11   1.114230 S    
N20   H153  1.029572 S    
C27   H55   1.110568 S    
C1    H5    1.111756 S    
P9    O29   1.774068 S    
C72   C74   1.421524 A    
C66   C70   1.410947 A    
O24   C32   1.407016 S    
C110  H146  1.057556 S    
C16   C20   1.521257 S    
N19   H149  1.024242 S    
O17   C21   1.398976 S    
