data_mof_unit_27738.cif
_audit_creation_date              2012-12-11T21:34:25-0500
_audit_creation_method            fapswitch 2.2
_symmetry_space_group_name_H-M    P1
_symmetry_Int_Tables_number       1
_space_group_crystal_system       triclinic
_cell_length_a                    23.340196
_cell_length_b                    29.384166
_cell_length_c                    8.713431
_cell_angle_alpha                 90.002384
_cell_angle_beta                  94.075612
_cell_angle_gamma                 89.980381
_cell_volume                      5960.83871614

loop_
_atom_site_label
_atom_site_type_symbol
_atom_type_description
_atom_site_fract_x
_atom_site_fract_y
_atom_site_fract_z
_atom_type_partial_charge
Ba1   Ba    Ba6+2 0.999920 0.467660 0.844980 1.584653
Ba2   Ba    Ba6+2 0.999920 0.532340 0.344980 1.584620
Ba3   Ba    Ba6+2 0.499920 0.967660 0.844980 1.584647
Ba4   Ba    Ba6+2 0.499920 0.032340 0.344980 1.584652
C1    C     C_3   0.980555 0.249138 0.462009 -0.193570
C2    C     C_3   0.980472 0.750828 0.961914 -0.193559
C3    C     C_3   0.480545 0.749147 0.461931 -0.193561
C4    C     C_3   0.480450 0.250843 0.961948 -0.193565
C5    C     C_R   0.752930 0.333032 0.926002 0.025943
C6    C     C_R   0.752910 0.666938 0.426094 0.025956
C7    C     C_R   0.252926 0.833034 0.926014 0.025945
C8    C     C_R   0.252908 0.166937 0.426102 0.025953
C9    C     C_R   0.717284 0.339051 0.790759 -0.104953
C10   C     C_R   0.717261 0.660918 0.290870 -0.104933
C11   C     C_R   0.217280 0.839051 0.790769 -0.104950
C12   C     C_R   0.217260 0.160917 0.290877 -0.104933
C13   C     C_R   0.181685 0.803779 0.733250 -0.095048
C14   C     C_R   0.181664 0.196199 0.233330 -0.095086
C15   C     C_R   0.681687 0.303779 0.733241 -0.095047
C16   C     C_R   0.681665 0.696200 0.233324 -0.095086
C17   C     C_R   0.180126 0.762071 0.811475 0.030714
C18   C     C_R   0.180116 0.237917 0.311511 0.030703
C19   C     C_R   0.680127 0.262071 0.811466 0.030724
C20   C     C_R   0.680117 0.737918 0.311504 0.030699
C21   C     C_R   0.213977 0.756152 0.950170 0.014206
C22   C     C_R   0.213974 0.243837 0.450183 0.014209
C23   C     C_R   0.713981 0.256151 0.950156 0.014199
C24   C     C_R   0.713977 0.743839 0.450174 0.014208
C25   C     C_R   0.144326 0.726725 0.754369 -0.116467
C26   C     C_R   0.144318 0.273272 0.254385 -0.116525
C27   C     C_R   0.644322 0.226726 0.754364 -0.116460
C28   C     C_R   0.644319 0.773273 0.254379 -0.116521
C29   C     C_R   0.138748 0.685968 0.838019 -0.046197
C30   C     C_R   0.138748 0.314038 0.338004 -0.046222
C31   C     C_R   0.638745 0.185969 0.838013 -0.046198
C32   C     C_R   0.638750 0.814039 0.337999 -0.046225
C33   C     C_R   0.172106 0.679932 0.978688 -0.002217
C34   C     C_R   0.172115 0.320076 0.478644 -0.002250
C35   C     C_R   0.672106 0.179931 0.978677 -0.002210
C36   C     C_R   0.672117 0.820077 0.478638 -0.002252
C37   C     C_R   0.210700 0.714935 0.032178 -0.002576
C38   C     C_R   0.210709 0.285065 0.532146 -0.002575
C39   C     C_R   0.710703 0.214933 0.032163 -0.002577
C40   C     C_R   0.710712 0.785067 0.532138 -0.002573
C41   C     C_R   0.098640 0.652245 0.788318 -0.003435
C42   C     C_R   0.098637 0.347769 0.288300 -0.003535
C43   C     C_R   0.598636 0.152248 0.788315 -0.003489
C44   C     C_R   0.598638 0.847769 0.288298 -0.003526
C45   C     C_3   0.973224 0.302619 0.068178 0.380128
C46   C     C_3   0.973151 0.697375 0.567975 0.380013
C47   C     C_3   0.473214 0.802627 0.068121 0.380119
C48   C     C_3   0.473157 0.197386 0.568141 0.380149
C49   C     C_R   0.085910 0.616414 0.890765 -0.176398
C50   C     C_R   0.085898 0.383609 0.390741 -0.176393
C51   C     C_R   0.585907 0.116416 0.890763 -0.176370
C52   C     C_R   0.585899 0.883609 0.390739 -0.176395
C53   C     C_R   0.123185 0.606743 0.024441 0.074507
C54   C     C_R   0.123181 0.393271 0.524399 0.074631
C55   C     C_R   0.623184 0.106744 0.024436 0.074500
C56   C     C_R   0.623182 0.893272 0.524396 0.074629
C57   C     C_R   0.166992 0.639346 0.066718 -0.072074
C58   C     C_R   0.167004 0.360668 0.566643 -0.072140
C59   C     C_R   0.666993 0.139345 0.066707 -0.072071
C60   C     C_R   0.667006 0.860669 0.566639 -0.072137
C61   C     C_R   0.782874 0.286867 0.149444 -0.012044
C62   C     C_R   0.782858 0.713114 0.649487 -0.012047
C63   C     C_R   0.282866 0.786870 0.149462 -0.012058
C64   C     C_R   0.282855 0.213112 0.649498 -0.012049
C65   C     C_R   0.818805 0.322796 0.209016 -0.010634
C66   C     C_R   0.818783 0.677178 0.709085 -0.010679
C67   C     C_R   0.318798 0.822800 0.209031 -0.010634
C68   C     C_R   0.318780 0.177176 0.709095 -0.010679
C69   C     C_R   0.825941 0.362498 0.117532 -0.048466
C70   C     C_R   0.825927 0.637474 0.617621 -0.048560
C71   C     C_R   0.325937 0.862500 0.117541 -0.048472
C72   C     C_R   0.325925 0.137473 0.617630 -0.048555
C73   C     C_R   0.791106 0.367460 0.979229 -0.060257
C74   C     C_R   0.791087 0.632504 0.479343 -0.060250
C75   C     C_R   0.291103 0.867461 0.979238 -0.060269
C76   C     C_R   0.291086 0.132503 0.479351 -0.060241
C77   C     C_R   0.204633 0.633625 0.199023 -0.059197
C78   C     C_R   0.204661 0.366396 0.698902 -0.059230
C79   C     C_R   0.704636 0.133623 0.199007 -0.059207
C80   C     C_R   0.704662 0.866396 0.698897 -0.059231
C81   C     C_R   0.241505 0.668528 0.253525 0.035355
C82   C     C_R   0.241533 0.331485 0.753427 0.035351
C83   C     C_R   0.741510 0.168525 0.253505 0.035354
C84   C     C_R   0.741535 0.831486 0.753420 0.035348
C85   C     C_R   0.244220 0.709609 0.171399 0.011915
C86   C     C_R   0.244234 0.290393 0.671351 0.011931
C87   C     C_R   0.744225 0.209606 0.171380 0.011919
C88   C     C_R   0.744237 0.790394 0.671343 0.011936
C89   C     C_3   0.943522 0.257148 0.037396 -0.388259
C90   C     C_3   0.943425 0.742856 0.537272 -0.388359
C91   C     C_3   0.443495 0.757167 0.037205 -0.388100
C92   C     C_3   0.443409 0.242851 0.537233 -0.388086
C93   C     C_R   0.779115 0.245856 0.231683 -0.002669
C94   C     C_R   0.779112 0.754134 0.731687 -0.002677
C95   C     C_R   0.279108 0.745860 0.231703 -0.002665
C96   C     C_R   0.279108 0.254132 0.731697 -0.002668
C97   C     C_R   0.274282 0.663481 0.393123 -0.082794
C98   C     C_R   0.274313 0.336533 0.893012 -0.082804
C99   C     C_R   0.774290 0.163476 0.393100 -0.082799
C100  C     C_R   0.774313 0.836533 0.893007 -0.082798
C101  C     C_R   0.805835 0.199870 0.456608 -0.094589
C102  C     C_R   0.805835 0.800124 0.956580 -0.094575
C103  C     C_R   0.305827 0.699875 0.456631 -0.094594
C104  C     C_R   0.305835 0.300123 0.956586 -0.094585
C105  C     C_R   0.807014 0.241929 0.379265 0.045705
C106  C     C_R   0.807003 0.758058 0.879274 0.045677
C107  C     C_R   0.307007 0.741933 0.379285 0.045712
C108  C     C_R   0.307000 0.258057 0.879284 0.045687
C109  C     C_R   0.845063 0.319617 0.361985 -0.040751
C110  C     C_R   0.845033 0.680355 0.862050 -0.040796
C111  C     C_R   0.345057 0.819621 0.361999 -0.040736
C112  C     C_R   0.345031 0.180354 0.862060 -0.040802
C113  C     C_R   0.831512 0.280856 0.452235 0.017448
C114  C     C_R   0.831478 0.719123 0.952285 0.017522
C115  C     C_R   0.331506 0.780861 0.452253 0.017462
C116  C     C_R   0.331475 0.219122 0.952295 0.017494
C117  C     C_R   0.882638 0.355496 0.417240 -0.019537
C118  C     C_R   0.882618 0.644474 0.917308 -0.019462
C119  C     C_R   0.382633 0.855499 0.417248 -0.019521
C120  C     C_R   0.382618 0.144474 0.917316 -0.019514
C121  C     C_R   0.891742 0.392609 0.319635 -0.278645
C122  C     C_R   0.891752 0.607359 0.819702 -0.278776
C123  C     C_R   0.391741 0.892611 0.319639 -0.278660
C124  C     C_R   0.391752 0.107359 0.819709 -0.278805
C125  C     C_R   0.865859 0.396665 0.170046 0.039888
C126  C     C_R   0.865862 0.603312 0.670115 0.040013
C127  C     C_R   0.365858 0.896666 0.170049 0.039879
C128  C     C_R   0.365862 0.103312 0.670122 0.039995
C129  C     C_3   0.196129 0.476199 0.182491 0.364018
C130  C     C_3   0.196128 0.523765 0.682485 0.363992
C131  C     C_3   0.696129 0.976199 0.182488 0.364014
C132  C     C_3   0.696126 0.023767 0.682483 0.363996
C133  C     C_3   0.242841 0.451661 0.095603 -0.374257
C134  C     C_3   0.242843 0.548279 0.595608 -0.374257
C135  C     C_3   0.742842 0.951663 0.095598 -0.374254
C136  C     C_3   0.742837 0.048282 0.595600 -0.374257
C137  C     C_3   0.832033 0.527663 0.986302 0.313545
C138  C     C_3   0.832058 0.472347 0.486348 0.313540
C139  C     C_3   0.332033 0.027663 0.986302 0.313546
C140  C     C_3   0.332056 0.972348 0.486345 0.313540
C141  C     C_3   0.777863 0.556687 0.981949 -0.393844
C142  C     C_3   0.777907 0.443332 0.482122 -0.393786
C143  C     C_3   0.277863 0.056687 0.981948 -0.393852
C144  C     C_3   0.277905 0.943334 0.482113 -0.393788
C145  C     C_3   0.999913 0.290526 0.561225 0.398663
C146  C     C_3   0.999845 0.709455 0.061218 0.398597
C147  C     C_3   0.499908 0.790528 0.561177 0.398655
C148  C     C_3   0.499838 0.209464 0.061205 0.398603
C149  C     C_R   0.750478 0.291830 0.007804 0.014719
C150  C     C_R   0.750464 0.708150 0.507853 0.014720
C151  C     C_R   0.250472 0.791833 0.007820 0.014713
C152  C     C_R   0.250462 0.208148 0.507863 0.014715
H1    H     H_    0.281094 0.473772 0.087783 0.114204
H2    H     H_    0.281096 0.526148 0.587789 0.114209
H3    H     H_    0.781094 0.973774 0.087779 0.114206
H4    H     H_    0.781093 0.026153 0.587781 0.114205
H5    H     H_    0.226408 0.440028 0.980239 0.101265
H6    H     H_    0.226415 0.559924 0.480245 0.101280
H7    H     H_    0.726409 0.940029 0.980234 0.101264
H8    H     H_    0.726407 0.059926 0.480237 0.101288
H9    H     H_    0.844943 0.523142 0.867255 0.026932
H10   H     H_    0.844936 0.476854 0.367271 0.026856
H11   H     H_    0.344944 0.023143 0.867257 0.026937
H12   H     H_    0.344935 0.976856 0.367268 0.026861
H13   H     H_    0.764266 0.561406 0.100495 0.115154
H14   H     H_    0.764349 0.438619 0.600705 0.115169
H15   H     H_    0.264265 0.061406 0.100493 0.115151
H16   H     H_    0.264346 0.938619 0.600696 0.115165
H17   H     H_    0.917987 0.420398 0.363951 0.031237
H18   H     H_    0.918020 0.579568 0.864003 0.031449
H19   H     H_    0.417988 0.920398 0.363951 0.031242
H20   H     H_    0.418021 0.079569 0.864010 0.031462
H21   H     H_    0.009795 0.318174 0.480451 -0.041082
H22   H     H_    0.009752 0.681795 0.980498 -0.040980
H23   H     H_    0.509789 0.818180 0.480417 -0.041063
H24   H     H_    0.509739 0.181810 0.980458 -0.041001
H25   H     H_    0.014738 0.240077 0.384738 0.074235
H26   H     H_    0.014656 0.759868 0.884648 0.074241
H27   H     H_    0.514726 0.740091 0.384652 0.074243
H28   H     H_    0.514619 0.259883 0.884639 0.074247
H29   H     H_    0.967459 0.229700 0.101762 0.109209
H30   H     H_    0.967336 0.770288 0.601735 0.109297
H31   H     H_    0.467339 0.729717 0.101852 0.109066
H32   H     H_    0.467223 0.270296 0.601879 0.109070
H33   H     H_    0.718021 0.370680 0.727108 0.064165
H34   H     H_    0.717995 0.629279 0.227261 0.064147
H35   H     H_    0.218018 0.870681 0.727116 0.064163
H36   H     H_    0.217994 0.129278 0.227267 0.064145
H37   H     H_    0.119053 0.732449 0.647553 0.109072
H38   H     H_    0.119039 0.267546 0.147592 0.109043
H39   H     H_    0.619045 0.232452 0.647556 0.109021
H40   H     H_    0.619040 0.767547 0.147588 0.109062
H41   H     H_    0.792149 0.398460 0.912910 0.102125
H42   H     H_    0.792125 0.601496 0.413057 0.102125
H43   H     H_    0.292147 0.898460 0.912914 0.102126
H44   H     H_    0.292125 0.101496 0.413063 0.102116
H45   H     H_    0.204477 0.602810 0.265291 0.108831
H46   H     H_    0.204514 0.397218 0.765137 0.108850
H47   H     H_    0.704479 0.102808 0.265276 0.108830
H48   H     H_    0.704514 0.897218 0.765134 0.108847
H49   H     H_    0.273844 0.631958 0.456540 0.062266
H50   H     H_    0.273889 0.368066 0.956376 0.062246
H51   H     H_    0.773852 0.131953 0.456514 0.062264
H52   H     H_    0.773887 0.868066 0.956373 0.062246
H53   H     H_    0.948288 0.329283 0.002211 0.093924
H54   H     H_    0.948279 0.670735 0.501772 0.094201
H55   H     H_    0.448295 0.829314 0.002170 0.093945
H56   H     H_    0.448254 0.170700 0.502183 0.093923
H57   H     H_    0.899141 0.258503 0.074999 0.071388
H58   H     H_    0.899038 0.741497 0.574819 0.071421
H59   H     H_    0.399052 0.758562 0.074411 0.071391
H60   H     H_    0.398981 0.241456 0.574434 0.071366
H61   H     H_    0.941595 0.249197 0.912687 0.140770
H62   H     H_    0.941515 0.750837 0.412579 0.140712
H63   H     H_    0.441711 0.749184 0.912505 0.140904
H64   H     H_    0.441619 0.250842 0.412564 0.140856
O1    O     O_2   0.885810 0.435270 0.885040 -0.458081
O2    O     O_2   0.885810 0.564730 0.385040 -0.458093
O3    O     O_2   0.385810 0.935270 0.885040 -0.458089
O4    O     O_2   0.385810 0.064730 0.385040 -0.458091
O5    O     O_3   0.188455 0.477444 0.636532 -0.651921
O6    O     O_3   0.188456 0.522524 0.136549 -0.651868
O7    O     O_3   0.688454 0.977446 0.636532 -0.651920
O8    O     O_3   0.688456 0.022524 0.136549 -0.651869
O9    O     O_3   0.029415 0.300265 0.020361 -0.601652
O10   O     O_3   0.029379 0.699753 0.520434 -0.601741
O11   O     O_3   0.529417 0.800263 0.020365 -0.601664
O12   O     O_3   0.529362 0.199746 0.520396 -0.601637
O13   O     O_3   0.066460 0.522600 0.056690 -0.523274
O14   O     O_3   0.066460 0.477400 0.556690 -0.523278
O15   O     O_3   0.566460 0.022600 0.056690 -0.523277
O16   O     O_3   0.566460 0.977400 0.556690 -0.523279
O17   O     O_3   0.933490 0.477290 0.133000 -0.502932
O18   O     O_3   0.933490 0.522710 0.633000 -0.502918
O19   O     O_3   0.433490 0.977290 0.133000 -0.502933
O20   O     O_3   0.433490 0.022710 0.633000 -0.502919
O21   O     O_3   0.980190 0.395350 0.639000 -0.473329
O22   O     O_3   0.980190 0.604650 0.139000 -0.473357
O23   O     O_3   0.480190 0.895350 0.639000 -0.473331
O24   O     O_3   0.480190 0.104650 0.139000 -0.473338
O25   O     O_2   0.886492 0.363519 0.741404 -0.482723
O26   O     O_2   0.886479 0.636483 0.241468 -0.482776
O27   O     O_2   0.386497 0.863516 0.741420 -0.482739
O28   O     O_2   0.386485 0.136486 0.241482 -0.482710
O29   O     O_3   0.819375 0.485442 0.048115 -0.638937
O30   O     O_3   0.819388 0.514576 0.548136 -0.638982
O31   O     O_3   0.319375 0.985442 0.048115 -0.638934
O32   O     O_3   0.319388 0.014576 0.548138 -0.638983
O33   O     O_3   0.956935 0.302320 0.660249 -0.591438
O34   O     O_3   0.956862 0.697682 0.160221 -0.591552
O35   O     O_3   0.456933 0.802318 0.660216 -0.591469
O36   O     O_3   0.456868 0.197683 0.160238 -0.591489
O37   O     O_2   0.113920 0.434910 0.804950 -0.485183
O38   O     O_2   0.113920 0.565090 0.304950 -0.485184
O39   O     O_2   0.613920 0.934910 0.804950 -0.485182
O40   O     O_2   0.613920 0.065090 0.304950 -0.485180
O41   O     O_3   0.019410 0.395290 0.051170 -0.485347
O42   O     O_3   0.019410 0.604710 0.551170 -0.485411
O43   O     O_3   0.519410 0.895290 0.051170 -0.485374
O44   O     O_3   0.519410 0.104710 0.551170 -0.485382
O45   O     O_2   0.113538 0.355826 0.968823 -0.482959
O46   O     O_2   0.113519 0.644175 0.468837 -0.482991
O47   O     O_2   0.613538 0.855826 0.968822 -0.482946
O48   O     O_2   0.613514 0.144176 0.468828 -0.482979
P1    P     P_3+3 0.880180 0.450420 0.058010 0.965594
P2    P     P_3+3 0.880180 0.549580 0.558010 0.965561
P3    P     P_3+3 0.380180 0.950420 0.058010 0.965586
P4    P     P_3+3 0.380180 0.049580 0.558010 0.965571
P5    P     P_3+3 0.119600 0.450040 0.631910 0.930643
P6    P     P_3+3 0.119600 0.549960 0.131910 0.930654
P7    P     P_3+3 0.619600 0.950040 0.631910 0.930645
P8    P     P_3+3 0.619600 0.049960 0.131910 0.930657
P9    P     P_3+3 0.066295 0.349426 0.083257 0.936358
P10   P     P_3+3 0.066275 0.650576 0.583283 0.936245
P11   P     P_3+3 0.566295 0.849426 0.083257 0.936343
P12   P     P_3+3 0.566270 0.150578 0.583276 0.936313
P13   P     P_3+3 0.925598 0.645032 0.109199 0.936655
P14   P     P_3+3 0.925627 0.354963 0.609157 0.936702
P15   P     P_3+3 0.425601 0.145035 0.109207 0.936757
P16   P     P_3+3 0.425626 0.854964 0.609158 0.936692
C153  C     C_3   0.055491 0.280449 0.659098 -0.277300
H65   H     H_    0.047386 0.256821 0.754534 0.138564
H66   H     H_    0.087858 0.264815 0.588199 0.048055
H67   H     H_    0.073202 0.312592 0.709497 0.142904
C154  C     C_3   0.055405 0.719539 0.159119 -0.277382
H68   H     H_    0.047271 0.743181 0.254513 0.138560
H69   H     H_    0.073133 0.687401 0.209580 0.142950
H70   H     H_    0.087771 0.735159 0.088228 0.048083
C155  C     C_3   0.555486 0.780443 0.659037 -0.277347
H71   H     H_    0.547380 0.756811 0.754463 0.138520
H72   H     H_    0.587851 0.764810 0.588126 0.048084
H73   H     H_    0.573202 0.812582 0.709455 0.142895
C156  C     C_3   0.555408 0.219546 0.159068 -0.277346
H74   H     H_    0.547285 0.243191 0.254465 0.138521
H75   H     H_    0.573138 0.187409 0.209519 0.142936
H76   H     H_    0.587766 0.235164 0.088147 0.048073
H77   H     H_    0.257713 0.420179 0.157331 0.076494
H78   H     H_    0.257714 0.579753 0.657347 0.076487
H79   H     H_    0.757715 0.920180 0.157324 0.076493
H80   H     H_    0.757706 0.079758 0.657334 0.076487
H81   H     H_    0.866207 0.545047 0.059868 0.057037
H82   H     H_    0.866258 0.454964 0.559878 0.057088
H83   H     H_    0.366206 0.045047 0.059870 0.057030
H84   H     H_    0.366256 0.954964 0.559873 0.057077
H85   H     H_    0.742751 0.539716 0.910711 0.124727
H86   H     H_    0.742765 0.460306 0.410952 0.124703
H87   H     H_    0.242752 0.039716 0.910708 0.124729
H88   H     H_    0.242763 0.960310 0.410948 0.124706
H89   H     H_    0.785484 0.590581 0.931851 0.066345
H90   H     H_    0.785531 0.409435 0.432013 0.066343
H91   H     H_    0.285483 0.090581 0.931852 0.066353
H92   H     H_    0.285526 0.909438 0.431995 0.066343
C157  C     C_3   0.965986 0.207158 0.555464 -0.389966
H93   H     H_    0.947656 0.180439 0.476350 0.115723
H94   H     H_    0.005170 0.193188 0.618069 0.118109
H95   H     H_    0.933817 0.215532 0.638849 0.141001
C158  C     C_3   0.965870 0.792827 0.055285 -0.389976
H96   H     H_    0.947521 0.819534 0.976120 0.115737
H97   H     H_    0.933708 0.784471 0.138690 0.141016
H98   H     H_    0.005045 0.806804 0.117868 0.118105
C159  C     C_3   0.465972 0.707161 0.555352 -0.389997
H99   H     H_    0.447645 0.680446 0.476216 0.115731
H100  H     H_    0.505154 0.693188 0.617960 0.118114
H101  H     H_    0.433800 0.715528 0.638730 0.140981
C160  C     C_3   0.465869 0.292839 0.055354 -0.390069
H102  H     H_    0.447477 0.319541 0.976224 0.115749
H103  H     H_    0.433745 0.284481 0.138862 0.141013
H104  H     H_    0.505064 0.306824 0.117807 0.118122
C161  C     C_3   0.823538 0.285102 0.621964 -0.350722
H105  H     H_    0.809389 0.319961 0.646226 0.139674
H106  H     H_    0.787787 0.263426 0.656842 0.098216
H107  H     H_    0.862163 0.274626 0.693667 0.149453
C162  C     C_3   0.823459 0.714888 0.121992 -0.350663
H108  H     H_    0.809324 0.680033 0.146253 0.139641
H109  H     H_    0.862060 0.725362 0.193763 0.149441
H110  H     H_    0.787685 0.736577 0.156775 0.098211
C163  C     C_3   0.323534 0.785108 0.621982 -0.350727
H111  H     H_    0.309384 0.819966 0.646241 0.139669
H112  H     H_    0.287784 0.763431 0.656865 0.098214
H113  H     H_    0.362160 0.774633 0.693683 0.149473
C164  C     C_3   0.323459 0.214888 0.122004 -0.350667
H114  H     H_    0.309324 0.180033 0.146267 0.139632
H115  H     H_    0.362062 0.225361 0.193770 0.149463
H116  H     H_    0.287687 0.236577 0.156791 0.098215
H117  H     H_    0.155476 0.809106 0.627076 0.073059
H118  H     H_    0.155448 0.190873 0.127174 0.073055
H119  H     H_    0.655476 0.309107 0.627071 0.073060
H120  H     H_    0.655448 0.690874 0.127169 0.073061
C165  C     C_3   0.030816 0.590947 0.851954 -0.270646
H121  H     H_    0.998239 0.616324 0.813231 0.033278
H122  H     H_    0.033742 0.563855 0.766494 0.140512
H123  H     H_    0.012204 0.573055 0.942109 0.165042
C166  C     C_3   0.030798 0.409094 0.351940 -0.270503
H124  H     H_    0.998240 0.383721 0.313194 0.033259
H125  H     H_    0.012167 0.426983 0.442118 0.165041
H126  H     H_    0.033723 0.436180 0.266470 0.140575
C167  C     C_3   0.530814 0.090949 0.851953 -0.270643
H127  H     H_    0.498237 0.116326 0.813229 0.033248
H128  H     H_    0.533740 0.063857 0.766494 0.140506
H129  H     H_    0.512204 0.073056 0.942109 0.165041
C168  C     C_3   0.530799 0.909094 0.351938 -0.270500
H130  H     H_    0.498240 0.883722 0.313190 0.033254
H131  H     H_    0.512168 0.926983 0.442117 0.165040
H132  H     H_    0.533724 0.936182 0.266469 0.140579
H133  H     H_    0.942004 0.258696 0.387451 0.088085
H134  H     H_    0.941931 0.741265 0.887349 0.088076
H135  H     H_    0.441993 0.758709 0.387382 0.088083
H136  H     H_    0.441897 0.241288 0.887432 0.088113
H137  H     H_    0.828921 0.195133 0.567719 0.067212
H138  H     H_    0.828909 0.804854 0.067706 0.067197
H139  H     H_    0.328912 0.695138 0.567743 0.067209
H140  H     H_    0.328912 0.304854 0.067708 0.067213
H141  H     H_    0.973270 0.309994 0.193283 -0.092680
H142  H     H_    0.973123 0.689948 0.693035 -0.092514
H143  H     H_    0.473249 0.809983 0.193262 -0.092701
H144  H     H_    0.473193 0.190031 0.693288 -0.092718
C169  C     C_3   0.219295 0.477061 0.345223 -0.284327
H145  H     H_    0.262294 0.493399 0.355383 0.098277
H146  H     H_    0.187254 0.498226 0.396411 0.145678
H147  H     H_    0.222167 0.442478 0.397390 0.074949
C170  C     C_3   0.219291 0.522892 0.845223 -0.284326
H148  H     H_    0.262290 0.506533 0.855388 0.098272
H149  H     H_    0.222160 0.557474 0.897394 0.074946
H150  H     H_    0.187250 0.501745 0.896411 0.145654
C171  C     C_3   0.719296 0.977060 0.345220 -0.284329
H151  H     H_    0.762294 0.993398 0.355383 0.098279
H152  H     H_    0.687254 0.998224 0.396410 0.145679
H153  H     H_    0.722168 0.942477 0.397384 0.074943
C172  C     C_3   0.719291 0.022895 0.845219 -0.284332
H154  H     H_    0.762291 0.006536 0.855381 0.098274
H155  H     H_    0.722160 0.057477 0.897390 0.074944
H156  H     H_    0.687252 0.001748 0.896410 0.145653
C173  C     C_3   0.142005 0.448540 0.170132 -0.235599
H157  H     H_    0.115080 0.461084 0.259425 0.039695
H158  H     H_    0.118606 0.452163 0.058064 0.177621
H159  H     H_    0.153875 0.412606 0.188000 0.033872
C174  C     C_3   0.142004 0.551448 0.670116 -0.235530
H160  H     H_    0.115088 0.538920 0.759424 0.039619
H161  H     H_    0.153869 0.587378 0.687963 0.033914
H162  H     H_    0.118600 0.547824 0.558057 0.177611
C175  C     C_3   0.642006 0.948540 0.170127 -0.235595
H163  H     H_    0.615081 0.961083 0.259420 0.039690
H164  H     H_    0.618607 0.952164 0.058060 0.177622
H165  H     H_    0.653876 0.912605 0.187991 0.033877
C176  C     C_3   0.641999 0.051449 0.670119 -0.235529
H166  H     H_    0.615085 0.038919 0.759428 0.039623
H167  H     H_    0.653863 0.087379 0.687968 0.033904
H168  H     H_    0.618596 0.047825 0.558060 0.177613

loop_
_geom_bond_atom_site_label_1
_geom_bond_atom_site_label_2
_ccdc_geom_bond_type
Ba4   P4    S    
C129  C133  S    
C166  H124  S    
C56   P7    S    
C83   C87   A    
C137  O29   S    
C138  C142  S    
C28   H40   S    
C31   C43   A    
C106  C114  A    
C162  H108  S    
C1    C157  S    
C161  H105  S    
O46   P10   D    
C131  C135  S    
C139  O31   S    
C85   C95   A    
C51   C55   A    
C173  H158  S    
C126  P2    S    
C146  O34   S    
C142  H86   S    
C25   C29   A    
C52   C168  S    
C29   C41   A    
C27   H39   S    
Ba1   O1    S    
O18   P2    S    
C5    C9    A    
C60   C80   A    
Ba3   O15   S    
C7    C11   A    
C8    C12   A    
Ba1   O13   S    
C132  C172  S    
C66   C70   A    
C91   H63   S    
C129  C173  S    
C40   C88   A    
C132  C136  S    
C144  H88   S    
C80   H48   S    
C54   P5    S    
C135  H3    S    
Ba4   O40   S    
O15   P8    S    
C6    C150  A    
C114  C162  S    
C4    C160  S    
C165  H122  S    
C115  C163  S    
C113  C161  S    
C167  H129  S    
C90   H58   S    
C111  C119  A    
C91   H31   S    
C82   C86   A    
C21   C37   A    
C108  C116  A    
C92   H64   S    
C17   C25   A    
C24   C40   A    
C13   C17   A    
C19   C27   A    
C148  H24   S    
C157  H95   S    
C15   C19   A    
C20   C28   A    
O3    P3    D    
O27   P16   D    
C139  H83   S    
O4    P4    D    
Ba2   O13   S    
C147  H23   S    
C64   C68   A    
C134  H6    S    
C5    C73   A    
C164  H116  S    
C148  C156  S    
C7    C75   A    
C83   C99   A    
C166  H126  S    
C169  H145  S    
C175  H165  S    
C162  H110  S    
C161  H107  S    
C61   C65   A    
C11   H35   S    
C143  H91   S    
C68   C112  A    
C147  C155  S    
O5    P5    S    
C2    C158  S    
C48   O12   S    
C80   C84   A    
C128  P4    S    
C53   C57   A    
C3    H27   S    
C172  H154  S    
C55   C59   A    
C92   H60   S    
O11   P11   S    
C56   C60   A    
O12   P12   S    
C153  H66   S    
C168  H130  S    
C133  H5    S    
C101  H137  S    
C62   C66   A    
O8    P8    S    
Ba3   O39   S    
O13   P6    S    
C103  H139  S    
Ba4   O19   S    
C118  P13   S    
C123  C127  A    
C121  C125  A    
C158  H96   S    
C48   H56   S    
C69   C73   A    
C74   H42   S    
C45   C89   S    
C176  H166  S    
C175  H163  S    
C71   C75   A    
C47   C91   S    
C116  C164  S    
C170  H149  S    
C37   C85   A    
O38   P6    D    
C174  H160  S    
C6    C74   A    
C1    C145  S    
Ba2   O42   S    
C65   C109  A    
C138  H82   S    
C2    H26   S    
C28   C32   A    
C4    C148  S    
C99   H51   S    
C14   H118  S    
O43   P11   S    
C144  H92   S    
C145  O33   S    
C42   P9    S    
Ba3   P3    S    
O26   P13   D    
C89   H61   S    
C78   H46   S    
C159  H100  S    
C130  C174  S    
C61   C149  A    
C169  H147  S    
C30   C42   A    
C135  H79   S    
C7    C151  A    
Ba3   O20   S    
C136  H80   S    
C41   C49   A    
C156  H75   S    
C8    C152  A    
C84   C100  A    
C163  H112  S    
C172  H156  S    
C26   C30   A    
C47   O11   S    
C130  O5    S    
C6    C10   A    
C168  H132  S    
C46   C90   S    
C112  C116  A    
C38   C86   A    
C64   C96   A    
C117  C121  A    
C155  H71   S    
C23   C39   A    
O23   P16   S    
C138  H10   S    
C47   H143  S    
C134  H2    S    
C119  C123  A    
Ba4   O44   S    
C158  H98   S    
C95   C107  A    
C55   P8    S    
C154  H68   S    
C127  P3    S    
C99   C101  A    
C144  H16   S    
C176  H168  S    
O39   P7    D    
Ba2   O22   S    
C139  H11   S    
C97   H49   S    
C109  C113  A    
C111  C115  A    
C70   C74   A    
Ba3   Ba4   S    
C82   C98   A    
C174  H162  S    
C22   C38   A    
C171  H152  S    
Ba4   O16   S    
C3    H135  S    
C17   C21   A    
Ba3   O3    S    
C18   C26   A    
O36   P15   S    
C14   C18   A    
C103  C107  A    
C20   C24   A    
C122  H18   S    
Ba2   O17   S    
Ba3   P7    S    
C137  C141  S    
C136  H8    S    
C109  C117  A    
C137  H9    S    
C133  H1    S    
C49   C165  S    
C62   C94   A    
C135  H7    S    
C93   C105  A    
C57   C77   A    
C173  H157  S    
C52   C56   A    
C72   C128  A    
C45   H141  S    
Ba4   O15   S    
C32   C44   A    
C33   C37   A    
C10   H34   S    
C36   C40   A    
O41   P9    S    
C46   H54   S    
C143  H87   S    
C34   C58   A    
C131  C175  S    
Ba4   O24   S    
C77   C81   A    
C54   C58   A    
C79   C83   A    
C25   H37   S    
C94   C106  A    
O21   P14   S    
C100  C102  A    
C165  H121  S    
C105  C113  A    
C167  H128  S    
O14   P5    S    
C130  C170  S    
C147  O35   S    
C155  H73   S    
C119  P16   S    
C102  C106  A    
C163  H113  S    
C122  C126  A    
Ba2   O2    S    
C154  H70   S    
C63   C151  A    
C156  H74   S    
C157  H94   S    
C81   C97   A    
C101  C105  A    
Ba2   O14   S    
C3    C159  S    
C65   C69   A    
C164  H115  S    
Ba2   P6    S    
C63   C95   A    
C120  C124  A    
C58   C78   A    
C166  H125  S    
C48   H144  S    
O2    P2    D    
C1    H25   S    
C90   H30   S    
C162  H109  S    
Ba1   O37   S    
C161  H106  S    
C123  H19   S    
Ba2   P2    S    
C141  H13   S    
C124  H20   S    
C75   H43   S    
C9    C15   A    
C89   H57   S    
O29   P1    S    
C129  O6    S    
C79   H47   S    
C173  H159  S    
C62   C150  A    
C81   C85   A    
C77   H45   S    
C78   C82   A    
C29   C33   A    
C104  C108  A    
C59   C79   A    
C134  H78   S    
C31   C35   A    
C153  H65   S    
C10   C16   A    
Ba3   O16   S    
C104  H140  S    
Ba1   O14   S    
C42   C50   A    
C87   C93   A    
C51   C167  S    
C3    C147  S    
O9    P9    S    
C132  O7    S    
O10   P10   S    
C96   C108  A    
C27   C31   A    
C70   C126  A    
C165  H123  S    
C43   P12   S    
C148  O36   S    
C170  H148  S    
C44   P11   S    
C11   C13   A    
O24   P15   S    
C49   C53   A    
C112  C120  A    
C76   H44   S    
O48   P12   D    
O16   P7    S    
C168  H131  S    
O7    P7    S    
C102  H138  S    
O45   P9    D    
C26   H38   S    
C69   C125  A    
C137  H81   S    
O47   P11   D    
C142  H90   S    
C131  C171  S    
C63   C67   A    
C100  H52   S    
C45   O9    S    
C159  H99   S    
C2    C146  S    
C141  H85   S    
Ba1   P1    S    
C41   P10   S    
C18   C22   A    
C45   H53   S    
C169  H146  S    
O17   P1    S    
O6    P6    S    
C73   H41   S    
O28   P15   D    
C136  H4    S    
C140  H84   S    
C133  H77   S    
C89   H29   S    
C23   C149  A    
C138  O30   S    
C21   C151  A    
C91   H59   S    
C160  H102  S    
C92   H32   S    
C22   C152  A    
C140  C144  S    
C121  H17   S    
C9    H33   S    
C88   C94   A    
C163  H111  S    
C66   C110  A    
C139  C143  S    
C172  H155  S    
C140  H12   S    
C107  C115  A    
C34   C38   A    
C153  H67   S    
C175  H164  S    
C13   H117  S    
C129  C169  S    
O42   P10   S    
C90   H62   S    
C15   H119  S    
Ba1   Ba2   S    
C12   H36   S    
C154  H69   S    
C16   C20   A    
C141  H89   S    
C158  H97   S    
O35   P16   S    
C46   O10   S    
C19   C23   A    
C176  H167  S    
O22   P13   S    
Ba1   P5    S    
C146  H22   S    
C170  H150  S    
C1    H133  S    
C4    H28   S    
C140  O32   S    
C4    H136  S    
C24   C150  A    
C132  C176  S    
C124  C128  A    
C86   C96   A    
C174  H161  S    
C143  H15   S    
C131  O8    S    
Ba4   P8    S    
C84   C88   A    
C32   C36   A    
O31   P3    S    
C98   H50   S    
O32   P4    S    
C35   C39   A    
C156  H76   S    
Ba4   O4    S    
C39   C87   A    
O33   P14   S    
O40   P8    D    
C118  C122  A    
C159  H101  S    
C171  H153  S    
C50   C166  S    
C46   H142  S    
C145  H21   S    
C160  H103  S    
C67   C111  A    
C68   C72   A    
Ba3   O23   S    
C98   C104  A    
C110  C114  A    
Ba1   O21   S    
Ba1   O41   S    
Ba2   O38   S    
Ba3   O43   S    
C142  H14   S    
C160  H104  S    
C72   C76   A    
C117  P14   S    
O30   P2    S    
O25   P14   D    
O1    P1    D    
C43   C51   A    
C50   C54   A    
C120  P15   S    
C44   C52   A    
C2    H134  S    
C30   C34   A    
C145  C153  S    
C64   C152  A    
C130  C134  S    
C33   C57   A    
Ba1   O18   S    
C35   C59   A    
C167  H127  S    
O37   P5    D    
C36   C60   A    
O19   P3    S    
O20   P4    S    
C16   H120  S    
C61   C93   A    
C155  H72   S    
C67   C71   A    
C171  H151  S    
C8    C76   A    
O44   P12   S    
C48   C92   S    
C157  H93   S    
C125  P1    S    
C5    C149  A    
C110  C118  A    
O34   P13   S    
C47   H55   S    
C71   C127  A    
C12   C14   A    
C97   C103  A    
C146  C154  S    
C164  H114  S    
C53   P6    S    
