data_mof_unit_37390.cif
_audit_creation_date              2012-12-11T14:14:14-0500
_audit_creation_method            fapswitch 2.2
_symmetry_space_group_name_H-M    P1
_symmetry_Int_Tables_number       1
_space_group_crystal_system       triclinic
_cell_length_a                    17.058778
_cell_length_b                    7.248424
_cell_length_c                    16.889581
_cell_angle_alpha                 90.000042
_cell_angle_beta                  99.543507
_cell_angle_gamma                 89.999932
_cell_volume                      2059.48086516

loop_
_atom_site_label
_atom_site_type_symbol
_atom_type_description
_atom_site_fract_x
_atom_site_fract_y
_atom_site_fract_z
_atom_type_partial_charge
O1    O     O_R   0.414560 0.494370 0.416770 -0.540912
O2    O     O_R   0.585440 0.994370 0.583230 -0.540913
O3    O     O_R   0.578370 0.819590 0.429320 -0.541811
O4    O     O_R   0.421630 0.319590 0.570680 -0.541811
C1    C     C_R   0.605355 0.657270 0.414375 0.724399
C2    C     C_R   0.394645 0.157271 0.585625 0.724407
O5    O     O_R   0.414740 0.823790 0.407360 -0.537895
O6    O     O_R   0.585260 0.323790 0.592640 -0.537895
O7    O     O_R   0.420650 0.998510 0.561120 -0.537297
O8    O     O_R   0.579350 0.498510 0.438880 -0.537299
C3    C     C_R   0.387900 0.655029 0.385239 0.733430
C4    C     C_R   0.612100 0.155029 0.614761 0.733425
O9    O     O_3   0.502130 0.662240 0.550470 -0.379314
O10   O     O_3   0.497870 0.162240 0.449530 -0.379315
V1    V     V_3+5 0.499600 0.935390 0.490640 1.397503
V2    V     V_3+5 0.500400 0.435390 0.509360 1.397504
C5    C     C_2   0.785185 0.271858 0.788280 -0.132284
C6    C     C_2   0.214815 0.771858 0.211719 -0.132279
C7    C     C_2   0.820954 0.113488 0.816926 -0.307792
C8    C     C_2   0.179046 0.613488 0.183074 -0.307790
H1    H     H_    0.806592 0.402028 0.815494 0.140860
H2    H     H_    0.193408 0.902028 0.184505 0.140859
H3    H     H_    0.801504 0.981903 0.790358 0.129388
H4    H     H_    0.198496 0.481903 0.209642 0.129387
C9    C     C_2   0.717358 0.284730 0.720141 -0.137498
C10   C     C_2   0.282642 0.784730 0.279858 -0.137492
C11   C     C_2   0.678934 0.138662 0.682602 -0.305380
C12   C     C_2   0.321066 0.638662 0.317398 -0.305376
H5    H     H_    0.698314 0.422916 0.700906 0.138300
H6    H     H_    0.301686 0.922916 0.299093 0.138300
H7    H     H_    0.696424 0.999651 0.701216 0.131605
H8    H     H_    0.303575 0.499651 0.298784 0.131604
C13   C     C_R   0.330762 0.163622 0.636057 -0.119352
C14   C     C_R   0.669239 0.663621 0.363944 -0.119319
C15   C     C_R   0.165971 0.104492 0.860911 -0.086459
C16   C     C_R   0.834030 0.604493 0.139090 -0.086478
C17   C     C_R   0.264284 0.918697 0.806299 -0.125227
C18   C     C_R   0.735713 0.418703 0.193698 -0.125244
C19   C     C_R   0.213440 0.944694 0.862030 -0.150073
C20   C     C_R   0.786557 0.444700 0.137967 -0.150056
C21   C     C_R   0.172512 0.241425 0.803556 -0.213294
C22   C     C_R   0.827493 0.741420 0.196448 -0.213253
C23   C     C_R   0.223929 0.216219 0.746564 0.064399
C24   C     C_R   0.776075 0.716215 0.253440 0.064432
C25   C     C_R   0.269767 0.052244 0.747814 0.087995
C26   C     C_R   0.730233 0.552246 0.252186 0.087967
C27   C     C_R   0.321877 0.025738 0.692017 -0.233155
C28   C     C_R   0.678123 0.525740 0.307983 -0.233148
C29   C     C_R   0.283817 0.324446 0.634320 -0.248880
C30   C     C_R   0.716186 0.824442 0.365683 -0.248925
C31   C     C_R   0.229862 0.350527 0.687756 0.378944
C32   C     C_R   0.770146 0.850520 0.312250 0.378960
H9    H     H_    0.358195 0.902414 0.694782 0.138505
H10   H     H_    0.641803 0.402419 0.305215 0.138497
H11   H     H_    0.290575 0.434355 0.592504 0.139109
H12   H     H_    0.709422 0.934351 0.407497 0.139071
H13   H     H_    0.299044 0.793037 0.808744 0.134015
H14   H     H_    0.700950 0.293048 0.191250 0.134007
H15   H     H_    0.210245 0.836530 0.905645 0.130219
H16   H     H_    0.789750 0.336540 0.094350 0.130217
H17   H     H_    0.135500 0.363378 0.801551 0.159126
H18   H     H_    0.864508 0.863368 0.198456 0.159144
O11   O     O_R   0.920750 0.773600 0.061260 -0.534807
O12   O     O_R   0.079250 0.273600 0.938740 -0.534807
O13   O     O_R   0.085340 0.439850 0.092570 -0.541468
O14   O     O_R   0.914660 0.939850 0.907430 -0.541467
C33   C     C_R   0.112148 0.608289 0.114782 0.732891
C34   C     C_R   0.887852 0.108289 0.885218 0.732890
O15   O     O_R   0.921720 0.444130 0.070790 -0.540917
O16   O     O_R   0.078280 0.944130 0.929210 -0.540920
O17   O     O_R   0.914480 0.269530 0.916840 -0.536407
O18   O     O_R   0.085520 0.769530 0.083160 -0.536407
C35   C     C_R   0.895955 0.610771 0.086345 0.688211
C36   C     C_R   0.104045 0.110771 0.913655 0.688205
O19   O     O_3   0.997840 0.601520 0.949550 -0.377815
O20   O     O_3   0.002160 0.101520 0.050450 -0.377815
V3    V     V_3+5 0.000400 0.328340 0.009360 1.398702
V4    V     V_3+5 0.999600 0.828340 0.990640 1.398700
O21   O     O_3   0.189997 0.516726 0.688556 -0.577551
C37   C     C_3   0.128401 0.524825 0.621553 0.058473
H19   H     H_    0.086498 0.407002 0.622518 0.119863
H20   H     H_    0.152919 0.521937 0.564404 0.118597
C38   C     C_3   0.082615 0.705195 0.624943 -0.258007
H21   H     H_    0.057402 0.710015 0.681537 0.195989
H22   H     H_    0.123974 0.823763 0.624798 0.202810
C39   C     C_3   0.015216 0.723236 0.553595 -0.882595
H23   H     H_    0.039262 0.723134 0.496362 0.230842
H24   H     H_    0.983064 0.855010 0.558144 0.233560
H25   H     H_    0.972473 0.607462 0.553146 0.238448
O22   O     O_3   0.810020 0.016710 0.311449 -0.577554
C40   C     C_3   0.871547 0.024925 0.378511 0.058486
H26   H     H_    0.913423 0.906996 0.377686 0.119856
H27   H     H_    0.846948 0.022336 0.435615 0.118610
C41   C     C_3   0.917409 0.205166 0.375057 -0.258018
H28   H     H_    0.942709 0.209680 0.318510 0.195960
H29   H     H_    0.876080 0.323838 0.375055 0.202849
C42   C     C_3   0.984728 0.223345 0.446471 -0.882618
H30   H     H_    0.960597 0.223536 0.503655 0.230850
H31   H     H_    0.016935 0.355024 0.441876 0.233566
H32   H     H_    0.027443 0.107475 0.447062 0.238454

loop_
_geom_bond_atom_site_label_1
_geom_bond_atom_site_label_2
_ccdc_geom_bond_type
O14   C34   A    
C15   C36   S    
C20   H16   S    
O16   V4    S    
O12   V3    S    
C8    C33   S    
C16   C22   A    
C6    C10   S    
C21   H17   S    
O2    C4    A    
C2    O7    A    
C42   H30   S    
C28   H10   S    
C15   C19   A    
C39   H24   S    
C13   C29   A    
C33   O18   A    
O18   V4    S    
C18   H14   S    
C32   O22   S    
C8    H4    S    
C29   C31   A    
O1    C3    A    
O16   C36   A    
C30   C32   A    
O15   C35   A    
C22   H18   S    
C27   H9    S    
C24   C32   A    
O5    V1    S    
O6    V2    S    
C21   C23   A    
C22   C24   A    
C37   C38   S    
C42   H31   S    
C24   C26   A    
C25   C27   A    
C9    H5    S    
O14   V4    S    
C26   C28   A    
C14   C30   A    
O13   V3    S    
C4    C11   S    
C11   H7    S    
C12   H8    S    
O20   V3    S    
C37   H20   S    
C40   H26   S    
C7    H3    S    
O11   C35   A    
C41   C42   S    
O13   C33   A    
C29   H11   S    
C30   H12   S    
O4    V2    S    
O5    C3    A    
C40   H27   S    
C38   H21   S    
C16   C20   A    
O6    C4    A    
C19   H15   S    
C1    C14   S    
C7    C34   S    
O1    V2    S    
C41   H29   S    
O2    V1    S    
C23   C25   A    
O4    C2    A    
C38   H22   S    
C10   H6    S    
C13   C27   A    
C14   C28   A    
C17   C25   A    
O17   V3    S    
C42   H32   S    
O3    V1    S    
C39   H23   S    
C6    H2    S    
C37   H19   S    
O3    C1    A    
C39   H25   S    
C9    C11   D    
C10   C12   D    
C2    C13   S    
C5    C9    S    
O7    V1    S    
C1    O8    A    
C17   C19   A    
O8    V2    S    
C40   C41   S    
C18   C20   A    
O15   V3    S    
O22   C40   S    
C3    C12   S    
C23   C31   A    
C34   O17   A    
C5    C7    D    
C6    C8    D    
C41   H28   S    
C15   C21   A    
O19   V4    S    
C31   O21   S    
C18   C26   A    
C16   C35   S    
O21   C37   S    
C38   C39   S    
O9    V2    S    
O12   C36   A    
O10   V1    S    
C17   H13   S    
O11   V4    S    
C5    H1    S    
