data_mof_unit_8322.cif
_audit_creation_date              2012-12-10T19:00:00-0500
_audit_creation_method            fapswitch 2.2
_symmetry_space_group_name_H-M    P1
_symmetry_Int_Tables_number       1
_space_group_crystal_system       triclinic
_cell_length_a                    10.735498
_cell_length_b                    10.789622
_cell_length_c                    9.789294
_cell_angle_alpha                 91.128035
_cell_angle_beta                  91.510824
_cell_angle_gamma                 89.078186
_cell_volume                      1133.16178703

loop_
_atom_site_label
_atom_site_type_symbol
_atom_type_description
_atom_site_fract_x
_atom_site_fract_y
_atom_site_fract_z
_atom_type_partial_charge
C1    C     C_R   0.496530 0.259770 0.498124 0.883031
C2    C     C_R   0.517545 0.069045 0.620119 -0.236235
C3    C     C_R   0.505151 0.872776 0.504667 -0.090351
C4    C     C_R   0.494921 0.127222 0.495344 -0.090338
C5    C     C_R   0.575471 0.577857 0.075910 -0.064939
C6    C     C_R   0.424544 0.422129 0.924091 -0.065030
C7    C     C_R   0.575915 0.577362 0.931743 -0.051296
C8    C     C_R   0.424096 0.422628 0.068257 -0.051814
C9    C     C_R   0.260006 0.497694 0.497775 0.901653
C10   C     C_R   0.739992 0.502316 0.502223 0.901555
C11   C     C_R   0.215534 0.820053 0.198478 -0.221445
C12   C     C_R   0.503491 0.740229 0.501879 0.883074
C13   C     C_R   0.784685 0.180064 0.801823 -0.221302
C14   C     C_R   0.169056 0.758249 0.310875 0.166892
C15   C     C_R   0.830994 0.241839 0.689322 0.166750
C16   C     C_R   0.121515 0.637826 0.291349 0.175047
C17   C     C_R   0.878516 0.362274 0.708712 0.175148
C18   C     C_R   0.125399 0.580332 0.161777 -0.257331
C19   C     C_R   0.874743 0.419830 0.838247 -0.257079
C20   C     C_R   0.174716 0.641366 0.051721 -0.280381
C21   C     C_R   0.825618 0.358821 0.948426 -0.281079
C22   C     C_R   0.217842 0.763974 0.068188 0.589164
C23   C     C_R   0.872563 0.507212 0.507214 -0.154923
C24   C     C_R   0.782549 0.236159 0.932105 0.589311
C25   C     C_R   0.931910 0.583101 0.414115 0.126696
C26   C     C_R   0.068085 0.416901 0.585851 0.126725
C27   C     C_3   0.216567 0.802118 0.834242 -0.350300
C28   C     C_3   0.783239 0.198956 0.166310 -0.350149
C29   C     C_3   0.169566 0.821467 0.449493 -0.950519
C30   C     C_3   0.830388 0.178559 0.550743 -0.950608
C31   C     C_3   0.860623 0.679045 0.329075 -0.867790
C32   C     C_3   0.139395 0.320982 0.670900 -0.867944
C33   C     C_3   0.440806 0.113516 0.236128 -0.849699
C34   C     C_R   0.127433 0.492799 0.492770 -0.154958
C35   C     C_3   0.559230 0.886480 0.763893 -0.849383
C36   C     C_R   0.939757 0.428662 0.597336 -0.030436
C37   C     C_R   0.060242 0.571353 0.402649 -0.030424
C38   C     C_R   0.474846 0.057856 0.373107 0.169858
C39   C     C_R   0.525231 0.942143 0.626909 0.169672
C40   C     C_R   0.482565 0.930956 0.379892 -0.236128
H1    H     H_    0.637398 0.638091 0.879966 0.124658
H2    H     H_    0.531590 0.122964 0.713620 0.187484
H3    H     H_    0.635112 0.640431 0.133801 0.130821
H4    H     H_    0.364921 0.359541 0.866201 0.130791
H5    H     H_    0.113126 0.796338 0.836294 0.162272
H6    H     H_    0.258559 0.715248 0.791879 0.193949
H7    H     H_    0.238637 0.877548 0.763844 0.207526
H8    H     H_    0.740092 0.285626 0.207804 0.194492
H9    H     H_    0.886626 0.205792 0.164899 0.162261
H10   H     H_    0.761591 0.123572 0.236982 0.207592
H11   H     H_    0.073339 0.830055 0.487555 0.244436
H12   H     H_    0.362619 0.361893 0.120034 0.124765
H13   H     H_    0.227074 0.766300 0.522607 0.234642
H14   H     H_    0.208940 0.915899 0.446483 0.248572
H15   H     H_    0.926586 0.169963 0.512613 0.244481
H16   H     H_    0.791025 0.084130 0.553840 0.248628
H17   H     H_    0.772829 0.233699 0.477650 0.234611
H18   H     H_    0.769315 0.705685 0.372007 0.236418
H19   H     H_    0.911925 0.767223 0.326613 0.234823
H20   H     H_    0.847470 0.643038 0.222794 0.235202
H21   H     H_    0.088013 0.232889 0.673660 0.234820
H22   H     H_    0.230581 0.294179 0.627787 0.236314
H23   H     H_    0.248872 0.913661 0.211468 0.158106
H24   H     H_    0.152797 0.357127 0.777074 0.235294
H25   H     H_    0.354993 0.171506 0.245333 0.226010
H26   H     H_    0.518546 0.169076 0.199230 0.286953
H27   H     H_    0.421781 0.041794 0.155678 0.241269
H28   H     H_    0.645081 0.828529 0.754721 0.225940
H29   H     H_    0.578178 0.958206 0.844383 0.241165
H30   H     H_    0.481482 0.830876 0.800725 0.287237
H31   H     H_    0.751371 0.086439 0.788928 0.158111
H32   H     H_    0.089857 0.487560 0.146076 0.153634
H33   H     H_    0.910285 0.512607 0.853844 0.153637
H34   H     H_    0.178520 0.592126 0.954601 0.149469
H35   H     H_    0.822000 0.408123 0.045517 0.149292
H36   H     H_    0.468562 0.877038 0.286388 0.187565
N1    N     N_R   0.499970 0.499970 0.857200 -0.081791
N2    N     N_R   0.500030 0.500030 0.142800 -0.081903
O1    O     O_R   0.499990 0.316750 0.614620 -0.627535
O2    O     O_3   0.730977 0.169056 0.036171 -0.625637
O3    O     O_R   0.500010 0.683250 0.385380 -0.627530
O4    O     O_R   0.499990 0.316780 0.385290 -0.625948
O5    O     O_R   0.500010 0.683220 0.614710 -0.625773
O6    O     O_R   0.316760 0.500000 0.614660 -0.626135
O7    O     O_R   0.683240 0.500000 0.385340 -0.626381
O8    O     O_R   0.316760 0.500020 0.385330 -0.615129
O9    O     O_R   0.683240 0.499980 0.614670 -0.615169
O10   O     O_3   0.269833 0.830885 0.964252 -0.625603
Zn1   Zn    Zn3+2 0.500000 0.499980 0.653120 0.939409
Zn2   Zn    Zn3+2 0.500000 0.500020 0.346880 0.939193

loop_
_geom_bond_atom_site_label_1
_geom_bond_atom_site_label_2
_ccdc_geom_bond_type
C25   C31   S    
C10   O7    A    
C26   C32   S    
C34   C37   A    
C2    C4    A    
C33   H25   S    
N2    Zn2   S    
N1    Zn1   S    
C31   H18   S    
C19   C21   A    
C32   H21   S    
C11   H23   S    
C11   C14   A    
C29   H14   S    
C30   H17   S    
C31   H19   S    
C3    C12   S    
C25   C37   A    
C28   H10   S    
C2    C39   A    
C26   C34   A    
C35   H30   S    
C17   C36   S    
C22   O10   S    
C8    H12   S    
C16   C37   S    
C7    N1    A    
C27   H5    S    
C7    H1    S    
C5    H3    S    
C3    C39   A    
C6    H4    S    
C8    N2    A    
C24   O2    S    
C33   H26   S    
C18   H32   S    
O5    Zn1   S    
C10   O9    A    
C19   H33   S    
C32   H24   S    
O8    Zn2   S    
C5    C7    A    
C6    N1    A    
C6    C8    A    
C13   H31   S    
C1    O4    A    
C30   H16   S    
C40   H36   S    
C12   O5    A    
C31   H20   S    
C35   C39   S    
C9    O8    A    
C28   H9    S    
C20   H34   S    
C35   H29   S    
O3    Zn2   S    
C27   H6    S    
C26   C36   A    
C4    C38   A    
C3    C40   A    
C13   C15   A    
C9    C34   S    
C1    O1    A    
C14   C16   A    
O6    Zn1   S    
C14   C29   S    
C33   H27   S    
C15   C30   S    
C29   H11   S    
C27   H7    S    
C15   C17   A    
C28   H8    S    
C20   C22   A    
O7    Zn2   S    
C10   C23   S    
C30   H15   S    
C21   H35   S    
C11   C22   A    
C33   C38   S    
O4    Zn2   S    
C1    C4    S    
O9    Zn1   S    
C32   H22   S    
C38   C40   A    
C29   H13   S    
C35   H28   S    
C2    H2    S    
C17   C19   A    
C12   O3    A    
C18   C20   A    
C23   C25   A    
C27   O10   S    
C28   O2    S    
O1    Zn1   S    
C9    O6    A    
C13   C24   A    
C16   C18   A    
C23   C36   A    
C21   C24   A    
C5    N2    A    
