data_mof_unit_43228.cif
_audit_creation_date              2013-03-05T15:48:45-0500
_audit_creation_method            fapswitch 2.2
_symmetry_space_group_name_H-M    P1
_symmetry_Int_Tables_number       1
_space_group_crystal_system       triclinic
_cell_length_a                    10.924741
_cell_length_b                    13.039397
_cell_length_c                    11.869529
_cell_angle_alpha                 99.826881
_cell_angle_beta                  92.735345
_cell_angle_gamma                 96.223882
_cell_volume                      1652.42090284

loop_
_atom_site_label
_atom_site_type_symbol
_atom_site_description
_atom_site_fract_x
_atom_site_fract_y
_atom_site_fract_z
_atom_type_partial_charge
O1    O     O_R   0.506640 0.354460 0.582000 -0.554895
O2    O     O_R   0.490840 0.341410 0.386200 -0.576800
C1    C     C_R   0.489250 0.299569 0.478584 0.873563
O3    O     O_R   0.325590 0.506510 0.597900 -0.523934
O4    O     O_R   0.309790 0.493450 0.402100 -0.593170
C2    C     C_R   0.260086 0.494011 0.500566 0.916094
Cu1   Cu    Cu3+1 0.509350 0.507730 0.615930 1.142110
Cu2   Cu    Cu3+1 0.490650 0.492270 0.384070 1.120214
O5    O     O_R   0.509160 0.658590 0.613800 -0.544677
O6    O     O_R   0.493360 0.645540 0.418000 -0.514803
O7    O     O_R   0.690210 0.506550 0.597900 -0.535027
O8    O     O_R   0.674410 0.493490 0.402100 -0.497908
C3    C     C_R   0.500987 0.700990 0.521047 0.973916
C4    C     C_R   0.736155 0.482815 0.497627 0.935969
C5    C     C_3   0.071620 0.417005 0.590586 -0.357272
H1    H     H_    0.115491 0.453770 0.675731 0.264585
H2    H     H_    0.106839 0.340277 0.577771 0.266351
C6    C     C_3   0.926313 0.405814 0.592014 0.516432
H3    H     H_    0.909378 0.618530 0.617460 0.310214
C7    C     C_3   0.077694 0.594406 0.527904 0.217822
C8    C     C_3   0.064361 0.426306 0.379362 0.008644
C9    C     C_3   0.121404 0.482679 0.501313 -0.297975
H4    H     H_    0.103043 0.476813 0.320354 0.188998
C10   C     C_3   0.874606 0.470578 0.497099 -0.360985
C11   C     C_3   0.936649 0.585451 0.531894 -0.430389
C12   C     C_3   0.918170 0.422898 0.370729 0.450400
H5    H     H_    0.100229 0.633538 0.454724 0.200665
H6    H     H_    0.900011 0.636999 0.476457 0.241852
C13   C     C_R   0.504470 0.815926 0.529672 -0.263480
C14   C     C_R   0.472420 0.186030 0.467123 -0.014465
C15   C     C_R   0.388521 0.013791 0.366097 -0.048873
C16   C     C_R   0.405529 0.122319 0.372487 -0.117601
C17   C     C_R   0.520382 0.141245 0.555103 -0.025451
C18   C     C_R   0.512145 0.033441 0.545297 -0.000777
C19   C     C_R   0.445571 0.967279 0.450746 0.034676
C20   C     C_R   0.437546 0.857555 0.444637 0.292925
C21   C     C_R   0.579285 0.885986 0.617137 0.364798
C22   C     C_R   0.575252 0.992704 0.627826 -0.136715
H7    H     H_    0.331953 0.968061 0.294061 0.213175
H8    H     H_    0.628387 0.045509 0.698064 0.222628
H9    H     H_    0.364031 0.156509 0.305164 0.197932
H10   H     H_    0.569433 0.190499 0.629987 0.217282
N1    N     N_R   0.523430 0.519360 0.790130 -0.286013
N2    N     N_R   0.476570 0.480640 0.209880 -0.272735
C23   C     C_R   0.380109 0.404123 0.026578 0.277075
C24   C     C_R   0.392434 0.409880 0.144835 -0.009241
C25   C     C_R   0.558966 0.550304 0.159830 0.580932
C26   C     C_R   0.556365 0.543377 0.034153 -0.207037
C27   C     C_R   0.464973 0.465636 0.969341 -0.222833
C28   C     C_R   0.460637 0.448921 0.846684 0.530891
C29   C     C_R   0.599767 0.598936 0.847638 0.067799
C30   C     C_R   0.631913 0.608773 0.964737 0.357217
H11   H     H_    0.646861 0.646163 0.794485 0.258129
H12   H     H_    0.329523 0.361212 0.186606 0.200910
N3    N     N_R   0.887193 0.490764 0.287540 0.149443
O9    O     O_R   0.957829 0.576949 0.283104 -0.322221
O10   O     O_R   0.801188 0.458091 0.205500 -0.228577
N4    N     N_R   0.361228 0.789241 0.353801 0.147017
O11   O     O_R   0.379097 0.792530 0.246878 -0.294442
O12   O     O_R   0.271411 0.724573 0.377682 -0.333086
S1    S     S_3+6 0.689342 0.849129 0.710681 0.049937
O13   O     O_2   0.627087 0.831612 0.817074 -0.255892
O14   O     O_2   0.741105 0.752202 0.655338 -0.294892
O15   O     O_3   0.805983 0.946677 0.746275 -0.461071
H13   H     H_    0.854848 0.927340 0.810199 0.400433
N5    N     N_R   0.403350 0.351106 0.782296 0.151972
O16   O     O_R   0.439110 0.263785 0.803098 -0.331668
O17   O     O_R   0.308355 0.347802 0.711203 -0.320402
N6    N     N_R   0.270960 0.344141 0.967762 0.179086
O18   O     O_R   0.237070 0.250291 0.987144 -0.242276
O19   O     O_R   0.192394 0.391509 0.916000 -0.251796
S2    S     S_3+6 0.780196 0.689373 0.990681 0.141252
O20   O     O_2   0.775801 0.787666 0.076628 -0.169650
O21   O     O_2   0.877062 0.625393 0.026357 -0.168047
O22   O     O_3   0.831063 0.731557 0.873319 -0.465591
H14   H     H_    0.912156 0.772879 0.898694 0.389885
S3    S     S_3+6 0.659777 0.660144 0.246459 0.125285
O23   O     O_2   0.784938 0.657405 0.206943 -0.135948
O24   O     O_2   0.612250 0.758816 0.223402 -0.241631
O25   O     O_3   0.699568 0.678136 0.387134 -0.529940
H15   H     H_    0.740996 0.750959 0.407653 0.377128
N7    N     N_R   0.874245 0.295056 0.565520 0.165769
O26   O     O_R   0.755261 0.273150 0.550921 -0.360531
O27   O     O_R   0.936556 0.222474 0.593848 -0.230187
S4    S     S_3+6 0.894212 0.444595 0.742279 0.101842
O28   O     O_2   0.759685 0.425953 0.762137 -0.226876
O29   O     O_2   0.958342 0.375624 0.809364 -0.172258
O30   O     O_3   0.949402 0.569333 0.795081 -0.475467
H16   H     H_    0.011747 0.566183 0.857349 0.418861
S5    S     S_3+6 0.152511 0.685526 0.651760 0.060575
O31   O     O_2   0.193228 0.631548 0.746683 -0.262241
O32   O     O_2   0.263371 0.746472 0.615440 -0.285954
O33   O     O_3   0.055629 0.771640 0.702593 -0.462958
H17   H     H_    0.103264 0.819357 0.767610 0.390321
N8    N     N_R   0.110416 0.325184 0.336201 0.170257
O34   O     O_R   0.108098 0.293476 0.225973 -0.248981
O35   O     O_R   0.173529 0.276737 0.401765 -0.371569
S6    S     S_3+6 0.844144 0.288874 0.308942 0.131982
O36   O     O_2   0.899677 0.203747 0.357132 -0.171552
O37   O     O_2   0.708545 0.279324 0.325375 -0.285502
O38   O     O_3   0.860856 0.265871 0.166822 -0.394166
H18   H     H_    0.809710 0.198186 0.137463 0.393184

loop_
_geom_bond_atom_site_label_1
_geom_bond_atom_site_label_2
_geom_bond_distance
_ccdc_geom_bond_type
C5    C6    1.579465 S    
N5    O17   1.298175 A    
N3    O9    1.302782 A    
O33   H17   0.990480 S    
S1    O15   1.683422 S    
N8    O34   1.301267 A    
C8    C12   1.590805 S    
C12   N3    1.484561 S    
Cu1   Cu2   2.721083 S    
S4    O28   1.499913 D    
C11   H6    1.108666 S    
Cu1   O7    1.998961 S    
C13   C20   1.431990 A    
O38   H18   0.991008 S    
C6    C10   1.633686 S    
C17   H10   1.083849 S    
C3    C13   1.480842 S    
C22   H8    1.085041 S    
C10   C12   1.636116 S    
C20   N4    1.440981 S    
O3    Cu1   2.006773 S    
O4    C2    1.311256 A    
O7    C4    1.315009 A    
S4    O30   1.674878 S    
C7    C11   1.536241 S    
N4    O12   1.297275 A    
C5    H1    1.104307 S    
C2    C9    1.506831 S    
S1    O14   1.501904 D    
C18   C19   1.410074 A    
C4    C10   1.538227 S    
N6    O19   1.299932 A    
O5    C3    1.317113 A    
C5    C9    1.554260 S    
C25   C26   1.477713 A    
C16   H9    1.083374 S    
Cu1   N1    2.044376 S    
N2    C25   1.430489 A    
S3    O23   1.468675 D    
S3    O24   1.500455 D    
N5    O16   1.301246 A    
C18   C22   1.381881 A    
C8    C9    1.573309 S    
S1    O13   1.502071 D    
S2    O22   1.679604 S    
N2    C24   1.340693 A    
S4    O29   1.503839 D    
C6    S4    1.830333 S    
C23   N6    1.432802 S    
C29   C30   1.398004 A    
C10   C11   1.554219 S    
S2    O21   1.504807 D    
S2    O20   1.502471 D    
C8    N8    1.480569 S    
N4    O11   1.300402 A    
C23   C24   1.392058 A    
C7    S5    1.821954 S    
O1    C1    1.305186 A    
C19   C20   1.413052 A    
C1    C14   1.453946 S    
O22   H14   0.990717 S    
C21   C22   1.381305 A    
C30   S2    1.815591 S    
S5    O32   1.497425 D    
C15   C16   1.395670 A    
C23   C27   1.431550 A    
Cu2   O8    2.006772 S    
C24   H12   1.079936 S    
C17   C18   1.383238 A    
C28   N5    1.432155 S    
C12   S6    1.856179 S    
O3    C2    1.305724 A    
C26   C27   1.434331 A    
O8    C4    1.327133 A    
N7    O26   1.297068 A    
S6    O37   1.497979 D    
C8    H4    1.108252 S    
C15   C19   1.412799 A    
C25   S3    1.835416 S    
S5    O33   1.682999 S    
S3    O25   1.675399 S    
Cu1   O5    1.971820 S    
C14   C17   1.388662 A    
O1    Cu1   1.966864 S    
O2    Cu2   1.971820 S    
Cu2   N2    2.044261 S    
C7    C9    1.567909 S    
O25   H15   0.991556 S    
O6    C3    1.304260 A    
O4    Cu2   1.998960 S    
C21   S1    1.757679 S    
N8    O35   1.300429 A    
N1    C28   1.372069 A    
C5    H2    1.099664 S    
C7    H5    1.104497 S    
S6    O38   1.684487 S    
N7    O27   1.303322 A    
O15   H13   0.989991 S    
N3    O10   1.302628 A    
O2    C1    1.305514 A    
C14   C16   1.399081 A    
N1    C29   1.324525 A    
S5    O31   1.501145 D    
C6    N7    1.469008 S    
S6    O36   1.502312 D    
C15   H7    1.078978 S    
N6    O18   1.301366 A    
H3    C11   1.101597 S    
C26   C30   1.496432 A    
O30   H16   0.990070 S    
Cu2   O6    1.966864 S    
C27   C28   1.432556 A    
C13   C21   1.419065 A    
C29   H11   1.066241 S    
