data_mof_unit_34681.cif
_audit_creation_date              2012-12-10T18:23:55-0500
_audit_creation_method            fapswitch 2.2
_symmetry_space_group_name_H-M    P1
_symmetry_Int_Tables_number       1
_space_group_crystal_system       triclinic
_cell_length_a                    22.425103
_cell_length_b                    22.485874
_cell_length_c                    14.626899
_cell_angle_alpha                 90.000112
_cell_angle_beta                  90.134523
_cell_angle_gamma                 90.00008
_cell_volume                      7375.56483034

loop_
_atom_site_label
_atom_site_type_symbol
_atom_type_description
_atom_site_fract_x
_atom_site_fract_y
_atom_site_fract_z
_atom_type_partial_charge
C1    C     C_R   0.419729 0.919721 0.499918 0.819138
C2    C     C_R   0.580277 0.080273 0.500083 0.819608
C3    C     C_R   0.580264 0.919715 0.500080 0.819892
C4    C     C_R   0.419722 0.080271 0.499919 0.819035
C5    C     C_R   0.919732 0.419717 0.499920 0.820062
C6    C     C_R   0.080275 0.580275 0.500082 0.818377
C7    C     C_R   0.080275 0.419723 0.500083 0.819310
C8    C     C_R   0.919725 0.580276 0.499916 0.818931
C9    C     C_1   0.337213 0.162740 0.499644 0.063708
C10   C     C_1   0.662673 0.837144 0.500327 0.063564
C11   C     C_1   0.662798 0.162736 0.500410 0.055883
C12   C     C_1   0.337268 0.837197 0.499598 0.078061
C13   C     C_1   0.837220 0.662759 0.499557 0.070196
C14   C     C_1   0.162742 0.337200 0.500419 0.070926
C15   C     C_1   0.162765 0.662768 0.500388 0.077846
C16   C     C_1   0.837312 0.337152 0.499657 0.056318
C17   C     C_1   0.499787 0.000017 0.194233 0.143302
C18   C     C_1   0.500166 0.999998 0.805763 0.141146
C19   C     C_1   0.999839 0.500011 0.194237 0.142594
C20   C     C_1   0.000209 0.500031 0.805767 0.144776
C21   C     C_3   0.527782 0.048873 0.969831 0.122142
C22   C     C_3   0.472113 0.951169 0.030141 0.117280
C23   C     C_3   0.471130 0.048317 0.030099 0.121257
C24   C     C_3   0.528770 0.951728 0.969884 0.121998
C25   C     C_3   0.028909 0.548317 0.969901 0.117535
C26   C     C_3   0.971197 0.451773 0.030122 0.124264
C27   C     C_3   0.972257 0.548916 0.030172 0.118344
C28   C     C_3   0.027845 0.451171 0.969849 0.119512
C29   C     C_3   0.700375 0.728636 0.540803 -0.262809
C30   C     C_3   0.298706 0.270415 0.456008 -0.305026
C31   C     C_3   0.299003 0.729256 0.456843 -0.263508
C32   C     C_3   0.700768 0.270960 0.541913 -0.279660
C33   C     C_3   0.201225 0.229494 0.544130 -0.256673
C34   C     C_3   0.799467 0.771226 0.458971 -0.238077
C35   C     C_3   0.799401 0.228871 0.458201 -0.256039
C36   C     C_3   0.201041 0.770696 0.543130 -0.263160
C37   C     C_3   0.228972 0.201047 0.457076 -0.261735
C38   C     C_3   0.770043 0.798001 0.545975 -0.304547
C39   C     C_3   0.770471 0.201585 0.545222 -0.255645
C40   C     C_3   0.229281 0.798641 0.456065 -0.263535
C41   C     C_3   0.729803 0.701857 0.453802 -0.257878
C42   C     C_3   0.270960 0.298860 0.543063 -0.239731
C43   C     C_3   0.270761 0.701311 0.543908 -0.264057
C44   C     C_3   0.729695 0.298242 0.454890 -0.280321
C45   C     C_1   0.374940 0.125037 0.499757 -0.131080
C46   C     C_1   0.624993 0.874894 0.500232 -0.130534
C47   C     C_1   0.625064 0.125038 0.500259 -0.132141
C48   C     C_1   0.374972 0.874926 0.499744 -0.127274
C49   C     C_1   0.874947 0.625053 0.499731 -0.128273
C50   C     C_1   0.125037 0.374930 0.500260 -0.127724
C51   C     C_1   0.125047 0.625054 0.500251 -0.127237
C52   C     C_1   0.874995 0.374901 0.499764 -0.130979
C53   C     C_3   0.264205 0.236404 0.585273 0.533360
C54   C     C_3   0.737302 0.765089 0.414731 0.533433
C55   C     C_3   0.736994 0.235239 0.414869 0.462579
C56   C     C_3   0.263785 0.764004 0.585191 0.533489
C57   C     C_3   0.762534 0.734771 0.585045 0.463515
C58   C     C_3   0.235729 0.263496 0.414863 0.464847
C59   C     C_3   0.236258 0.735947 0.414782 0.533542
C60   C     C_3   0.763181 0.264584 0.585246 0.464088
C61   C     C_3   0.291445 0.208479 0.499667 -0.005428
C62   C     C_3   0.708414 0.791377 0.500287 -0.005633
C63   C     C_3   0.708584 0.208458 0.500437 0.017794
C64   C     C_3   0.291512 0.791441 0.499582 -0.015854
C65   C     C_3   0.791434 0.708485 0.499502 0.007305
C66   C     C_3   0.208488 0.291433 0.500458 0.006913
C67   C     C_3   0.208530 0.708512 0.500392 -0.015837
C68   C     C_3   0.791578 0.291376 0.499674 0.017240
C69   C     C_3   0.556611 0.000602 0.031661 -0.215642
C70   C     C_3   0.443290 0.999450 0.968314 -0.216421
C71   C     C_3   0.056713 0.499422 0.031676 -0.216104
C72   C     C_3   0.943387 0.500663 0.968348 -0.215313
C73   C     C_3   0.499484 0.000031 0.091623 -0.040315
C74   C     C_3   0.500415 0.000005 0.908365 -0.039981
C75   C     C_3   0.999593 0.500030 0.091634 -0.039759
C76   C     C_3   0.000509 0.500058 0.908378 -0.040119
Cu1   Cu    Cu3+1 0.500000 1.000000 0.590220 1.009602
Cu2   Cu    Cu3+1 0.500000 1.000000 0.409780 1.012424
Cu3   Cu    Cu3+1 1.000000 0.500000 0.590220 1.014396
Cu4   Cu    Cu3+1 0.000000 0.500000 0.409780 1.011560
H1    H     H_    0.396785 0.998986 0.942145 0.155571
H2    H     H_    0.603119 0.001093 0.057821 0.156524
H3    H     H_    0.896878 0.501171 0.942197 0.156695
H4    H     H_    0.103220 0.498902 0.057837 0.155658
H5    H     H_    0.212408 0.160908 0.420862 0.191664
H6    H     H_    0.785881 0.837439 0.584691 0.178476
H7    H     H_    0.786526 0.161933 0.583200 0.188565
H8    H     H_    0.212923 0.838578 0.419107 0.192108
H9    H     H_    0.713968 0.662418 0.415086 0.188631
H10   H     H_    0.287533 0.339000 0.579267 0.187287
H11   H     H_    0.287118 0.661373 0.580865 0.191664
H12   H     H_    0.713629 0.337894 0.416922 0.173552
H13   H     H_    0.659702 0.711814 0.575336 0.192146
H14   H     H_    0.338704 0.286542 0.418939 0.178407
H15   H     H_    0.339202 0.712914 0.420514 0.192515
H16   H     H_    0.660287 0.287582 0.577192 0.174310
H17   H     H_    0.161229 0.213370 0.581206 0.190730
H18   H     H_    0.840142 0.788056 0.424450 0.188736
H19   H     H_    0.839879 0.212260 0.422902 0.190306
H20   H     H_    0.160842 0.787039 0.579460 0.192720
N1    N     N_1   0.499980 1.000000 0.274190 -0.144848
N2    N     N_1   0.500020 1.000000 0.725810 -0.145453
N3    N     N_1   0.999980 0.500000 0.274190 -0.144962
N4    N     N_1   0.000020 0.500000 0.725810 -0.144352
O1    O     O_R   0.439540 0.939530 0.576170 -0.551758
O2    O     O_R   0.560460 0.060470 0.423830 -0.551176
O3    O     O_R   0.560460 0.939530 0.423830 -0.550556
O4    O     O_R   0.439540 0.060470 0.576170 -0.551193
O5    O     O_R   0.939540 0.439530 0.576170 -0.550869
O6    O     O_R   0.060460 0.560470 0.423830 -0.552015
O7    O     O_R   0.060460 0.439530 0.423830 -0.552085
O8    O     O_R   0.939540 0.560470 0.576170 -0.552000
O9    O     O_R   0.439530 0.939530 0.423800 -0.578132
O10   O     O_R   0.560470 0.060470 0.576200 -0.581479
O11   O     O_R   0.560470 0.939530 0.576200 -0.581300
O12   O     O_R   0.439530 0.060470 0.423800 -0.581102
O13   O     O_R   0.939530 0.439530 0.423800 -0.581513
O14   O     O_R   0.060470 0.560470 0.576200 -0.578453
O15   O     O_R   0.060470 0.439530 0.576200 -0.578340
O16   O     O_R   0.939530 0.560470 0.423800 -0.578836
S1    S     S_3+6 0.720134 0.785653 0.300048 0.003782
O17   O     O_2   0.655389 0.773384 0.281208 -0.293197
O18   O     O_2   0.732599 0.850773 0.287158 -0.278315
O19   O     O_3   0.762664 0.745689 0.228199 -0.541185
H21   H     H_    0.750820 0.759065 0.166232 0.373430
S2    S     S_3+6 0.283524 0.217954 0.700009 0.003344
O20   O     O_2   0.271582 0.153043 0.716145 -0.279840
O21   O     O_2   0.348524 0.230781 0.715572 -0.293924
O22   O     O_3   0.242132 0.259027 0.771945 -0.540492
H22   H     H_    0.254786 0.246430 0.833924 0.373407
S3    S     S_3+6 0.282466 0.783058 0.699940 0.003437
O23   O     O_2   0.347413 0.770449 0.716440 -0.293094
O24   O     O_2   0.270301 0.848020 0.715180 -0.280743
O25   O     O_3   0.240791 0.742245 0.771839 -0.540747
H23   H     H_    0.253283 0.754979 0.833829 0.370180
S4    S     S_3+6 0.719278 0.215266 0.300075 0.021011
O26   O     O_2   0.729328 0.149725 0.287477 -0.238931
O27   O     O_2   0.655067 0.229566 0.280363 -0.290869
O28   O     O_3   0.763365 0.252995 0.227594 -0.508584
H24   H     H_    0.756444 0.295458 0.242140 0.332251
S5    S     S_3+6 0.216382 0.281853 0.300042 0.019066
O29   O     O_2   0.150923 0.271018 0.285650 -0.254241
O30   O     O_2   0.229954 0.346252 0.282210 -0.277532
O31   O     O_3   0.255456 0.239072 0.227410 -0.512817
H25   H     H_    0.297823 0.247124 0.242199 0.335207
S6    S     S_3+6 0.779608 0.714159 0.699802 0.020081
O32   O     O_2   0.769430 0.648562 0.711429 -0.240856
O33   O     O_2   0.843725 0.728289 0.720516 -0.289890
O34   O     O_3   0.735163 0.751537 0.772199 -0.511559
H26   H     H_    0.742318 0.794074 0.758449 0.332925
S7    S     S_3+6 0.781009 0.284451 0.700043 0.020045
O35   O     O_2   0.846287 0.273924 0.716750 -0.254259
O36   O     O_2   0.767108 0.349040 0.715491 -0.274930
O37   O     O_3   0.741065 0.242540 0.772759 -0.510615
H27   H     H_    0.698888 0.250193 0.756276 0.334599
S8    S     S_3+6 0.217573 0.716873 0.300041 0.003264
O38   O     O_2   0.229678 0.651895 0.284857 -0.281850
O39   O     O_2   0.152640 0.729537 0.283508 -0.292483
O40   O     O_3   0.259296 0.757620 0.228119 -0.540428
H28   H     H_    0.246883 0.744790 0.166139 0.369817
C77   C     C_3   0.435316 0.100543 0.068602 -0.429629
C78   C     C_3   0.409409 0.139975 0.992837 -0.340127
C79   C     C_3   0.369939 0.188793 0.032573 -0.740800
H29   H     H_    0.331892 0.168993 0.070380 0.266795
H30   H     H_    0.396156 0.217477 0.079663 0.248827
H31   H     H_    0.352013 0.216786 0.976311 0.260550
H32   H     H_    0.446021 0.161199 0.953844 0.229626
H33   H     H_    0.382338 0.112650 0.944922 0.242066
H34   H     H_    0.398304 0.082091 0.110305 0.209155
H35   H     H_    0.464236 0.127256 0.114575 0.200132
C80   C     C_3   0.564600 0.899500 0.931434 -0.428922
C81   C     C_3   0.590557 0.860145 0.007254 -0.352753
C82   C     C_3   0.630091 0.811355 0.967591 -0.714471
H36   H     H_    0.603904 0.782600 0.920566 0.260174
H37   H     H_    0.668104 0.831183 0.929736 0.255903
H38   H     H_    0.648066 0.783431 0.023896 0.259235
H39   H     H_    0.617596 0.887528 0.055133 0.242096
H40   H     H_    0.553969 0.838901 0.046277 0.230910
H41   H     H_    0.535685 0.872734 0.885529 0.202076
H42   H     H_    0.601588 0.917948 0.889674 0.206243
C83   C     C_3   0.562494 0.101773 0.931145 -0.433758
C84   C     C_3   0.587599 0.141831 0.006748 -0.343402
C85   C     C_3   0.625926 0.191463 0.966765 -0.714674
H43   H     H_    0.664360 0.172465 0.928907 0.267230
H44   H     H_    0.599022 0.219504 0.919667 0.242933
H45   H     H_    0.643284 0.219914 0.022895 0.274616
H46   H     H_    0.550570 0.162283 0.045789 0.228257
H47   H     H_    0.615322 0.115150 0.054648 0.246267
H48   H     H_    0.599870 0.084036 0.889469 0.208916
H49   H     H_    0.533011 0.127820 0.885108 0.200780
C86   C     C_3   0.437313 0.898250 0.068594 -0.423176
C87   C     C_3   0.412164 0.858375 0.992772 -0.339233
C88   C     C_3   0.373475 0.808903 0.032404 -0.744662
H50   H     H_    0.400118 0.780668 0.079574 0.260273
H51   H     H_    0.335047 0.828063 0.070085 0.261989
H52   H     H_    0.356093 0.780609 0.976099 0.255073
H53   H     H_    0.384685 0.885226 0.944769 0.241005
H54   H     H_    0.449182 0.837773 0.953890 0.229746
H55   H     H_    0.466734 0.872066 0.114538 0.202428
H56   H     H_    0.399954 0.915978 0.110314 0.210671
C89   C     C_3   0.937556 0.601849 0.068776 -0.427974
C90   C     C_3   0.912468 0.641860 0.993093 -0.341429
C91   C     C_3   0.874037 0.691456 0.032945 -0.720270
H57   H     H_    0.835580 0.672422 0.070707 0.262397
H58   H     H_    0.900856 0.719541 0.080093 0.254694
H59   H     H_    0.856705 0.719873 0.976756 0.268425
H60   H     H_    0.949511 0.662344 0.954121 0.228593
H61   H     H_    0.884821 0.615137 0.945145 0.245111
H62   H     H_    0.900173 0.584144 0.110467 0.210379
H63   H     H_    0.967038 0.627923 0.114779 0.202843
C92   C     C_3   0.062558 0.398238 0.931269 -0.428150
C93   C     C_3   0.087649 0.358244 0.006973 -0.343085
C94   C     C_3   0.126124 0.308671 0.967154 -0.715230
H64   H     H_    0.099336 0.280568 0.919989 0.254854
H65   H     H_    0.164581 0.327728 0.929420 0.260603
H66   H     H_    0.143455 0.280267 0.023360 0.272790
H67   H     H_    0.115263 0.384982 0.054942 0.244229
H68   H     H_    0.050606 0.337735 0.045917 0.230056
H69   H     H_    0.033085 0.372152 0.885270 0.203288
H70   H     H_    0.099941 0.415944 0.889579 0.210856
C95   C     C_3   0.064795 0.600522 0.931487 -0.423946
C96   C     C_3   0.090746 0.639862 0.007338 -0.338581
C97   C     C_3   0.130400 0.688580 0.967741 -0.744551
H71   H     H_    0.168437 0.668683 0.930030 0.261738
H72   H     H_    0.104317 0.717351 0.920604 0.260663
H73   H     H_    0.148344 0.716507 0.024067 0.254694
H74   H     H_    0.054155 0.661178 0.046261 0.230020
H75   H     H_    0.117694 0.612453 0.055300 0.240866
H76   H     H_    0.101787 0.582045 0.889767 0.210584
H77   H     H_    0.035920 0.627308 0.885551 0.202238
C98   C     C_3   0.935374 0.399583 0.068694 -0.433950
C99   C     C_3   0.909414 0.360147 0.992988 -0.356795
C100  C     C_3   0.870014 0.311314 0.032833 -0.684049
H78   H     H_    0.896301 0.282647 0.079856 0.254434
H79   H     H_    0.831998 0.331100 0.070736 0.255046
H80   H     H_    0.852046 0.283307 0.976624 0.276898
H81   H     H_    0.882282 0.387463 0.945142 0.245393
H82   H     H_    0.945997 0.338940 0.953907 0.231212
H83   H     H_    0.964301 0.372869 0.114655 0.202926
H84   H     H_    0.898388 0.418065 0.110424 0.206471

loop_
_geom_bond_atom_site_label_1
_geom_bond_atom_site_label_2
_ccdc_geom_bond_type
C81   H39   S    
C41   H9    S    
C91   H57   S    
Cu4   O16   S    
C9    C45   T    
S2    O20   D    
C71   C75   S    
C26   C72   S    
C89   C90   S    
C11   C47   T    
C79   H29   S    
S8    O40   S    
C39   H7    S    
C72   C76   S    
S3    O25   S    
C77   C78   S    
C36   C67   S    
C13   C65   S    
C82   H36   S    
C28   C92   S    
C21   C83   S    
C92   H70   S    
C91   H58   S    
C31   C43   S    
Cu3   O8    S    
C38   H6    S    
C9    C61   S    
C35   C68   S    
C37   H5    S    
S8    O38   D    
C79   H30   S    
C86   H55   S    
C78   C79   S    
C11   C63   S    
C8    O8    A    
C42   C53   S    
C21   C69   S    
C12   C64   S    
C35   H19   S    
C94   H66   S    
C93   H67   S    
C55   S4    S    
C38   C57   S    
Cu3   O14   S    
C20   C76   S    
C98   H83   S    
C18   N2    T    
S7    O37   S    
C31   C59   S    
C24   C80   S    
C70   H1    S    
C17   N1    T    
C84   C85   S    
S1    O19   S    
C69   H2    S    
C59   C67   S    
Cu4   O13   S    
C83   H48   S    
C58   C66   S    
C97   H71   S    
C88   H51   S    
C55   C63   S    
C95   H77   S    
C70   C74   S    
S7    O35   D    
C56   C64   S    
C5    C52   S    
C25   C95   S    
C16   C68   S    
C15   C51   T    
C6    C51   S    
C100  H78   S    
C33   H17   S    
C37   C58   S    
C44   H12   S    
C12   C48   T    
S7    O36   D    
C77   H34   S    
C94   H65   S    
C60   C68   S    
C18   C74   S    
C40   C59   S    
C90   H61   S    
C57   S6    S    
Cu2   N1    S    
C99   H82   S    
C6    O6    A    
C23   C70   S    
C80   H41   S    
Cu1   N2    S    
C10   C62   S    
S5    O29   D    
C53   C61   S    
C23   C73   S    
S4    O28   S    
C27   C75   S    
C34   C65   S    
C89   H62   S    
C22   C70   S    
C24   C69   S    
S6    O33   D    
C4    C45   S    
C82   H37   S    
C33   C53   S    
C91   H59   S    
C97   H73   S    
C90   C91   S    
Cu3   O5    S    
Cu4   N3    S    
C35   C55   S    
C86   C87   S    
C56   S3    S    
C94   H64   S    
C7    O15   A    
C36   C40   S    
C79   H31   S    
C86   H56   S    
C32   C63   S    
S4    O27   D    
C85   H45   S    
C17   C73   S    
C5    O13   A    
O22   H22   S    
S4    O26   D    
C41   C65   S    
C54   C62   S    
S2    O22   S    
C3    O3    A    
C6    O14   A    
C83   C84   S    
C19   N3    T    
C21   C74   S    
C2    O2    A    
C33   C37   S    
C78   H32   S    
Cu3   O15   S    
Cu2   O3    S    
C42   H10   S    
S5    O30   D    
C71   H4    S    
C35   C39   S    
C85   H43   S    
C10   C46   T    
C95   C96   S    
C36   C56   S    
S6    O34   S    
C4    O4    A    
C83   H49   S    
C92   C93   S    
C96   H75   S    
C59   S8    S    
C88   H52   S    
C15   C67   S    
C33   C66   S    
C27   C89   S    
C26   C75   S    
C14   C66   S    
C36   H20   S    
C84   H47   S    
C87   H53   S    
C69   C73   S    
C100  H79   S    
C80   C81   S    
O37   H27   S    
S1    O17   D    
C25   C71   S    
C77   H35   S    
C32   H16   S    
C54   S1    S    
C29   C57   S    
C34   C54   S    
C87   H54   S    
C90   H60   S    
C21   C23   S    
C99   H81   S    
C2    C47   S    
C13   C49   T    
Cu3   N4    S    
S5    O31   S    
C28   C71   S    
C32   C60   S    
Cu4   O6    S    
Cu1   O10   S    
C28   C76   S    
C89   H63   S    
C92   H69   S    
C81   C82   S    
C8    O16   A    
S6    O32   D    
C82   H38   S    
C81   H40   S    
C29   C62   S    
S2    O21   D    
C29   C41   S    
C34   C38   S    
C30   C42   S    
C31   C64   S    
C4    O12   A    
Cu1   O4    S    
Cu2   O12   S    
C16   C52   T    
C7    C50   S    
C57   C65   S    
O31   H25   S    
S3    O24   D    
C37   C61   S    
O28   H24   S    
C97   H72   S    
C1    C48   S    
O25   H23   S    
C20   N4    T    
C26   C98   S    
C25   C27   S    
C39   C63   S    
C3    C46   S    
C26   C28   S    
Cu1   O1    S    
C40   C64   S    
Cu2   O2    S    
C25   C76   S    
C87   C88   S    
C40   H8    S    
C19   C75   S    
O40   H28   S    
C30   H14   S    
C3    O11   A    
O34   H26   S    
C29   H13   S    
C2    O10   A    
C44   C55   S    
C24   C74   S    
C93   H68   S    
C14   C50   T    
C5    O5    A    
C96   H74   S    
C31   H15   S    
C39   C60   S    
C30   C58   S    
Cu4   O7    S    
S8    O39   D    
C99   C100  S    
C34   H18   S    
C7    O7    A    
C22   C24   S    
C84   H46   S    
C1    O9    A    
C96   C97   S    
C80   H42   S    
C100  H80   S    
C43   H11   S    
C41   C54   S    
S1    O18   D    
C72   H3    S    
C44   C68   S    
C53   S2    S    
C78   H33   S    
Cu3   Cu4   S    
Cu2   O9    S    
C43   C56   S    
C93   C94   S    
C32   C44   S    
C85   H44   S    
C43   C67   S    
C88   H50   S    
C30   C61   S    
C95   H76   S    
C98   C99   S    
C42   C66   S    
Cu1   Cu2   S    
C98   H84   S    
C22   C73   S    
C38   C62   S    
C22   C86   S    
Cu1   O11   S    
C8    C49   S    
C60   S7    S    
C58   S5    S    
C27   C72   S    
S3    O23   D    
C1    O1    A    
O19   H21   S    
C23   C77   S    
