data_mof_unit_25540.cif
_audit_creation_date              2013-03-05T16:15:16-0500
_audit_creation_method            fapswitch 2.2
_symmetry_space_group_name_H-M    P1
_symmetry_Int_Tables_number       1
_space_group_crystal_system       triclinic
_cell_length_a                    27.810113
_cell_length_b                    10.632954
_cell_length_c                    9.406941
_cell_angle_alpha                 90.067812
_cell_angle_beta                  89.751352
_cell_angle_gamma                 90.042379
_cell_volume                      2781.63791789

loop_
_atom_site_label
_atom_site_type_symbol
_atom_site_description
_atom_site_fract_x
_atom_site_fract_y
_atom_site_fract_z
_atom_type_partial_charge
O1    O     O_R   0.500020 0.316850 0.620870 -0.565539
O2    O     O_R   0.499980 0.683150 0.379130 -0.565485
O3    O     O_R   0.500000 0.316860 0.379090 -0.598267
O4    O     O_R   0.500000 0.683140 0.620910 -0.598278
C1    C     C_R   0.500233 0.259577 0.499804 0.845111
C2    C     C_R   0.499767 0.740423 0.500196 0.845200
O5    O     O_R   0.430270 0.500020 0.620880 -0.599131
O6    O     O_R   0.569730 0.499980 0.379120 -0.599351
O7    O     O_R   0.430250 0.500030 0.379090 -0.567838
O8    O     O_R   0.569750 0.499970 0.620910 -0.567435
C3    C     C_R   0.407497 0.500195 0.500305 0.838507
C4    C     C_R   0.592502 0.499802 0.499696 0.838338
Cu1   Cu    Cu3+1 0.500010 0.499990 0.643150 0.959318
Cu2   Cu    Cu3+1 0.499990 0.500010 0.356850 0.959157
C5    C     C_R   0.178122 0.389183 0.499810 0.531745
C6    C     C_R   0.821887 0.611187 0.488971 0.531832
O9    O     O_2   0.203098 0.280384 0.499509 -0.535338
O10   O     O_2   0.796913 0.719562 0.478461 -0.535964
N1    N     N_R   0.202099 0.501393 0.500895 -0.463878
N2    N     N_R   0.797906 0.499319 0.499100 -0.463848
C7    C     C_R   0.178047 0.613397 0.500246 0.536059
C8    C     C_R   0.821959 0.387854 0.511060 0.535827
C9    C     C_R   0.278712 0.500834 0.632587 0.211823
C10   C     C_R   0.721281 0.494662 0.367496 0.211367
C11   C     C_R   0.329100 0.500442 0.630754 -0.209100
C12   C     C_R   0.670893 0.495027 0.369334 -0.207355
C13   C     C_R   0.328956 0.501790 0.372864 -0.185942
C14   C     C_R   0.671047 0.502852 0.627085 -0.188367
C15   C     C_R   0.278887 0.502151 0.373884 -0.152067
C16   C     C_R   0.721116 0.502752 0.626058 -0.151387
C17   C     C_R   0.253625 0.501570 0.502805 0.363398
C18   C     C_R   0.746376 0.498904 0.497198 0.363210
C19   C     C_R   0.101962 0.500956 0.499679 -0.043163
C20   C     C_R   0.898045 0.499963 0.500401 -0.043050
C21   C     C_R   0.127655 0.386836 0.499530 -0.020338
C22   C     C_R   0.872353 0.613610 0.489181 -0.020278
C23   C     C_R   0.102596 0.273124 0.498628 -0.146061
C24   C     C_R   0.897416 0.726858 0.477459 -0.146391
C25   C     C_R   0.127575 0.615302 0.499717 -0.023165
C26   C     C_R   0.872431 0.386042 0.511716 -0.023272
C27   C     C_R   0.354523 0.500786 0.501243 -0.064070
C28   C     C_R   0.645476 0.499260 0.498768 -0.062940
H1    H     H_    0.347592 0.502226 0.271523 0.164912
H2    H     H_    0.652414 0.506013 0.728372 0.163488
H3    H     H_    0.259550 0.502759 0.274202 0.144528
H4    H     H_    0.740456 0.505828 0.725687 0.144514
H5    H     H_    0.121521 0.184074 0.496739 0.187117
H6    H     H_    0.878494 0.815412 0.467026 0.187372
C29   C     C_R   0.974489 0.384335 0.508452 0.043568
C30   C     C_R   0.025517 0.616840 0.496656 0.043674
C31   C     C_R   0.974406 0.616398 0.492000 0.043419
C32   C     C_R   0.025602 0.384380 0.503122 0.043485
C33   C     C_R   0.949200 0.500236 0.500305 0.067014
C34   C     C_R   0.050808 0.500726 0.499800 0.066910
C35   C     C_R   0.947497 0.271985 0.522629 -0.203991
C36   C     C_R   0.052508 0.729853 0.499116 -0.203487
C37   C     C_R   0.897575 0.273099 0.523827 -0.146046
C38   C     C_R   0.102428 0.728788 0.500277 -0.145981
O11   O     O_2   0.797059 0.279233 0.521718 -0.526610
O12   O     O_2   0.202949 0.722405 0.500467 -0.526952
C39   C     C_R   0.052676 0.271613 0.500036 -0.204192
C40   C     C_R   0.947333 0.728505 0.478450 -0.204401
H7    H     H_    0.651554 0.491879 0.269657 0.150839
H8    H     H_    0.348433 0.499760 0.730498 0.151045
H9    H     H_    0.878714 0.184359 0.534467 0.187192
H10   H     H_    0.121284 0.818007 0.501955 0.186828
H11   H     H_    0.963702 0.180841 0.535323 0.135262
H12   H     H_    0.036311 0.821683 0.502454 0.134465
H13   H     H_    0.036539 0.179661 0.496409 0.134658
H14   H     H_    0.963464 0.819873 0.466068 0.135312
C41   C     C_3   0.540190 0.040006 0.560941 0.052776
C42   C     C_3   0.459810 0.959994 0.439056 0.053149
C43   C     C_3   0.538402 0.956615 0.426994 -0.248912
C44   C     C_3   0.461598 0.043385 0.573004 -0.248736
H15   H     H_    0.569910 0.918830 0.367998 0.143261
H16   H     H_    0.430090 0.081171 0.631999 0.143161
C45   C     C_3   0.499468 0.877020 0.500578 0.002904
C46   C     C_3   0.500532 0.122980 0.499420 0.002854
C47   C     C_3   0.501783 0.958780 0.635482 -0.223509
C48   C     C_3   0.498217 0.041220 0.364516 -0.223542
H17   H     H_    0.503473 0.923414 0.746374 0.143306
H18   H     H_    0.496527 0.076586 0.253624 0.143306
C49   C     C_3   0.492019 0.611707 0.050640 -0.026740
C50   C     C_3   0.507980 0.388293 0.949359 -0.026702
C51   C     C_3   0.459043 0.537708 0.949977 -0.033110
C52   C     C_3   0.540956 0.462291 0.050022 -0.032309
H19   H     H_    0.424587 0.569832 0.903297 0.119518
H20   H     H_    0.575411 0.430151 0.096695 0.118924
H21   H     H_    0.485161 0.705865 0.097588 0.135993
H22   H     H_    0.514838 0.294135 0.902411 0.136007
N3    N     N_3   0.500040 0.499970 0.858290 -0.157834
N4    N     N_3   0.499960 0.500030 0.141710 -0.157827
C53   C     C_3   0.533018 0.573955 0.949097 -0.049582
C54   C     C_3   0.466982 0.426045 0.050902 -0.050243
H23   H     H_    0.560764 0.636133 0.901164 0.110537
H24   H     H_    0.439236 0.363866 0.098835 0.110928
C55   C     C_2   0.586067 0.081204 0.629710 0.328680
H25   H     H_    0.610614 0.011073 0.670931 0.075555
O13   O     O_2   0.596181 0.192526 0.639562 -0.539801
C56   C     C_2   0.413933 0.918797 0.370281 0.328559
H26   H     H_    0.389383 0.988929 0.329080 0.075770
O14   O     O_2   0.403824 0.807474 0.360400 -0.540659
C57   C     C_3   0.747995 0.489366 0.228159 -0.834940
H27   H     H_    0.723024 0.485189 0.136417 0.220057
H28   H     H_    0.770840 0.574381 0.216152 0.247041
H29   H     H_    0.771163 0.404404 0.224975 0.246735
C58   C     C_3   0.251981 0.500413 0.772015 -0.835518
H30   H     H_    0.276941 0.500016 0.863894 0.219714
H31   H     H_    0.229035 0.585545 0.780054 0.248004
H32   H     H_    0.228909 0.415378 0.779067 0.245687

loop_
_geom_bond_atom_site_label_1
_geom_bond_atom_site_label_2
_geom_bond_distance
_ccdc_geom_bond_type
C13   C15   1.392424 A    
C43   H15   1.110407 S    
C12   H7    1.083446 S    
N1    C17   1.433148 S    
C41   C47   1.540150 S    
C55   H25   1.084510 S    
C51   N3    1.481928 S    
O5    C3    1.301474 A    
C49   N4    1.482288 S    
C41   C55   1.497942 S    
C19   C25   1.408672 A    
C44   H16   1.110408 S    
O1    C1    1.290819 A    
N1    C7    1.366381 A    
C50   C52   1.536700 S    
C32   C39   1.416505 A    
N2    C18   1.433248 S    
C52   H20   1.110027 S    
C49   C53   1.537487 S    
C40   H14   1.076018 S    
O4    Cu1   1.958877 S    
C4    C28   1.473205 S    
C38   H10   1.083732 S    
C58   H30   1.110893 S    
C50   N3    1.482282 S    
C23   H5    1.083730 S    
C24   H6    1.083752 S    
C6    N2    1.366479 A    
C51   H19   1.110051 S    
C9    C58   1.504813 S    
C53   H23   1.110290 S    
Cu1   Cu2   2.693209 S    
Cu1   N3    2.023814 S    
C58   H31   1.110212 S    
O2    C2    1.290818 A    
C31   C40   1.416532 A    
C50   H22   1.110077 S    
C5    C21   1.403708 A    
C55   O13   1.219954 D    
C32   C34   1.421753 A    
C45   C47   1.538949 S    
C49   H21   1.110077 S    
C7    O12   1.349775 S    
C42   C44   1.540849 S    
C11   C27   1.405944 A    
C8    O11   1.349804 S    
C47   H17   1.110480 S    
C2    C45   1.452460 S    
C29   C35   1.416525 A    
C25   C38   1.395131 A    
C14   H2    1.083120 S    
C30   C36   1.416588 A    
C42   C48   1.540150 S    
C15   H3    1.083019 S    
C31   C33   1.421810 A    
C11   H8    1.083461 S    
C9    C17   1.408797 A    
C5    N1    1.366424 A    
O7    Cu2   1.949826 S    
C10   C18   1.408881 A    
C42   C45   1.529021 S    
C52   C53   1.537754 S    
N3    C53   1.481143 S    
C51   C54   1.537755 S    
C13   C27   1.404134 A    
C35   H11   1.076083 S    
C7    C25   1.403818 A    
O6    C4    1.301480 A    
C29   C32   1.422127 A    
C8    C26   1.403830 A    
N4    C54   1.481150 S    
C30   C31   1.422271 A    
C57   H28   1.110094 S    
C6    O10   1.349837 S    
C50   C54   1.537479 S    
C54   H24   1.110288 S    
O7    C3    1.301661 A    
Cu2   N4    2.023814 S    
O3    Cu2   1.958876 S    
O8    C4    1.301641 A    
C48   H18   1.110480 S    
C49   C51   1.536707 S    
N2    C8    1.366358 A    
C44   C47   1.553073 S    
C35   C37   1.388404 A    
C58   H32   1.110202 S    
C20   C26   1.408693 A    
O4    C2    1.289266 A    
O1    Cu1   1.958320 S    
C22   C24   1.395126 A    
C12   C28   1.405911 A    
C41   C43   1.540846 S    
C56   O14   1.219953 D    
C42   C56   1.497944 S    
C39   H13   1.076054 S    
C19   C34   1.422594 A    
C5    O9    1.349795 S    
O6    Cu2   1.951663 S    
C26   C37   1.395131 A    
C21   C23   1.395155 A    
C16   H4    1.083030 S    
C10   C12   1.401347 A    
C37   H9    1.083749 S    
O3    C1    1.289264 A    
O8    Cu1   1.949826 S    
C23   C39   1.388368 A    
C10   C57   1.504850 S    
C14   C16   1.392415 A    
C30   C34   1.421766 A    
C36   H12   1.075990 S    
C6    C22   1.403715 A    
C16   C18   1.398955 A    
C29   C33   1.421695 A    
C14   C28   1.404104 A    
C56   H26   1.084511 S    
C19   C21   1.408640 A    
C43   C48   1.553069 S    
C36   C38   1.388423 A    
C3    C27   1.473227 S    
C57   H29   1.110298 S    
C46   C48   1.538949 S    
C9    C11   1.401336 A    
O2    Cu2   1.958319 S    
C13   H1    1.083111 S    
O5    Cu1   1.951663 S    
C20   C22   1.408587 A    
C20   C33   1.422607 A    
C15   C17   1.398911 A    
C44   C46   1.536645 S    
C57   H27   1.110900 S    
C43   C45   1.536644 S    
C52   N4    1.481924 S    
C1    C46   1.452459 S    
C41   C46   1.529018 S    
C24   C40   1.388375 A    
