data_mof_unit_46820.cif
_audit_creation_date              2013-03-05T15:58:46-0500
_audit_creation_method            fapswitch 2.2
_symmetry_space_group_name_H-M    P1
_symmetry_Int_Tables_number       1
_space_group_crystal_system       triclinic
_cell_length_a                    6.982789
_cell_length_b                    14.355725
_cell_length_c                    16.006377
_cell_angle_alpha                 90.254245
_cell_angle_beta                  90.088428
_cell_angle_gamma                 89.627729
_cell_volume                      1604.47572254

loop_
_atom_site_label
_atom_site_type_symbol
_atom_site_description
_atom_site_fract_x
_atom_site_fract_y
_atom_site_fract_z
_atom_type_partial_charge
O1    O     O_R   0.494320 0.415010 0.412140 -0.608699
O2    O     O_R   0.824010 0.404260 0.587250 -0.530576
O3    O     O_R   0.994320 0.584990 0.587860 -0.565728
C1    C     C_R   0.655599 0.377243 0.612250 1.012060
O4    O     O_R   0.824040 0.403870 0.412760 -0.589755
O5    O     O_R   0.994350 0.584590 0.412130 -0.610974
C2    C     C_R   0.655509 0.380514 0.384786 0.990862
O6    O     O_R   0.494300 0.415410 0.587870 -0.588959
O7    O     O_3   0.660800 0.559290 0.500000 -0.278699
V1    V     V_3+5 0.935650 0.489000 0.500000 1.294987
O8    O     O_R   0.324060 0.595740 0.412750 -0.599691
C3    C     C_R   0.154803 0.617518 0.383266 0.950891
O9    O     O_R   0.324040 0.596130 0.587240 -0.589981
C4    C     C_R   0.154992 0.618419 0.616147 1.008817
V2    V     V_3+5 0.435660 0.511000 0.500000 1.250535
O10   O     O_3   0.160640 0.440710 0.500000 -0.241862
C5    C     C_3   0.038375 0.675026 0.769245 0.420744
C6    C     C_3   0.209986 0.711599 0.819662 -0.204086
H1    H     H_    0.270480 0.679589 0.877020 0.173812
C7    C     C_3   0.122917 0.810503 0.812678 -0.164968
C8    C     C_3   0.948815 0.772766 0.763999 -0.215812
C9    C     C_3   0.057825 0.787922 0.680730 -0.113169
C10   C     C_3   0.231485 0.826855 0.730162 -0.088338
C11   C     C_3   0.318093 0.727094 0.735937 -0.107916
C12   C     C_3   0.144306 0.688794 0.686727 -0.249586
H2    H     H_    0.796065 0.790117 0.775930 0.146440
H3    H     H_    0.994282 0.821342 0.625113 0.208691
H4    H     H_    0.312256 0.890683 0.714144 0.129755
H5    H     H_    0.470452 0.709071 0.724047 0.175470
C13   C     C_3   0.334772 0.785819 0.208205 -0.309817
H6    H     H_    0.407178 0.751961 0.153993 0.176346
C14   C     C_3   0.346292 0.720436 0.284406 -0.286436
H7    H     H_    0.419243 0.756650 0.336712 0.215611
H8    H     H_    0.440535 0.660109 0.269249 0.182128
H9    H     H_    0.091577 0.688241 0.101586 0.205568
C15   C     C_3   0.026097 0.715737 0.160080 -0.454741
C16   C     C_3   0.021243 0.848221 0.263975 -0.396970
C17   C     C_3   0.123185 0.809052 0.184929 -0.031950
H10   H     H_    0.871377 0.868665 0.248343 0.164442
H11   H     H_    0.093954 0.912751 0.284996 0.241722
C18   C     C_3   0.143168 0.687131 0.311144 -0.259783
C19   C     C_3   0.042204 0.643183 0.232672 0.240175
C20   C     C_3   0.017693 0.774337 0.334968 0.228411
H12   H     H_    0.866507 0.750392 0.340280 0.074976
H13   H     H_    0.872127 0.728687 0.145862 0.156301
C21   C     C_3   0.460403 0.250197 0.678997 -0.317359
H14   H     H_    0.349887 0.303003 0.684941 0.276558
H15   H     H_    0.443301 0.214293 0.617739 0.230795
C22   C     C_3   0.444373 0.179090 0.751448 -0.309678
H16   H     H_    0.434581 0.107606 0.724630 0.151943
H17   H     H_    0.309013 0.190751 0.786107 0.226882
C23   C     C_3   0.651851 0.356490 0.767690 -0.305881
C24   C     C_3   0.807347 0.228229 0.677014 0.312006
C25   C     C_3   0.648114 0.304847 0.682255 -0.242543
H18   H     H_    0.781908 0.185490 0.619825 0.138028
C26   C     C_3   0.622523 0.184914 0.809786 -0.115521
C27   C     C_3   0.651670 0.287228 0.841619 0.199950
C28   C     C_3   0.798645 0.161481 0.753418 -0.540688
H19   H     H_    0.789434 0.088195 0.730753 0.163986
H20   H     H_    0.776608 0.402969 0.773140 0.250767
H21   H     H_    0.795700 0.290236 0.871709 0.135520
C29   C     C_3   0.588107 0.357477 0.232631 -0.481042
H22   H     H_    0.461263 0.403261 0.242614 0.242549
C30   C     C_3   0.554060 0.285007 0.160841 0.230248
H23   H     H_    0.645029 0.305824 0.107213 0.142779
H24   H     H_    0.347523 0.268867 0.330819 0.096998
H25   H     H_    0.340110 0.149413 0.240807 0.098410
C31   C     C_3   0.488563 0.232387 0.334244 0.159068
C32   C     C_3   0.840164 0.258594 0.299388 -0.265714
C33   C     C_3   0.644485 0.307981 0.315473 -0.177277
H26   H     H_    0.953670 0.311286 0.290392 0.226046
C34   C     C_3   0.619306 0.185247 0.189256 -0.341031
C35   C     C_3   0.489702 0.155002 0.264451 0.155306
C36   C     C_3   0.829570 0.195552 0.220877 -0.328251
H27   H     H_    0.898266 0.127144 0.233703 0.210645
O11   O     O_R   0.771990 0.083520 0.910980 -0.599509
O12   O     O_R   0.442180 0.095020 0.086060 -0.559876
O13   O     O_R   0.271950 0.914280 0.086680 -0.599940
C37   C     C_R   0.610370 0.115961 0.116425 0.976169
O14   O     O_R   0.442270 0.094630 0.911580 -0.573549
O15   O     O_R   0.272040 0.913890 0.910940 -0.603304
C38   C     C_R   0.610825 0.116130 0.882001 0.933486
O16   O     O_R   0.771900 0.083910 0.086710 -0.594898
O17   O     O_3   0.605520 0.939610 0.998840 -0.286954
V3    V     V_3+5 0.330640 0.009880 0.998810 1.225868
O18   O     O_R   0.942330 0.902710 0.911540 -0.599111
C39   C     C_R   0.111495 0.880496 0.882904 0.937802
O19   O     O_R   0.942240 0.903100 0.086030 -0.600330
C40   C     C_R   0.111808 0.879850 0.114206 0.925330
V4    V     V_3+5 0.830640 0.987830 0.998780 1.183559
O20   O     O_3   0.105630 0.058150 0.998800 -0.246125
N1    N     N_R   0.136489 0.556937 0.204789 0.247598
O21   O     O_R   0.296057 0.558426 0.162902 -0.386564
O22   O     O_R   0.051635 0.477785 0.216454 -0.393178
N2    N     N_R   0.069393 0.815753 0.415701 0.241936
O23   O     O_R   0.940353 0.821463 0.473965 -0.404869
O24   O     O_R   0.233107 0.856724 0.426955 -0.337164
H28   H     H_    0.893153 0.624896 0.251085 0.056565
N3    N     N_R   0.926914 0.593205 0.790017 0.225288
O25   O     O_R   0.974092 0.541980 0.853726 -0.346228
O26   O     O_R   0.769651 0.576185 0.749303 -0.451703
H29   H     H_    0.525551 0.404129 0.771448 0.204775
N4    N     N_R   0.510806 0.317634 0.903807 0.245412
O27   O     O_R   0.328744 0.316045 0.886463 -0.314910
O28   O     O_R   0.568664 0.371121 0.964462 -0.341627
N5    N     N_R   0.995437 0.269180 0.670108 0.217735
O29   O     O_R   0.053594 0.327129 0.727359 -0.428304
O30   O     O_R   0.086142 0.262351 0.599312 -0.392820
H30   H     H_    0.933260 0.166019 0.790533 0.207603
H31   H     H_    0.705020 0.405226 0.213885 0.216345
N6    N     N_R   0.353381 0.286467 0.133032 0.260383
O31   O     O_R   0.216226 0.307117 0.184586 -0.423393
O32   O     O_R   0.309847 0.267917 0.055860 -0.298011
H32   H     H_    0.884703 0.216303 0.353963 0.238345
H33   H     H_    0.915117 0.226774 0.169980 0.232646
N7    N     N_R   0.499345 0.192592 0.418771 0.258615
O33   O     O_R   0.353065 0.147421 0.447853 -0.312692
O34   O     O_R   0.649293 0.202914 0.466150 -0.441936
N8    N     N_R   0.543046 0.062784 0.297169 0.253710
O35   O     O_R   0.414243 0.998032 0.299755 -0.398753
O36   O     O_R   0.705727 0.048443 0.334885 -0.348189
H34   H     H_    0.415797 0.850149 0.222122 0.211014

loop_
_geom_bond_atom_site_label_1
_geom_bond_atom_site_label_2
_geom_bond_distance
_ccdc_geom_bond_type
H24   C31   1.113814 S    
C8    H2    1.110375 S    
C35   N8    1.471305 S    
C28   H30   1.113316 S    
C18   C19   1.571234 S    
C15   C19   1.567303 S    
N2    O23   1.299731 A    
C1    O6    1.309048 A    
C2    C33   1.520378 S    
V3    O20   1.713094 S    
C24   C25   1.560996 S    
C26   C27   1.566942 S    
C17   C40   1.526319 S    
C23   H29   1.114041 S    
C16   C17   1.554025 S    
C6    C11   1.556676 S    
C16   H11   1.109950 S    
C19   H28   1.115447 S    
O5    C3    1.304847 A    
C13   H6    1.113216 S    
N5    O29   1.301235 A    
V2    O10   2.175167 S    
C7    C39   1.506221 S    
N7    O33   1.301267 A    
C29   C33   1.556033 S    
C6    H1    1.110187 S    
C32   H26   1.109153 S    
C11   H5    1.109793 S    
C29   C30   1.565579 S    
C23   H20   1.103868 S    
O8    V2    2.009213 S    
C24   N5    1.447026 S    
C13   H34   1.107777 S    
C26   C28   1.560469 S    
C22   H17   1.108108 S    
C9    C12   1.545590 S    
C29   H31   1.111863 S    
C20   N2    1.465698 S    
C10   C11   1.554038 S    
H25   C35   1.113731 S    
O7    V1    2.162510 S    
C6    C7    1.545340 S    
N8    O36   1.301237 A    
O12   V3    2.011155 S    
C8    C9    1.552756 S    
C18   C20   1.569361 S    
O17   V4    1.721747 S    
C23   C25   1.552900 S    
C24   H18   1.114397 S    
O13   C40   1.303654 A    
C27   N4    1.463719 S    
C21   H15   1.112336 S    
C32   H32   1.108955 S    
C36   H27   1.109969 S    
C32   C36   1.547339 S    
C11   C12   1.548303 S    
N4    O28   1.300598 A    
O18   V4    2.006787 S    
O11   C38   1.301640 A    
O4    C2    1.303832 A    
O18   C39   1.304840 A    
C30   N6    1.469695 S    
C31   C35   1.571966 S    
C5    C8    1.535060 S    
H9    C15   1.112295 S    
C14   H8    1.110478 S    
C16   C20   1.558205 S    
O2    C1    1.304697 A    
C20   H12   1.115863 S    
O14   V3    2.016946 S    
N3    O25   1.300638 A    
C21   C22   1.552992 S    
C7    C10   1.543525 S    
C14   C18   1.560787 S    
C21   C25   1.532664 S    
C29   H22   1.110845 S    
N1    O22   1.299254 A    
C5    C6    1.537625 S    
O12   C37   1.306689 A    
C15   H13   1.113237 S    
N6    O32   1.298508 A    
C10   H4    1.110273 S    
O17   V3    2.162564 S    
N8    O35   1.298480 A    
C26   C38   1.526202 S    
C5    N3    1.453320 S    
O15   C39   1.300565 A    
O3    C4    1.302901 A    
C31   N7    1.472606 S    
O1    V2    2.005408 S    
O13   V3    2.013915 S    
C34   C36   1.560007 S    
N3    O26   1.300057 A    
O19   V4    2.009124 S    
O6    V2    2.009230 S    
C9    H3    1.104244 S    
O9    V2    2.006686 S    
O2    V1    2.017107 S    
C3    C18   1.531941 S    
O16   V4    2.007186 S    
C21   H14   1.082246 S    
N6    O31   1.297169 A    
C1    C25   1.532868 S    
C7    C8    1.542879 S    
O1    C2    1.302368 A    
C34   C35   1.571399 S    
O5    V1    2.013833 S    
C24   C28   1.558475 S    
N2    O24   1.300925 A    
C27   H21   1.115443 S    
C34   C37   1.530529 S    
C22   C26   1.556762 S    
C5    C12   1.529054 S    
C14   H7    1.108597 S    
C15   C17   1.555176 S    
C28   H19   1.113563 S    
O4    V1    2.011149 S    
C16   H10   1.113431 S    
O3    V1    2.008193 S    
V1    O10   1.713082 S    
C30   H23   1.111789 S    
C13   C14   1.544032 S    
V4    O20   2.175183 S    
N5    O30   1.302044 A    
C36   H33   1.108897 S    
N1    O21   1.301628 A    
O14   C38   1.308602 A    
N7    O34   1.300750 A    
C19   N1    1.466627 S    
C30   C34   1.569094 S    
C4    C12   1.513825 S    
O7    V2    1.722282 S    
C32   C33   1.556549 S    
C23   C27   1.549009 S    
C37   O16   1.305037 A    
O19   C40   1.308184 A    
C31   C33   1.572458 S    
C22   H16   1.113085 S    
N4    O27   1.301167 A    
C9    C10   1.552674 S    
C13   C17   1.557548 S    
O9    C4    1.305889 A    
O15   V3    2.008204 S    
O8    C3    1.308473 A    
O11   V4    2.009443 S    
