data_mof_unit_38108.cif
_audit_creation_date              2012-12-11T14:58:24-0500
_audit_creation_method            fapswitch 2.2
_symmetry_space_group_name_H-M    P1
_symmetry_Int_Tables_number       1
_space_group_crystal_system       triclinic
_cell_length_a                    10.944537
_cell_length_b                    10.966384
_cell_length_c                    18.784885
_cell_angle_alpha                 90.271176
_cell_angle_beta                  90.874151
_cell_angle_gamma                 59.80934
_cell_volume                      1948.54021138

loop_
_atom_site_label
_atom_site_type_symbol
_atom_type_description
_atom_site_fract_x
_atom_site_fract_y
_atom_site_fract_z
_atom_type_partial_charge
C1    C     C_R   0.358989 0.771240 0.397112 0.534658
C2    C     C_R   0.620644 0.126348 0.161074 0.021717
C3    C     C_R   0.367780 0.336577 0.159427 0.007675
C4    C     C_R   0.511047 0.272261 0.267323 -0.099665
C5    C     C_R   0.498444 0.249037 0.195335 0.010403
C6    C     C_R   0.109136 0.727336 0.274082 -0.089738
C7    C     C_R   0.993453 0.846115 0.301807 -0.091717
C8    C     C_R   0.675039 0.984804 0.184970 0.079828
C9    C     C_R   0.792346 0.875336 0.150268 -0.124949
C10   C     C_R   0.259330 0.450370 0.195244 -0.154276
C11   C     C_R   0.269836 0.469508 0.267867 -0.032665
C12   C     C_R   0.417563 0.380429 0.382832 0.553301
C13   C     C_R   0.914113 0.833144 0.355631 -0.061415
C14   C     C_R   0.947239 0.699132 0.379245 -0.087040
C15   C     C_R   0.060668 0.578911 0.349553 -0.048710
C16   C     C_R   0.146949 0.593047 0.299473 0.052650
C17   C     C_R   0.396075 0.374619 0.305522 0.014893
C18   C     C_R   0.847799 0.233399 0.295672 -0.163767
C19   C     C_R   0.867614 0.223596 0.222822 -0.160956
C20   C     C_R   0.869931 0.333271 0.185922 0.017429
C21   C     C_R   0.855683 0.450614 0.222685 -0.123702
C22   C     C_R   0.840084 0.457776 0.295169 -0.136985
C23   C     C_R   0.777175 0.379593 0.403050 0.535597
C24   C     C_R   0.832885 0.350755 0.331948 0.017140
C25   C     C_R   0.450792 0.708616 0.276874 -0.121643
C26   C     C_R   0.442678 0.737954 0.204547 -0.131463
C27   C     C_R   0.339516 0.870393 0.180136 0.056354
C28   C     C_R   0.247998 0.974713 0.227757 -0.067514
C29   C     C_R   0.255321 0.945108 0.299835 -0.109232
C30   C     C_R   0.355998 0.811717 0.324111 0.038137
C31   C     C_R   0.464705 0.276256 0.717442 -0.123309
C32   C     C_R   0.446870 0.274861 0.789497 -0.133687
C33   C     C_R   0.310779 0.334425 0.816481 0.030315
C34   C     C_R   0.344755 0.768636 0.604794 0.549912
C35   C     C_R   0.191724 0.407371 0.771562 -0.132687
C36   C     C_R   0.209938 0.411994 0.698720 -0.139194
C37   C     C_R   0.346707 0.341311 0.671471 0.035434
C38   C     C_R   0.739270 0.475627 0.731876 -0.127372
C39   C     C_R   0.750205 0.462223 0.804851 -0.136716
C40   C     C_R   0.813465 0.328330 0.835851 0.025765
C41   C     C_R   0.849702 0.209277 0.793224 -0.140144
C42   C     C_R   0.834548 0.223560 0.719419 -0.152067
C43   C     C_R   0.784696 0.356457 0.688438 0.030728
C44   C     C_R   0.204232 0.825015 0.713426 -0.129619
C45   C     C_R   0.373187 0.352133 0.597487 0.553823
C46   C     C_R   0.196624 0.835944 0.786606 -0.137294
C47   C     C_R   0.302767 0.843213 0.825290 0.033008
C48   C     C_R   0.418665 0.835798 0.789877 -0.133426
C49   C     C_R   0.426043 0.825224 0.716489 -0.141657
C50   C     C_R   0.320277 0.817145 0.677938 0.033621
C51   C     C_R   0.914076 0.314427 0.112724 0.538240
C52   C     C_R   0.330613 0.294715 0.091826 0.544434
C53   C     C_R   0.308080 0.899496 0.105439 0.530692
C54   C     C_R   0.878415 0.310631 0.905931 0.542505
C55   C     C_R   0.295960 0.291297 0.886587 0.545528
C56   C     C_R   0.757482 0.379962 0.612310 0.547580
C57   C     C_R   0.275759 0.893714 0.898009 0.547036
C58   C     C_R   0.850488 0.903167 0.091353 -0.145555
C59   C     C_R   0.793216 0.040670 0.066237 -0.097948
C60   C     C_R   0.681109 0.151947 0.101547 -0.101209
Cr1   Cr    Cr6+3 0.601770 0.606860 0.505860 1.001035
Cr2   Cr    Cr6+3 0.291380 0.601660 0.495070 1.017772
Cr3   Cr    Cr6+3 0.606880 0.291510 0.499120 1.006323
Cr4   Cr    Cr6+3 0.062440 0.063090 0.008210 0.982577
Cr5   Cr    Cr6+3 0.062880 0.375170 0.998920 1.005989
Cr6   Cr    Cr6+3 0.374700 0.061720 0.992470 1.029444
H1    H     H_    0.609588 0.202854 0.294785 0.125977
H2    H     H_    0.824778 0.926354 0.377439 0.116910
H3    H     H_    0.883576 0.688335 0.419507 0.108551
H4    H     H_    0.083787 0.475299 0.366936 0.123077
H5    H     H_    0.837985 0.153386 0.323819 0.114691
H6    H     H_    0.883989 0.129503 0.195792 0.142580
H7    H     H_    0.859823 0.535693 0.195961 0.155103
H8    H     H_    0.825250 0.551559 0.321658 0.168434
H9    H     H_    0.527114 0.603865 0.295832 0.120018
H10   H     H_    0.511530 0.656592 0.167825 0.107605
H11   H     H_    0.167828 0.077566 0.208447 0.132471
H12   H     H_    0.837534 0.766902 0.167550 0.147397
H13   H     H_    0.181366 0.024118 0.336021 0.115041
H14   H     H_    0.571619 0.227083 0.697822 0.142160
H15   H     H_    0.539627 0.219839 0.823728 0.126242
H16   H     H_    0.085600 0.453042 0.792003 0.136627
H17   H     H_    0.118473 0.467041 0.663764 0.121492
H18   H     H_    0.695593 0.580176 0.709481 0.133865
H19   H     H_    0.720167 0.555563 0.836680 0.123503
H20   H     H_    0.899022 0.104536 0.816272 0.129675
H21   H     H_    0.865154 0.131263 0.686720 0.116886
H22   H     H_    0.121125 0.817908 0.685056 0.133445
H23   H     H_    0.966626 0.946990 0.280490 0.093617
H24   H     H_    0.104964 0.844124 0.812420 0.123827
H25   H     H_    0.501150 0.843499 0.818553 0.128137
H26   H     H_    0.516143 0.819514 0.690195 0.121214
H27   H     H_    0.939082 0.817459 0.064498 0.114103
H28   H     H_    0.836458 0.061150 0.019483 0.151291
H29   H     H_    0.639967 0.258558 0.082003 0.104077
H30   H     H_    0.169297 0.739983 0.232487 0.116800
H31   H     H_    0.160469 0.520136 0.167687 0.132082
O1    O     O_R   0.748800 0.497470 0.428000 -0.535720
O2    O     O_R   0.300070 0.471040 0.567100 -0.498722
O3    O     O_R   0.491670 0.258900 0.574910 -0.520915
O4    O     O_R   0.718780 0.304180 0.577850 -0.506351
O5    O     O_3   0.500010 0.500010 0.500020 -0.269016
O6    O     O_R   0.186690 0.923650 0.086970 -0.532586
O7    O     O_R   0.957250 0.194250 0.084630 -0.518565
O8    O     O_R   0.934970 0.407490 0.085330 -0.527325
O9    O     O_R   0.203780 0.365190 0.067090 -0.511934
O10   O     O_R   0.417600 0.174890 0.067840 -0.502411
O11   O     O_R   0.375320 0.946260 0.070860 -0.486239
O12   O     O_R   0.476420 0.724060 0.429470 -0.505981
O13   O     O_R   0.160600 0.919630 0.926660 -0.531717
O14   O     O_R   0.933060 0.190520 0.936020 -0.522265
O15   O     O_R   0.908880 0.403460 0.925020 -0.520572
O16   O     O_R   0.179600 0.361450 0.918490 -0.506316
O17   O     O_R   0.391510 0.170860 0.907530 -0.524782
O18   O     O_R   0.351130 0.942530 0.922260 -0.506519
O19   O     O_3   0.166667 0.166667 0.999870 -0.241477
O20   O     O_R   0.264580 0.744340 0.416750 -0.512641
O21   O     O_R   0.309380 0.472470 0.418200 -0.500522
O22   O     O_R   0.501710 0.260430 0.414300 -0.503549
O23   O     O_R   0.728090 0.305600 0.428960 -0.523196
O24   O     O_R   0.738760 0.495930 0.588610 -0.526059
O25   O     O_R   0.467110 0.722640 0.578360 -0.505663
O26   O     O_R   0.254530 0.742800 0.577360 -0.525039
C61   C     C_2   0.610367 0.945724 0.243324 0.560850
O27   O     O_2   0.490158 0.027060 0.262782 -0.514685
O28   O     O_R   0.686506 0.812828 0.275179 -0.744048
H32   H     H_    0.635391 0.801596 0.316922 0.342848

loop_
_geom_bond_atom_site_label_1
_geom_bond_atom_site_label_2
_ccdc_geom_bond_type
C33   C55   S    
Cr4   O6    S    
O28   H32   S    
Cr4   O19   S    
C41   C42   A    
C35   C36   A    
C53   O11   A    
Cr6   O10   S    
Cr3   O4    S    
Cr1   O12   S    
C31   H14   S    
C57   O18   A    
C32   H15   S    
C26   C27   A    
Cr3   O3    S    
Cr6   O19   S    
C18   C24   A    
C28   C29   A    
C58   H27   S    
C56   O4    A    
C18   C19   A    
C20   C51   S    
C38   C39   A    
C33   C35   A    
C2    C60   A    
C36   H17   S    
C15   C16   A    
C7    H23   S    
C21   H7    S    
C18   H5    S    
Cr1   O24   S    
C9    C58   A    
Cr2   O20   S    
C1    O12   A    
C19   C20   A    
C52   O10   A    
C8    C9    A    
C48   H25   S    
C12   C17   S    
C26   H10   S    
C23   C24   S    
C59   H28   S    
C13   C14   A    
C52   O9    A    
C59   C60   A    
C34   O25   A    
C21   C22   A    
C19   H6    S    
Cr3   O5    S    
Cr5   O8    S    
Cr2   O26   S    
C35   H16   S    
C44   C46   A    
C34   C50   S    
Cr6   O18   S    
C45   O2    A    
C23   O23   A    
C8    C61   S    
Cr4   O14   S    
C55   O16   A    
C51   O7    A    
C31   C37   A    
Cr1   O25   S    
C25   H9    S    
C10   H31   S    
Cr5   O15   S    
C29   C30   A    
C41   H20   S    
C47   C57   S    
C12   O22   A    
Cr3   O22   S    
C11   C16   S    
Cr4   O13   S    
C47   C48   A    
C29   H13   S    
C51   O8    A    
C54   O15   A    
C1    O20   A    
C28   H11   S    
C12   O21   A    
C4    C17   A    
C40   C41   A    
C6    H30   S    
C14   H3    S    
C22   C24   A    
C58   C59   A    
C2    C5    S    
C42   C43   A    
C22   H8    S    
C49   H26   S    
C37   C45   S    
Cr5   O9    S    
C39   C40   A    
C61   O28   S    
C44   C50   A    
C25   C30   A    
Cr4   O7    S    
C15   H4    S    
C46   C47   A    
C11   C17   A    
Cr6   O17   S    
C38   H18   S    
Cr5   O16   S    
C31   C32   A    
C2    C8    A    
Cr6   O11   S    
C4    C5    A    
C3    C5    A    
C45   O3    A    
C4    H1    S    
C3    C52   S    
C27   C53   S    
C57   O13   A    
C6    C7    A    
C46   H24   S    
C55   O17   A    
C40   C54   S    
C56   O24   A    
Cr1   O5    S    
C25   C26   A    
C38   C43   A    
C3    C10   A    
C32   C33   A    
Cr3   O23   S    
Cr1   O1    S    
C53   O6    A    
C48   C49   A    
C1    C30   S    
Cr5   O19   S    
C54   O14   A    
C9    H12   S    
Cr2   O21   S    
C10   C11   A    
C6    C16   A    
Cr2   O2    S    
C60   H29   S    
C43   C56   S    
C7    C13   A    
C23   O1    A    
C20   C21   A    
C36   C37   A    
C49   C50   A    
C27   C28   A    
C34   O26   A    
C39   H19   S    
C14   C15   A    
C42   H21   S    
C44   H22   S    
C61   O27   D    
Cr2   O5    S    
C13   H2    S    
