data_mof_unit_7712.cif
_audit_creation_date              2013-03-05T16:15:03-0500
_audit_creation_method            fapswitch 2.2
_symmetry_space_group_name_H-M    P1
_symmetry_Int_Tables_number       1
_space_group_crystal_system       triclinic
_cell_length_a                    23.34524
_cell_length_b                    10.754305
_cell_length_c                    9.521183
_cell_angle_alpha                 88.804393
_cell_angle_beta                  91.747662
_cell_angle_gamma                 90.834339
_cell_volume                      2388.54159818

loop_
_atom_site_label
_atom_site_type_symbol
_atom_site_description
_atom_site_fract_x
_atom_site_fract_y
_atom_site_fract_z
_atom_type_partial_charge
O1    O     O_R   0.500030 0.316850 0.620870 -0.517687
O2    O     O_R   0.499970 0.683150 0.379130 -0.534326
O3    O     O_R   0.500000 0.316860 0.379090 -0.569715
O4    O     O_R   0.500000 0.683140 0.620910 -0.544295
C1    C     C_R   0.500942 0.259593 0.501534 0.869055
C2    C     C_R   0.499326 0.740034 0.498728 0.882044
O5    O     O_R   0.417890 0.499960 0.620920 -0.541562
O6    O     O_R   0.582110 0.500040 0.379080 -0.588323
O7    O     O_R   0.417870 0.499970 0.379140 -0.530164
O8    O     O_R   0.582130 0.500030 0.620860 -0.514070
C3    C     C_R   0.390748 0.500866 0.499033 0.840069
C4    C     C_R   0.609369 0.503164 0.502359 0.842068
Cu1   Cu    Cu3+1 0.500010 0.499990 0.643150 1.121110
Cu2   Cu    Cu3+1 0.499990 0.500010 0.356850 1.071147
C5    C     C_R   0.880884 0.640648 0.634747 0.662500
C6    C     C_R   0.124351 0.440620 0.683155 0.667679
N1    N     N_R   0.853852 0.527912 0.615471 -0.444245
N2    N     N_R   0.149877 0.536079 0.609375 -0.445782
C7    C     C_R   0.884160 0.419822 0.630135 0.580473
C8    C     C_R   0.118854 0.640544 0.575434 0.592799
C9    C     C_R   0.942855 0.422633 0.670718 -0.051602
C10   C     C_R   0.061530 0.649783 0.617451 -0.056647
C11   C     C_R   0.972256 0.537076 0.656307 -0.074110
C12   C     C_R   0.032446 0.539430 0.653724 -0.087616
C13   C     C_R   0.941529 0.648781 0.642670 -0.126989
C14   C     C_R   0.063853 0.432042 0.687150 -0.117143
C15   C     C_R   0.973598 0.316078 0.720138 -0.026441
C16   C     C_R   0.033134 0.764211 0.630577 -0.028995
C17   C     C_R   0.034312 0.321402 0.725110 0.369236
C18   C     C_R   0.972533 0.763467 0.639818 0.358392
O9    O     O_2   0.849054 0.743504 0.643528 -0.420762
O10   O     O_2   0.157290 0.355758 0.751898 -0.433441
O11   O     O_2   0.858324 0.310933 0.597750 -0.511913
O12   O     O_2   0.142128 0.732278 0.496338 -0.521743
C19   C     C_R   0.247150 0.626388 0.590970 -0.187977
C20   C     C_R   0.757437 0.438900 0.652044 -0.189519
H1    H     H_    0.232228 0.708902 0.640624 0.198255
H2    H     H_    0.775813 0.380355 0.735087 0.207129
C21   C     C_R   0.304506 0.621757 0.555327 0.311474
C22   C     C_R   0.700068 0.421417 0.610912 0.335036
C23   C     C_R   0.327208 0.510997 0.502628 -0.170333
C24   C     C_R   0.673428 0.505023 0.513807 -0.184632
C25   C     C_R   0.289505 0.407094 0.477938 -0.073996
C26   C     C_R   0.708217 0.595169 0.443437 -0.116315
C27   C     C_R   0.230180 0.417301 0.508278 0.359421
C28   C     C_R   0.768676 0.596004 0.468804 0.375677
C29   C     C_R   0.209332 0.526600 0.568519 0.143717
C30   C     C_R   0.792847 0.522427 0.579654 0.141337
C31   C     C_3   0.533147 0.034029 0.607621 0.389672
C32   C     C_3   0.467412 0.963597 0.394337 0.394490
C33   C     C_3   0.554042 0.957176 0.485311 -0.261371
C34   C     C_3   0.446391 0.041000 0.516005 -0.267137
H3    H     H_    0.598141 0.922057 0.474363 0.192123
H4    H     H_    0.402155 0.075171 0.526946 0.192074
C35   C     C_3   0.499298 0.876529 0.497103 -0.147270
C36   C     C_3   0.501327 0.122308 0.504577 -0.166527
C37   C     C_3   0.479019 0.952543 0.621475 -0.120278
C38   C     C_3   0.521459 0.045690 0.379686 -0.171539
H5    H     H_    0.462565 0.914638 0.722058 0.244892
H6    H     H_    0.538205 0.083889 0.279504 0.226305
C39   C     C_3   0.511401 0.608329 0.045543 0.303330
C40   C     C_3   0.488539 0.391898 0.953605 0.341386
C41   C     C_3   0.461698 0.576213 0.943125 -0.215074
C42   C     C_3   0.538318 0.423112 0.056524 -0.244268
H7    H     H_    0.429652 0.639689 0.893708 0.240032
H8    H     H_    0.570083 0.359152 0.106926 0.208523
N3    N     N_3   0.500040 0.499970 0.858290 -0.275820
N4    N     N_3   0.499960 0.500030 0.141710 -0.280689
C43   C     C_3   0.548861 0.533285 0.953315 0.326757
C44   C     C_3   0.451438 0.467399 0.045839 0.344222
C45   C     C_3   0.942854 0.201551 0.780508 -0.272383
C46   C     C_3   0.909544 0.234248 0.911358 -0.404858
C47   C     C_3   0.878661 0.120537 0.972926 -0.608017
H9    H     H_    0.847564 0.081717 0.894148 0.286489
H10   H     H_    0.910023 0.048105 0.006024 0.276386
H11   H     H_    0.854872 0.147854 0.066426 0.247820
H12   H     H_    0.939876 0.272079 0.992657 0.248183
H13   H     H_    0.877151 0.306354 0.885285 0.232538
H14   H     H_    0.914576 0.157471 0.700096 0.295402
H15   H     H_    0.973310 0.127660 0.812902 0.240147
C48   C     C_3   0.067933 0.882239 0.660590 -0.261908
C49   C     C_3   0.106233 0.867426 0.795754 -0.376015
C50   C     C_3   0.164931 0.930915 0.782972 -0.590905
H16   H     H_    0.186441 0.900145 0.687694 0.261910
H17   H     H_    0.161101 0.033273 0.778176 0.327330
H18   H     H_    0.192367 0.906213 0.876445 0.230164
H19   H     H_    0.084006 0.906922 0.885939 0.257646
H20   H     H_    0.113801 0.768119 0.823623 0.209248
H21   H     H_    0.093023 0.909815 0.567771 0.275187
H22   H     H_    0.039432 0.961398 0.676966 0.243819
N5    N     N_R   0.523743 0.734438 0.090732 0.179556
O13   O     O_R   0.501274 0.826578 0.019006 -0.257577
O14   O     O_R   0.567291 0.756469 0.174506 -0.392633
N6    N     N_R   0.469591 0.270479 0.904089 0.183921
O15   O     O_R   0.488408 0.171197 0.969517 -0.254354
O16   O     O_R   0.423283 0.262136 0.825158 -0.323211
N7    N     N_R   0.603285 0.575044 0.897446 0.132669
O17   O     O_R   0.647742 0.503698 0.908373 -0.368391
O18   O     O_R   0.606893 0.681368 0.830488 -0.314115
N8    N     N_R   0.397878 0.421328 0.099620 0.161991
O19   O     O_R   0.350471 0.480214 0.072089 -0.342349
O20   O     O_R   0.397177 0.314299 0.164998 -0.360040
N9    N     N_R   0.065638 0.209738 0.748290 0.111590
O21   O     O_R   0.077775 0.170402 0.875734 -0.358176
O22   O     O_R   0.089763 0.159922 0.642331 -0.309190
N10   N     N_R   0.943042 0.878710 0.647116 0.135200
O23   O     O_R   0.921030 0.910406 0.764726 -0.368593
O24   O     O_R   0.941862 0.955738 0.539914 -0.311626
N11   N     N_R   0.339187 0.731540 0.576138 0.131088
O25   O     O_R   0.381273 0.729902 0.668462 -0.380080
O26   O     O_R   0.319539 0.838740 0.532847 -0.336662
N12   N     N_R   0.670548 0.311506 0.658895 0.172177
O27   O     O_R   0.640329 0.247250 0.568282 -0.370147
O28   O     O_R   0.684971 0.259789 0.779422 -0.264396
C51   C     C_3   0.312350 0.282763 0.431198 -0.342852
C52   C     C_3   0.285864 0.239073 0.289616 -0.291533
C53   C     C_3   0.308038 0.111402 0.253231 -0.598673
H23   H     H_    0.355397 0.111677 0.258390 0.292077
H24   H     H_    0.291981 0.039827 0.328667 0.272192
H25   H     H_    0.292999 0.086765 0.145461 0.261087
H26   H     H_    0.238778 0.230564 0.289353 0.264604
H27   H     H_    0.295408 0.307654 0.205192 0.291440
H28   H     H_    0.359530 0.286316 0.421929 0.195436
H29   H     H_    0.304325 0.211475 0.514580 0.238195
C54   C     C_3   0.682493 0.690987 0.342574 -0.347599
C55   C     C_3   0.691774 0.656239 0.189070 -0.268954
C56   C     C_3   0.700593 0.770920 0.094179 -0.579133
H30   H     H_    0.663997 0.835094 0.098901 0.291169
H31   H     H_    0.740446 0.821507 0.126722 0.258279
H32   H     H_    0.704912 0.741764 0.983922 0.275189
H33   H     H_    0.729659 0.595866 0.179896 0.242639
H34   H     H_    0.653927 0.601908 0.151183 0.258437
H35   H     H_    0.636342 0.702160 0.360354 0.211640
H36   H     H_    0.700971 0.783997 0.366627 0.244242
N13   N     N_R   0.190683 0.316751 0.479364 0.128630
O29   O     O_R   0.198935 0.206855 0.535558 -0.304468
O30   O     O_R   0.145141 0.336087 0.400099 -0.324862
N14   N     N_R   0.805988 0.665577 0.377741 0.127003
O31   O     O_R   0.804143 0.786374 0.370008 -0.301166
O32   O     O_R   0.846498 0.608771 0.314835 -0.343798
N15   N     N_R   0.569633 0.063094 0.729729 0.193582
O33   O     O_R   0.596031 0.973865 0.798074 -0.265041
O34   O     O_R   0.571763 0.174557 0.779354 -0.240725
N16   N     N_R   0.431178 0.923275 0.276302 0.142771
O35   O     O_R   0.433265 0.982599 0.156197 -0.257629
O36   O     O_R   0.392736 0.836188 0.294061 -0.309124

loop_
_geom_bond_atom_site_label_1
_geom_bond_atom_site_label_2
_geom_bond_distance
_ccdc_geom_bond_type
C54   H36   1.109069 S    
C41   H7    1.107724 S    
C55   C56   1.528783 S    
C15   C17   1.417085 A    
C47   H10   1.111052 S    
C47   H9    1.111285 S    
C1    C36   1.476240 S    
N14   O31   1.300899 A    
N1    C30   1.454920 S    
C2    C35   1.467678 S    
C19   C29   1.395437 A    
N2    C29   1.458406 S    
C45   H14   1.105405 S    
C48   C49   1.551260 S    
N13   O29   1.301576 A    
C22   N12   1.433095 S    
O5    C3    1.305070 A    
C40   C44   1.509065 S    
C52   H27   1.105043 S    
C40   N3    1.486013 S    
O1    C1    1.304476 A    
C42   N4    1.495945 S    
C19   H1    1.081138 S    
C12   C14   1.402752 A    
C53   H24   1.110776 S    
C37   H5    1.110156 S    
N10   O23   1.300119 A    
C38   H6    1.110468 S    
C49   H19   1.111671 S    
C31   C37   1.534663 S    
C52   C53   1.524669 S    
C17   N9    1.424874 S    
N13   O30   1.301588 A    
O4    Cu1   1.976604 S    
C39   C41   1.532946 S    
C45   H15   1.106784 S    
C4    C24   1.495998 S    
C25   C51   1.526555 S    
C26   C28   1.424600 A    
C31   C33   1.537445 S    
C31   N15   1.456673 S    
C40   C42   1.535030 S    
C11   C12   1.405947 A    
C20   C30   1.397362 A    
N11   O25   1.298290 A    
C33   C35   1.539657 S    
C28   N14   1.438852 S    
C8    O12   1.346833 S    
C22   C24   1.412985 A    
C9    C15   1.424955 A    
C10   C16   1.415864 A    
Cu1   Cu2   2.725897 S    
C18   N10   1.430446 S    
C23   C25   1.431182 A    
O2    C2    1.304420 A    
C24   C26   1.425313 A    
N12   O28   1.301866 A    
N12   O27   1.301193 A    
N7    O18   1.300397 A    
C34   H4    1.109762 S    
N7    O17   1.299994 A    
C21   N11   1.435550 S    
C28   C30   1.414306 A    
C27   C29   1.417504 A    
C9    C11   1.406690 A    
C6    C14   1.415628 A    
C41   N3    1.489645 S    
C26   C54   1.512045 S    
C27   N13   1.436379 S    
C51   H28   1.107664 S    
C52   H26   1.101641 S    
C34   C36   1.546967 S    
C32   C38   1.537541 S    
C20   C22   1.395038 A    
N16   O36   1.299715 A    
C7    O11   1.346598 S    
C53   H25   1.110409 S    
N5    O13   1.299415 A    
C33   C38   1.559030 S    
N16   O35   1.299668 A    
C33   H3    1.110354 S    
N15   O34   1.297335 A    
C42   H8    1.110266 S    
C19   C21   1.393177 A    
O7    Cu2   1.935238 S    
C56   H31   1.110074 S    
C46   H12   1.112401 S    
N5    O14   1.295111 A    
O7    C3    1.322415 A    
C32   C34   1.537040 S    
C50   H16   1.108937 S    
C41   C44   1.530216 S    
C55   H34   1.107478 S    
O6    C4    1.318818 A    
N8    O20   1.297214 A    
N9    O22   1.299236 A    
C35   C37   1.542888 S    
C42   C43   1.545224 S    
N6    O16   1.300766 A    
C25   C27   1.429604 A    
O3    Cu2   1.976604 S    
O8    C4    1.311503 A    
C48   H22   1.104586 S    
O4    C2    1.302842 A    
C50   H17   1.105589 S    
C8    C10   1.413842 A    
C40   N6    1.455729 S    
C32   N16   1.455429 S    
C54   C55   1.538556 S    
C47   H11   1.110431 S    
C10   C12   1.400882 A    
O1    Cu1   1.985340 S    
C56   H30   1.108608 S    
C15   C45   1.527210 S    
Cu1   N3    2.048361 S    
C54   H35   1.104381 S    
C13   C18   1.421131 A    
C5    N1    1.371772 A    
O6    Cu2   1.922327 S    
C51   H29   1.110236 S    
C7    C9    1.412371 A    
C16   C48   1.524387 S    
C6    N2    1.371162 A    
C46   C47   1.526132 S    
O3    C1    1.306814 A    
O8    Cu1   1.935235 S    
C5    O9    1.346958 S    
N14   O32   1.301141 A    
C6    O10   1.348113 S    
C31   C36   1.533926 S    
C32   C35   1.525084 S    
C39   C43   1.511340 S    
C44   N8    1.442757 S    
N11   O26   1.301306 A    
C56   H32   1.109786 S    
C48   H21   1.107975 S    
C45   C46   1.538118 S    
N15   O33   1.300291 A    
C20   H2    1.082590 S    
C39   N4    1.492504 S    
N10   O24   1.300949 A    
C55   H33   1.111410 S    
C49   H20   1.110402 S    
C16   C18   1.420047 A    
N8    O19   1.300150 A    
N1    C7    1.372054 A    
C36   C38   1.549213 S    
C3    C23   1.490437 S    
N2    C8    1.373088 A    
C11   C13   1.409782 A    
N6    O15   1.300103 A    
O2    Cu2   1.985340 S    
C5    C13   1.417015 A    
C34   C37   1.558258 S    
C39   N5    1.453562 S    
O5    Cu1   1.922331 S    
C50   H18   1.110486 S    
C21   C23   1.418098 A    
C14   C17   1.412580 A    
N4    C44   1.475868 S    
C49   C50   1.529126 S    
C46   H13   1.110141 S    
N9    O21   1.301052 A    
Cu2   N4    2.048361 S    
N3    C43   1.478062 S    
C53   H23   1.105185 S    
C51   C52   1.545122 S    
C43   N7    1.453804 S    
