data_mof_unit_6572.cif
_audit_creation_date              2012-12-11T18:37:39-0500
_audit_creation_method            fapswitch 2.2
_symmetry_space_group_name_H-M    P1
_symmetry_Int_Tables_number       1
_space_group_crystal_system       triclinic
_cell_length_a                    8.21513
_cell_length_b                    14.288713
_cell_length_c                    27.014366
_cell_angle_alpha                 93.047075
_cell_angle_beta                  92.901551
_cell_angle_gamma                 88.444373
_cell_volume                      3161.55061853

loop_
_atom_site_label
_atom_site_type_symbol
_atom_type_description
_atom_site_fract_x
_atom_site_fract_y
_atom_site_fract_z
_atom_type_partial_charge
Ba1   Ba    Ba6+2 0.849670 0.455410 0.524690 1.659403
Ba2   Ba    Ba6+2 0.340150 0.544510 0.475310 1.640001
C1    C     C_3   0.682559 0.118419 0.680533 -0.320831
C2    C     C_R   0.930762 0.592500 0.175944 0.574215
C3    C     C_2   0.766512 0.564156 0.270539 -0.084357
C4    C     C_3   0.184292 0.186192 0.662364 0.300070
C5    C     C_3   0.752065 0.594001 0.324491 -0.047286
C6    C     C_1   0.978915 0.484507 0.343349 0.032220
C7    C     C_2   0.017475 0.478469 0.295697 -0.102360
C8    C     C_2   0.903571 0.518115 0.255843 0.197740
C9    C     C_R   0.016697 0.503683 0.101614 -0.079839
C10   C     C_R   0.026844 0.422452 0.129165 -0.036079
C11   C     C_R   0.073412 0.337309 0.105167 -0.060309
C12   C     C_3   0.657105 0.206483 0.651631 0.425761
C13   C     C_R   0.968894 0.589150 0.125438 -0.024351
C14   C     C_2   0.851434 0.533843 0.359285 -0.289268
C15   C     C_2   0.342829 0.471000 0.640831 -0.264775
C16   C     C_3   0.150131 0.160846 0.714669 -0.305540
C17   C     C_R   0.124597 0.407489 0.974070 0.019816
C18   C     C_R   0.089704 0.579267 0.972618 0.020516
C19   C     C_R   0.124901 0.491361 0.947880 0.049829
C20   C     C_R   0.152515 0.321493 0.947007 -0.100798
C21   C     C_R   0.183942 0.318233 0.896734 -0.062085
C22   C     C_R   0.190029 0.400466 0.870910 -0.028804
C23   C     C_3   0.533747 0.675553 0.622493 0.287845
C24   C     C_R   0.160692 0.487269 0.896365 -0.080103
C25   C     C_R   0.166958 0.569920 0.870284 -0.033330
C26   C     C_R   0.205240 0.564816 0.819556 0.591233
C27   C     C_R   0.224130 0.397244 0.820014 0.590923
C28   C     C_3   0.163214 0.258172 0.424517 0.311146
C29   C     C_2   0.409660 0.424154 0.728018 -0.094946
C30   C     C_3   0.432531 0.402701 0.673368 -0.056797
C31   C     C_1   0.211712 0.516763 0.656376 0.036910
C32   C     C_2   0.170088 0.520672 0.703559 -0.077841
C33   C     C_2   0.276229 0.474087 0.742699 0.218244
C34   C     C_3   0.531582 0.697630 0.678136 -0.353824
C35   C     C_R   0.095160 0.412060 0.025971 0.019970
C36   C     C_R   0.053400 0.499505 0.050161 0.049677
C37   C     C_R   0.047327 0.582859 0.023430 0.020162
C38   C     C_R   0.106599 0.332052 0.054918 -0.099635
C39   C     C_R   0.958886 0.670125 0.098268 -0.060714
C40   C     C_3   0.168537 0.152441 0.414174 -0.383047
C41   C     C_R   0.099098 0.660928 0.945435 -0.099896
C42   C     C_R   0.136869 0.656191 0.895621 -0.060624
C43   C     C_R   0.997201 0.667259 0.048621 -0.102201
C44   C     C_R   0.689476 0.064907 0.473294 -0.030665
C45   C     C_3   0.088049 0.746777 0.333860 0.336650
C46   C     C_R   0.511941 0.198587 0.502396 0.050475
C47   C     C_R   0.377358 0.230175 0.528723 -0.285238
C48   C     C_R   0.277611 0.167043 0.549392 -0.018606
C49   C     C_R   0.321538 0.072176 0.548753 -0.150105
C50   C     C_R   0.462203 0.039423 0.525180 0.004919
C51   C     C_R   0.555992 0.101717 0.499937 -0.022848
C52   C     C_3   0.038626 0.742919 0.574779 0.249071
C53   C     C_R   0.641071 0.908262 0.499840 0.014832
C54   C     C_R   0.734594 0.969473 0.473914 0.014840
C55   C     C_R   0.685555 0.812278 0.499346 0.027217
C56   C     C_3   0.108561 0.773083 0.280759 -0.306121
C57   C     C_R   0.818295 0.778248 0.473128 -0.296773
C58   C     C_R   0.917950 0.838973 0.450896 0.012661
C59   C     C_R   0.874972 0.934558 0.450245 -0.136477
C60   C     C_R   0.506270 0.944443 0.525427 0.004338
C61   C     C_3   0.063040 0.848468 0.582452 -0.258395
C62   C     C_3   0.657385 0.339991 0.379819 0.299088
C63   C     C_3   0.655697 0.317039 0.324178 -0.361753
C64   C     C_2   0.942393 0.892932 0.616898 0.501266
C65   C     C_3   0.553216 0.796601 0.355761 0.357231
C66   C     C_3   0.520376 0.892675 0.335156 -0.365071
C67   C     C_R   0.989937 0.427902 0.180098 0.597237
H1    H     H_    0.707347 0.193839 0.614366 0.093117
H2    H     H_    0.572881 0.400625 0.386744 0.080929
H3    H     H_    0.814045 0.099294 0.684382 0.155371
H4    H     H_    0.745831 0.259741 0.315849 0.134067
H5    H     H_    0.687109 0.379682 0.304490 0.072007
H6    H     H_    0.532295 0.294708 0.310460 0.133111
H7    H     H_    0.523338 0.219179 0.646831 -0.156821
H8    H     H_    0.617206 0.059484 0.660623 0.100735
H9    H     H_    0.408635 0.658095 0.608449 0.013408
H10   H     H_    0.617191 0.614190 0.615939 0.073721
H11   H     H_    0.444685 0.756819 0.686016 0.129904
H12   H     H_    0.258316 0.133200 0.385735 0.127689
H13   H     H_    0.493136 0.635335 0.697008 0.076720
H14   H     H_    0.655398 0.716868 0.693019 0.128415
H15   H     H_    0.633761 0.130217 0.718012 0.094157
H16   H     H_    0.264277 0.164701 0.738432 0.115478
H17   H     H_    0.161709 0.681757 0.340294 0.094702
H18   H     H_    0.957477 0.733717 0.338430 -0.051183
H19   H     H_    0.224776 0.809475 0.277555 0.144829
H20   H     H_    0.111761 0.708557 0.256217 0.123558
H21   H     H_    0.006081 0.819964 0.268412 0.121561
H22   H     H_    0.687249 0.783107 0.356351 -0.064409
H23   H     H_    0.204231 0.116318 0.448473 0.064633
H24   H     H_    0.511722 0.798673 0.394346 0.074084
H25   H     H_    0.591836 0.945943 0.357717 0.067448
H26   H     H_    0.389161 0.912432 0.336583 0.150502
H27   H     H_    0.232061 0.258197 0.664016 0.009495
H28   H     H_    0.557056 0.892166 0.296135 0.123288
H29   H     H_    0.132811 0.446084 0.285448 0.125070
H30   H     H_    0.084211 0.273617 0.125261 0.121501
H31   H     H_    0.489895 0.389812 0.755007 0.101838
H32   H     H_    0.204227 0.250204 0.878076 0.117718
H33   H     H_    0.148076 0.254574 0.963341 0.067908
H34   H     H_    0.046239 0.128425 0.400396 0.119162
H35   H     H_    0.143781 0.263830 0.040089 0.068370
H36   H     H_    0.678214 0.591813 0.243482 0.115588
H37   H     H_    0.920967 0.736943 0.115406 0.121729
H38   H     H_    0.080885 0.730537 0.961768 0.067955
H39   H     H_    0.276814 0.134786 0.648142 -0.020224
H40   H     H_    0.142438 0.721167 0.876907 0.120207
H41   H     H_    0.058916 0.557649 0.714096 0.114223
H42   H     H_    0.982865 0.732789 0.030810 0.068535
H43   H     H_    0.835673 0.547196 0.398691 0.083400
H44   H     H_    0.376534 0.472582 0.602557 0.072586
H45   H     H_    0.909649 0.728500 0.565068 -0.011238
H46   H     H_    0.342672 0.303829 0.529793 0.067125
H47   H     H_    0.244285 0.024047 0.565731 0.072810
H48   H     H_    0.952114 0.981342 0.432329 0.071154
H49   H     H_    0.851291 0.704391 0.473129 0.064957
H50   H     H_    0.760744 0.109309 0.452134 0.095641
H51   H     H_    0.057094 0.210171 0.730420 0.170530
H52   H     H_    0.433138 0.899472 0.545730 0.083490
H53   H     H_    0.104937 0.088238 0.714171 0.090480
H54   H     H_    0.287301 0.282130 0.434974 0.001220
H55   H     H_    0.081661 0.274974 0.455430 0.066617
H56   H     H_    0.113759 0.717058 0.543726 0.083440
H57   H     H_    0.937934 0.870039 0.654456 0.028291
H58   H     H_    0.050639 0.881379 0.546111 0.074137
H59   H     H_    0.188368 0.861350 0.598298 0.063900
H60   H     H_    0.782174 0.358392 0.393220 0.010345
N1    N     N_R   0.942543 0.512521 0.203264 -0.422046
N2    N     N_R   0.234090 0.478973 0.794836 -0.422343
O1    O     O_2   0.918080 0.549800 0.616640 -0.451268
O2    O     O_2   0.256093 0.834664 0.457693 -0.492522
O3    O     O_3   0.141554 0.820339 0.366548 -0.602338
O4    O     O_3   0.150070 0.549720 0.556460 -0.495377
O5    O     O_3   0.546340 0.387390 0.478340 -0.487930
O6    O     O_2   0.398940 0.728800 0.517420 -0.470719
O7    O     O_3   0.587205 0.754063 0.599470 -0.636392
O8    O     O_2   0.415738 0.546599 0.321241 -0.497958
O9    O     O_3   0.468344 0.727989 0.326046 -0.595738
O10   O     O_2   0.997398 0.356874 0.203460 -0.596360
O11   O     O_2   0.243861 0.321231 0.797999 -0.624087
O12   O     O_3   0.608784 0.261147 0.403328 -0.640980
O13   O     O_2   0.887426 0.667383 0.195606 -0.622291
O14   O     O_2   0.214956 0.636981 0.797664 -0.601593
O15   O     O_3   0.658250 0.379560 0.591530 -0.479274
O16   O     O_2   0.758329 0.465740 0.677715 -0.482507
O17   O     O_3   0.084675 0.699714 0.618755 -0.645983
O18   O     O_3   0.737071 0.281889 0.677412 -0.576468
O19   O     O_2   0.790750 0.271170 0.482550 -0.471162
O20   O     O_3   0.062300 0.331660 0.568480 -0.472680
O21   O     O_2   0.941168 0.165849 0.540000 -0.467807
O22   O     O_2   0.849406 0.955394 0.603072 -0.593168
O23   O     O_3   0.039438 0.181897 0.632673 -0.566416
O24   O     O_2   0.271610 0.450170 0.383330 -0.461166
O25   O     O_3   0.039630 0.450200 0.443530 -0.498250
O26   O     O_3   0.531440 0.620360 0.408460 -0.475941
O27   O     O_3   0.105634 0.300319 0.381332 -0.624223
O28   O     O_3   0.643350 0.612530 0.521650 -0.477344
O29   O     O_3   0.127390 0.668260 0.431510 -0.491941
P1    P     P_3+3 0.090020 0.577590 0.608380 0.992266
P2    P     P_3+3 0.614340 0.285150 0.467650 0.971185
P3    P     P_3+3 0.081628 0.210131 0.572526 0.981588
P4    P     P_3+3 0.099670 0.422330 0.391610 0.990320
P5    P     P_3+3 0.110652 0.790646 0.427242 0.939065
P6    P     P_3+3 0.648492 0.385793 0.656051 0.977310
P7    P     P_3+3 0.583034 0.728722 0.535332 0.946181
P8    P     P_3+3 0.540178 0.618060 0.344155 0.943564

loop_
_geom_bond_atom_site_label_1
_geom_bond_atom_site_label_2
_ccdc_geom_bond_type
O9    P8    S    
C53   C54   A    
Ba2   O24   S    
C30   P6    S    
C9    C36   A    
C12   H1    S    
C39   C43   A    
C5    P8    S    
Ba1   O1    S    
C40   H34   S    
C15   H44   S    
C3    H36   S    
C26   O14   D    
C7    H29   S    
O17   P1    S    
C17   C19   A    
C22   C24   A    
C32   C33   S    
C35   C38   A    
C36   C37   A    
C55   C57   A    
C46   P2    S    
C52   C61   S    
C34   H14   S    
C67   O10   D    
C53   C60   A    
C63   H4    S    
C12   O18   S    
Ba1   Ba2   S    
C27   N2    Am   
C62   H2    S    
O1    P1    D    
C11   C38   A    
C17   C35   A    
C66   H28   S    
C9    C13   A    
C25   C42   A    
C34   H13   S    
C6    C7    D    
C21   C22   A    
Ba1   O5    S    
C7    C8    S    
O12   P2    S    
C61   H59   S    
O27   P4    S    
C37   C43   A    
C42   H40   S    
O15   P6    S    
C61   C64   S    
Ba1   P1    S    
C57   C58   A    
C6    C14   D    
O4    P1    S    
Ba1   O15   S    
C40   H12   S    
C15   C31   D    
C4    C16   S    
O26   P8    S    
C19   C24   A    
C31   C32   D    
C46   C51   A    
O19   P2    D    
C52   H56   S    
C16   H16   S    
C39   H37   S    
C59   H48   S    
C65   C66   S    
C66   H26   S    
C45   H17   S    
O23   P3    S    
Ba1   O28   S    
C17   C20   A    
C13   C39   A    
C6    P4    S    
Ba2   P4    S    
C3    C5    S    
C18   C37   A    
C67   N1    Am   
O5    P2    S    
C1    H15   S    
C29   H31   S    
C23   H9    S    
C66   H25   S    
C63   H5    S    
C49   C50   A    
Ba2   O4    S    
C58   C59   A    
C45   H18   S    
C11   H30   S    
Ba1   O25   S    
C31   P1    S    
C41   C42   A    
C8    N1    S    
C35   C36   A    
C65   O9    S    
O16   P6    D    
O2    P5    D    
C38   H35   S    
C29   C30   S    
C65   H22   S    
C48   C49   A    
C24   C25   A    
O3    P5    S    
Ba1   O19   S    
C54   C59   A    
C41   H38   S    
O29   P5    S    
C18   C19   A    
C62   H60   S    
C28   H54   S    
C56   H21   S    
C4    O23   S    
C1    C12   S    
C16   H53   S    
C46   C47   A    
C47   H46   S    
C10   C67   A    
C28   H55   S    
Ba1   P2    S    
C57   H49   S    
O20   P3    S    
C53   C55   A    
C45   O3    S    
C34   H11   S    
C32   H41   S    
C29   C33   D    
Ba2   O28   S    
C1    H8    S    
C16   H51   S    
O6    P7    D    
C18   C41   A    
C50   C51   A    
C14   H43   S    
C52   O17   S    
C28   O27   S    
C5    C14   S    
Ba2   O25   S    
C48   P3    S    
C23   H10   S    
Ba2   O6    S    
C28   C40   S    
O18   P6    S    
C58   P5    S    
C56   H19   S    
C2    O13   D    
C64   O22   D    
C2    N1    Am   
C9    C10   A    
C43   H42   S    
C55   P7    S    
C62   O12   S    
O24   P4    D    
C4    H27   S    
C49   H47   S    
C20   H33   S    
C26   N2    Am   
C62   C63   S    
C2    C13   A    
C1    H3    S    
C33   N2    S    
C3    C8    D    
C50   C60   A    
C23   O7    S    
C45   C56   S    
C21   H32   S    
Ba2   O26   S    
C27   O11   D    
C52   H45   S    
C44   C51   A    
O28   P7    S    
C44   H50   S    
Ba1   O20   S    
C40   H23   S    
O8    P8    D    
C56   H20   S    
Ba2   O5    S    
O21   P3    D    
C23   C34   S    
C64   H57   S    
C22   C27   A    
C10   C11   A    
O25   P4    S    
Ba2   O29   S    
C47   C48   A    
C44   C54   A    
C25   C26   A    
C65   H24   S    
C15   C30   S    
C4    H39   S    
C20   C21   A    
O7    P7    S    
Ba1   O4    S    
C60   H52   S    
C61   H58   S    
C63   H6    S    
C12   H7    S    
