data_mof_unit_15519.cif
_audit_creation_date              2012-12-11T17:39:32-0500
_audit_creation_method            fapswitch 2.2
_symmetry_space_group_name_H-M    P1
_symmetry_Int_Tables_number       1
_space_group_crystal_system       triclinic
_cell_length_a                    14.83665
_cell_length_b                    15.110892
_cell_length_c                    14.883005
_cell_angle_alpha                 109.051494
_cell_angle_beta                  108.686481
_cell_angle_gamma                 110.350685
_cell_volume                      2578.38757034

loop_
_atom_site_label
_atom_site_type_symbol
_atom_type_description
_atom_site_fract_x
_atom_site_fract_y
_atom_site_fract_z
_atom_type_partial_charge
C1    C     C_R   0.907658 0.911781 0.713419 0.682558
C2    C     C_R   0.909488 0.686085 0.439991 -0.116739
C3    C     C_R   0.697662 0.793496 0.202533 -0.102633
C4    C     C_R   0.094240 0.303702 0.506545 -0.134568
C5    C     C_R   0.306773 0.013373 0.603645 -0.137433
C6    C     C_R   0.633704 0.701174 0.201488 0.127813
C7    C     C_R   0.375950 0.084817 0.584652 0.075104
C8    C     C_R   0.003979 0.679197 0.456852 0.035337
C9    C     C_R   0.007014 0.950304 0.178501 0.037073
C10   C     C_R   0.501278 0.733040 0.551621 -0.076615
C11   C     C_R   0.523337 0.828348 0.545970 -0.133605
C12   C     C_R   0.003855 0.309478 0.455379 0.044556
C13   C     C_R   0.582567 0.929090 0.642086 0.108415
C14   C     C_R   0.616361 0.932446 0.743243 -0.166966
C15   C     C_R   0.591211 0.836865 0.748349 -0.096423
C16   C     C_R   0.259678 0.220473 0.813739 -0.145997
C17   C     C_R   0.534712 0.737227 0.652769 -0.037792
C18   C     C_R   0.533587 0.068531 0.671968 -0.240124
C19   C     C_R   0.494991 0.124050 0.626571 0.052196
C20   C     C_R   0.556966 0.182422 0.589683 0.006494
C21   C     C_R   0.635061 0.158452 0.572938 -0.187829
C22   C     C_R   0.644040 0.072106 0.582984 0.099259
C23   C     C_R   0.292049 0.322894 0.825313 0.132910
C24   C     C_R   0.594041 0.028354 0.636852 0.026681
C25   C     C_R   0.527889 0.260838 0.465217 -0.162583
C26   C     C_R   0.508045 0.335718 0.439599 -0.107036
C27   C     C_R   0.500242 0.414840 0.512432 -0.096427
C28   C     C_R   0.734801 0.049911 0.462309 0.704876
C29   C     C_R   0.512963 0.419660 0.611334 -0.111602
C30   C     C_R   0.534119 0.345806 0.638188 -0.140972
C31   C     C_R   0.540409 0.264708 0.564563 0.098355
C32   C     C_R   0.923144 0.160326 0.129242 -0.116883
C33   C     C_R   0.970970 0.260498 0.221264 -0.142364
C34   C     C_R   0.704882 0.031177 0.537165 -0.144757
C35   C     C_R   0.904688 0.300142 0.247151 0.105495
C36   C     C_R   0.790125 0.239369 0.178470 -0.195510
C37   C     C_R   0.741526 0.137751 0.086912 0.105586
C38   C     C_R   0.808867 0.098625 0.062646 -0.144543
C39   C     C_R   0.952706 0.490820 0.355030 -0.254571
C40   C     C_R   0.259141 0.313294 0.722570 -0.125592
C41   C     C_R   0.012745 0.587134 0.454572 0.065017
C42   C     C_R   0.076107 0.593416 0.553311 -0.032988
C43   C     C_R   0.069038 0.499450 0.551909 -0.022398
C44   C     C_R   0.009166 0.403789 0.451898 0.039031
C45   C     C_R   0.696773 0.701497 0.292683 -0.157373
C46   C     C_R   0.954939 0.399089 0.352435 0.007114
C47   C     C_R   0.265321 0.750216 0.689520 -0.195402
C48   C     C_R   0.339564 0.845773 0.789023 -0.121301
C49   C     C_R   0.303096 0.885497 0.860065 -0.104995
C50   C     C_R   0.191913 0.829819 0.831018 -0.118653
C51   C     C_R   0.116396 0.735924 0.729851 -0.127783
C52   C     C_R   0.745146 0.967099 0.561433 -0.238260
C53   C     C_R   0.152936 0.695924 0.658488 0.125279
C54   C     C_2   0.370361 0.517290 0.937801 -0.127172
C55   C     C_2   0.358504 0.422200 0.928911 -0.212450
C56   C     C_R   0.309712 0.106414 0.516398 -0.152654
C57   C     C_2   0.463584 0.619746 0.033499 -0.107137
C58   C     C_2   0.516684 0.624382 0.128053 -0.199626
C59   C     C_R   0.396701 0.211708 0.119675 0.106784
C60   C     C_R   0.306916 0.109485 0.078608 -0.223392
C61   C     C_R   0.198982 0.091688 0.038130 0.114044
C62   C     C_R   0.182092 0.178434 0.041818 -0.121074
C63   C     C_R   0.271461 0.280725 0.083689 -0.145349
C64   C     C_R   0.910295 0.214166 0.415728 -0.061947
C65   C     C_R   0.378407 0.297571 0.122590 -0.173577
C66   C     C_R   0.108692 0.952341 0.077194 -0.230423
C67   C     C_R   0.093354 0.782076 0.521507 -0.105362
C68   C     C_R   0.011012 0.900416 0.077239 0.056860
C69   C     C_R   0.914365 0.827006 0.975878 -0.010341
C70   C     C_R   0.912701 0.839208 0.885797 -0.206903
C71   C     C_R   0.004551 0.925626 0.900118 0.083444
C72   C     C_R   0.104535 0.985106 0.000448 0.004237
C73   C     C_R   0.840457 0.683207 0.024205 -0.131464
C74   C     C_R   0.752896 0.600610 0.017031 -0.108948
C75   C     C_R   0.644487 0.569838 0.950077 -0.077610
C76   C     C_R   0.089895 0.001315 0.801073 -0.241129
C77   C     C_R   0.623476 0.621548 0.890152 -0.133048
C78   C     C_R   0.912732 0.934259 0.188664 -0.152504
C79   C     C_R   0.710779 0.702605 0.895284 -0.176766
C80   C     C_R   0.820362 0.735736 0.963763 0.123468
C81   C     C_R   0.999381 0.949272 0.810792 -0.118917
C82   C     C_R   0.096597 0.033064 0.280677 0.047464
F1    F     F_    0.803438 0.833273 0.674524 -0.748794
F2    F     F_    0.700019 0.095686 0.404758 -0.762620
H1    H     H_    0.338043 0.172200 0.500695 0.116069
H2    H     H_    0.179319 0.359494 0.534672 0.092638
H3    H     H_    0.658987 0.008973 0.817739 0.115969
H4    H     H_    0.613603 0.840348 0.826508 0.083738
H5    H     H_    0.497282 0.035196 0.713947 0.123229
H6    H     H_    0.683929 0.203527 0.546133 0.184886
H7    H     H_    0.531213 0.198564 0.406590 0.150702
H8    H     H_    0.497771 0.331856 0.362854 0.128775
H9    H     H_    0.483895 0.472180 0.492066 0.104440
H10   H     H_    0.505256 0.480095 0.666468 0.105225
H11   H     H_    0.543213 0.350298 0.714987 0.118852
H12   H     H_    0.178949 0.805860 0.549455 0.114721
H13   H     H_    0.773136 0.020085 0.993046 0.105642
H14   H     H_    0.275267 0.199627 0.877743 0.124280
H15   H     H_    0.974540 0.129522 0.110661 0.125921
H16   H     H_    0.059520 0.306086 0.274024 0.110868
H17   H     H_    0.738362 0.268599 0.198777 0.119688
H18   H     H_    0.907391 0.488430 0.279986 0.133847
H19   H     H_    0.294770 0.719309 0.635635 0.120500
H20   H     H_    0.425215 0.888443 0.810812 0.112660
H21   H     H_    0.361187 0.958910 0.937738 0.101423
H22   H     H_    0.164328 0.859131 0.887008 0.123982
H23   H     H_    0.827931 0.880096 0.125460 0.124393
H24   H     H_    0.030344 0.693738 0.707799 0.119806
H25   H     H_    0.323633 0.520949 0.867480 0.122375
H26   H     H_    0.406548 0.416439 0.996619 0.131906
H27   H     H_    0.499147 0.685686 0.018505 0.121152
H28   H     H_    0.478326 0.561726 0.145902 0.125307
H29   H     H_    0.446781 0.377400 0.155041 0.096634
H30   H     H_    0.321269 0.043946 0.078570 0.116042
H31   H     H_    0.099824 0.166996 0.013266 0.111306
H32   H     H_    0.257863 0.347176 0.086202 0.126060
H33   H     H_    0.275433 0.377782 0.702749 0.089014
H34   H     H_    0.825163 0.620151 0.396153 0.104667
H35   H     H_    0.187239 0.987141 0.146744 0.139281
H36   H     H_    0.840077 0.783067 0.806961 0.202153
H37   H     H_    0.923996 0.706346 0.077208 0.112014
H38   H     H_    0.769163 0.560913 0.063940 0.107882
H39   H     H_    0.576878 0.506139 0.944924 0.117960
H40   H     H_    0.539401 0.598837 0.839743 0.098134
H41   H     H_    0.693094 0.740861 0.847669 0.120033
H42   H     H_    0.744031 0.942120 0.620675 0.212133
H43   H     H_    0.827204 0.188454 0.359529 0.175437
H44   H     H_    0.173300 0.021317 0.848645 0.151892
H45   H     H_    0.669235 0.826685 0.152719 0.092939
H46   H     H_    0.666797 0.649427 0.324303 0.104758
H47   H     H_    0.256636 0.086560 0.322241 0.100522
H48   H     H_    0.226986 0.186706 0.363248 0.106687
H49   H     H_    0.601219 0.000531 0.958198 0.077789
H50   H     H_    0.591812 0.055703 0.069516 0.109479
H51   H     H_    0.089294 0.527030 0.702445 0.122008
H52   H     H_    0.205270 0.551099 0.691567 0.101349
H53   H     H_    0.563881 0.308289 0.191383 0.088732
H54   H     H_    0.509960 0.181634 0.092561 0.098776
H55   H     H_    0.330323 0.989882 0.664599 0.098759
H56   H     H_    0.515503 0.663211 0.656978 0.076499
H57   H     H_    0.456292 0.655728 0.477526 0.093830
H58   H     H_    0.493433 0.823724 0.467027 0.118750
N1    N     N_R   0.941940 0.944580 0.650780 -0.098151
N2    N     N_R   0.204460 0.150250 0.707090 -0.038758
N3    N     N_R   0.794270 0.003240 0.446420 -0.105288
N4    N     N_R   0.204920 0.207570 0.650770 -0.043884
N5    N     N_R   0.793810 0.945920 0.502740 -0.069241
N6    N     N_R   0.943620 0.152590 0.446420 -0.053237
N7    N     N_R   0.055110 0.000900 0.707100 -0.070596
N8    N     N_R   0.795080 0.792430 0.349230 -0.040056
N9    N     N_3   0.199313 0.110908 0.299588 -0.217461
N10   N     N_3   0.623857 0.074528 0.020841 -0.228793
N11   N     N_3   0.120043 0.499194 0.652116 -0.210357
N12   N     N_R   0.206190 0.054080 0.497260 -0.044409
N13   N     N_3   0.505796 0.227190 0.159534 -0.217949
N14   N     N_R   0.056380 0.847410 0.553580 -0.042912
N15   N     N_R   0.944890 0.999100 0.292900 -0.048292
N16   N     N_R   0.058060 0.055420 0.349220 -0.058506
N17   N     N_R   0.943200 0.791100 0.497260 -0.040731
N18   N     N_R   0.795540 0.849750 0.292910 -0.051158
N19   N     N_R   0.205730 0.996760 0.553580 -0.041344
N20   N     N_R   0.056800 0.208900 0.502740 -0.047247
Ni1   Ni    Ni4+2 0.869690 0.869690 0.500000 0.252259
Ni2   Ni    Ni4+2 0.130310 0.130310 0.500000 0.194127
Ni3   Ni    Ni4+2 0.129250 0.998840 0.629170 0.208533
Ni4   Ni    Ni4+2 0.870750 0.001160 0.370830 0.231418

loop_
_geom_bond_atom_site_label_1
_geom_bond_atom_site_label_2
_ccdc_geom_bond_type
H54   N13   S    
C25   C31   A    
C26   H8    S    
C66   C68   A    
C63   C65   A    
N15   N16   A    
C6    C45   A    
C27   C29   A    
N6    Ni4   S    
C41   C42   A    
C6    C58   S    
N12   N19   A    
C60   H30   S    
C35   C36   A    
C3    C6    A    
C2    H34   S    
C39   C41   A    
C57   H27   S    
N8    Ni1   S    
C28   N3    A    
C37   C38   A    
N8    N18   A    
C18   C24   A    
C76   N7    A    
C22   C24   A    
N12   Ni2   S    
C36   C37   A    
C16   N2    A    
C14   H3    S    
C18   C19   A    
C42   C53   S    
C30   C31   A    
C12   C64   A    
C28   F2    S    
C10   C17   A    
C1    C81   A    
C23   C40   A    
C48   H20   S    
H53   N13   S    
C30   H11   S    
C45   N8    A    
C73   C74   A    
C4    N20   A    
C7    C19   S    
C34   C52   A    
C15   H4    S    
H47   N9    S    
C66   C72   A    
C19   C20   A    
C70   H36   S    
C2    N17   A    
C70   C71   A    
N18   Ni4   S    
C4    C12   A    
C82   N9    S    
N16   Ni2   S    
C9    C82   A    
C47   C53   A    
C40   H33   S    
C79   H41   S    
C28   C34   A    
C45   H46   S    
C21   C22   A    
C64   N6    A    
C61   C62   A    
H49   N10   S    
C7    C56   A    
C38   H13   S    
N1    Ni1   S    
N3    N5    A    
C44   C46   A    
C5    H55   S    
N20   Ni2   S    
C21   H6    S    
C77   C79   A    
C22   C34   S    
C25   H7    S    
C47   H19   S    
C74   C75   A    
N7    Ni3   S    
C8    C41   S    
C56   N12   A    
C5    C7    A    
C52   H42   S    
C68   C69   A    
C49   H21   S    
C25   C26   A    
N4    Ni2   S    
C58   H28   S    
C13   C24   S    
C60   C61   A    
C51   C53   A    
C10   H57   S    
C5    N19   A    
C76   C81   A    
C43   C44   A    
C29   C30   A    
C1    N1    A    
C78   N15   A    
C47   C48   A    
N1    N7    A    
C64   H43   S    
H50   N10   S    
C62   C63   A    
C50   C51   A    
C26   C27   A    
C36   H17   S    
C75   C77   A    
C78   H23   S    
C39   C46   A    
C63   H32   S    
C61   C72   S    
N2    N4    A    
C48   C49   A    
C74   H38   S    
C51   H24   S    
C16   C23   A    
C32   C38   A    
C66   H35   S    
C55   H26   S    
C67   H12   S    
C76   H44   S    
C75   H39   S    
C27   H9    S    
C42   C43   A    
C37   N10   S    
C39   H18   S    
C15   C17   A    
C54   C55   D    
C59   N13   S    
C3    H45   S    
C18   H5    S    
C65   H29   S    
N14   N17   A    
C2    C8    A    
N15   Ni4   S    
C23   C55   S    
C1    F1    S    
C73   H37   S    
H51   N11   S    
C32   H15   S    
C40   N4    A    
N2    Ni3   S    
C33   H16   S    
N6    N20   A    
C32   C33   A    
C9    C68   S    
C62   H31   S    
C12   C44   S    
C77   H40   S    
N5    Ni1   S    
C59   C65   A    
H52   N11   S    
C11   C13   A    
C16   H14   S    
C56   H1    S    
C3    N18   A    
N14   Ni3   S    
C82   N16   A    
C33   C35   A    
C73   C80   A    
C29   H10   S    
C17   H56   S    
N17   Ni1   S    
N3    Ni4   S    
C69   C70   A    
C11   H58   S    
C10   C11   A    
C79   C80   A    
C59   C60   A    
C4    H2    S    
C20   C21   A    
C54   H25   S    
C8    C67   A    
C49   C50   A    
C9    C78   A    
C50   H22   S    
H48   N9    S    
C14   C15   A    
C67   N14   A    
C69   C80   S    
C71   C72   A    
C57   C58   D    
C13   C14   A    
C35   C46   S    
C43   N11   S    
C54   C57   S    
N19   Ni3   S    
C52   N5    A    
C71   C81   S    
C20   C31   S    
