data_mof_unit_24615.cif
_audit_creation_date              2012-12-11T15:41:19-0500
_audit_creation_method            fapswitch 2.2
_symmetry_space_group_name_H-M    P1
_symmetry_Int_Tables_number       1
_space_group_crystal_system       triclinic
_cell_length_a                    15.051556
_cell_length_b                    15.110133
_cell_length_c                    15.065547
_cell_angle_alpha                 108.836912
_cell_angle_beta                  109.984516
_cell_angle_gamma                 109.23707
_cell_volume                      2648.91508386

loop_
_atom_site_label
_atom_site_type_symbol
_atom_type_description
_atom_site_fract_x
_atom_site_fract_y
_atom_site_fract_z
_atom_type_partial_charge
C1    C     C_R   0.195689 0.990680 0.898523 -0.152855
C2    C     C_R   0.766921 0.952142 0.042982 -0.089664
C3    C     C_R   0.864193 0.296409 0.298823 -0.125253
C4    C     C_R   0.187616 0.678187 0.676642 -0.123076
C5    C     C_R   0.501454 0.044108 0.324554 -0.085539
C6    C     C_R   0.503868 0.064912 0.700791 -0.056507
C7    C     C_R   0.491994 0.317816 0.047794 0.037024
C8    C     C_R   0.506911 0.686992 0.030042 0.056213
C9    C     C_R   0.185609 0.131822 0.711608 -0.245736
C10   C     C_R   0.786749 0.890518 0.366005 -0.220701
C11   C     C_R   0.283803 0.228641 0.784471 0.427490
C12   C     C_R   0.689424 0.792125 0.296582 0.425064
C13   C     C_R   0.295800 0.303128 0.879398 -0.108890
C14   C     C_R   0.684859 0.706504 0.217329 -0.109057
C15   C     C_R   0.205550 0.282215 0.895660 -0.118422
C16   C     C_R   0.780470 0.719727 0.212566 -0.124205
C17   C     C_R   0.107204 0.186122 0.820694 -0.251164
C18   C     C_R   0.876910 0.818279 0.282811 -0.250050
C19   C     C_R   0.097776 0.110322 0.730052 0.515672
C20   C     C_R   0.879748 0.903859 0.358046 0.574638
C21   C     C_R   0.421740 0.493147 0.950780 -0.089425
C22   C     C_R   0.563970 0.512658 0.144517 -0.091069
C23   C     C_R   0.803095 0.206298 0.297907 0.453354
C24   C     C_R   0.226386 0.778323 0.685952 0.441632
C25   C     C_R   0.506907 0.594265 0.038131 -0.015694
C26   C     C_R   0.479806 0.411482 0.056448 -0.012364
C27   C     C_R   0.580425 0.604664 0.134780 0.120928
C28   C     C_R   0.402283 0.402973 0.962825 0.108516
C29   C     C_R   0.917421 0.453465 0.457767 0.428999
C30   C     C_R   0.137323 0.518340 0.520779 0.463097
C31   C     C_R   0.996800 0.551893 0.547595 -0.135942
C32   C     C_R   0.057318 0.422176 0.426818 -0.154761
C33   C     C_R   0.105669 0.581889 0.579222 -0.016933
C34   C     C_R   0.948523 0.391534 0.396419 -0.036169
C35   C     C_R   0.597182 0.084254 0.600401 -0.076014
C36   C     C_R   0.425890 0.080877 0.446076 -0.077616
C37   C     C_R   0.597430 0.080086 0.508800 -0.085098
C38   C     C_R   0.425448 0.084717 0.539250 -0.063923
C39   C     C_R   0.509586 0.073341 0.429025 0.146593
C40   C     C_R   0.509966 0.083188 0.614666 0.149759
C41   C     C_R   0.950231 0.843619 0.904998 0.493271
C42   C     C_R   0.968825 0.049049 0.974966 0.483384
C43   C     C_R   0.869536 0.858406 0.919894 -0.268558
C44   C     C_R   0.046167 0.033263 0.956419 -0.286983
C45   C     C_R   0.409683 0.965736 0.224398 0.465397
C46   C     C_R   0.592568 0.096983 0.794959 0.396952
C47   C     C_R   0.879415 0.960514 0.954857 -0.076076
C48   C     C_R   0.038238 0.931994 0.923013 -0.047800
C49   C     C_R   0.586584 0.312232 0.061839 0.001307
C50   C     C_R   0.413950 0.695296 0.990759 -0.030083
C51   C     C_R   0.591149 0.066569 0.311597 -0.107827
C52   C     C_R   0.411872 0.005286 0.700603 -0.052936
C53   C     C_R   0.406558 0.215347 0.982945 -0.090397
C54   C     C_R   0.595148 0.783785 0.069547 -0.088061
C55   C     C_R   0.802863 0.297599 0.208544 0.437935
C56   C     C_R   0.224914 0.687141 0.777653 0.418848
C57   C     C_R   0.194689 0.902536 0.990611 -0.032332
C58   C     C_R   0.757427 0.036267 0.943778 0.012543
C59   C     C_R   0.132892 0.929868 0.926154 0.112340
C60   C     C_R   0.798194 0.975329 0.973576 0.072103
H1    H     H_    0.169192 0.017235 0.841147 0.142792
H2    H     H_    0.793630 0.913505 0.086898 0.121625
H3    H     H_    0.178362 0.072438 0.641755 0.226675
H4    H     H_    0.789614 0.957147 0.424990 0.224506
H5    H     H_    0.038573 0.168792 0.834083 0.209002
H6    H     H_    0.949546 0.829373 0.277658 0.200462
H7    H     H_    0.661125 0.078595 0.655223 0.159750
H8    H     H_    0.358815 0.077998 0.385330 0.165993
H9    H     H_    0.662003 0.072134 0.496984 0.155115
H10   H     H_    0.357699 0.084025 0.549920 0.171560
H11   H     H_    0.800326 0.791359 0.906131 0.187293
H12   H     H_    0.117202 0.102869 0.976232 0.169061
H13   H     H_    0.668251 0.378922 0.106439 0.150402
H14   H     H_    0.335100 0.640895 0.973355 0.179091
H15   H     H_    0.674479 0.123217 0.373788 0.189507
H16   H     H_    0.331040 0.986034 0.647557 0.189777
H17   H     H_    0.323209 0.189489 0.961964 0.101675
H18   H     H_    0.679810 0.809114 0.114338 0.099446
H19   H     H_    0.164357 0.843941 0.013761 0.217948
H20   H     H_    0.769563 0.068811 0.892257 0.172811
N1    N     N_R   0.293810 0.002730 0.945950 -0.065207
N2    N     N_R   0.706190 0.997270 0.054050 -0.061304
N3    N     N_R   0.706160 0.152130 0.208910 -0.119552
N4    N     N_R   0.293840 0.847870 0.791090 -0.118376
N5    N     N_R   0.443140 0.945920 0.152090 -0.082682
N6    N     N_R   0.556860 0.054080 0.847910 -0.096896
N7    N     N_R   0.556830 0.208940 0.002760 -0.033695
N8    N     N_R   0.443170 0.791060 0.997240 -0.054380
N9    N     N_R   0.556790 0.002750 0.208910 -0.059171
N10   N     N_R   0.443210 0.997250 0.791090 -0.073769
N11   N     N_R   0.443180 0.152110 0.945950 -0.043925
N12   N     N_R   0.556820 0.847890 0.054050 -0.051084
N13   N     N_R   0.706170 0.208950 0.152090 -0.117327
N14   N     N_R   0.293830 0.791050 0.847910 -0.117108
N15   N     N_R   0.293800 0.945910 0.002760 -0.070674
N16   N     N_R   0.706200 0.054090 0.997240 -0.056744
Ni1   Ni    Ni4+2 0.369690 0.999990 0.869700 0.244437
Ni2   Ni    Ni4+2 0.630310 0.000010 0.130300 0.265156
Ni3   Ni    Ni4+2 0.369670 0.869670 0.000000 0.295667
Ni4   Ni    Ni4+2 0.630330 0.130330 0.000000 0.332671
Cl1   Cl    Cl    0.392590 0.251856 0.758683 -0.643116
Cl2   Cl    Cl    0.573524 0.780142 0.307016 -0.593422
C61   C     C_1   0.213340 0.357183 0.990301 0.258754
N17   N     N_1   0.219746 0.417360 0.066203 0.018828
C62   C     C_1   0.780026 0.634552 0.132888 0.210454
N18   N     N_1   0.779498 0.566241 0.069022 0.022821
C63   C     C_1   0.357160 0.479917 0.845112 0.230876
N19   N     N_1   0.306007 0.468940 0.760986 0.022365
C64   C     C_1   0.634534 0.522693 0.245374 0.178372
N20   N     N_1   0.691199 0.532029 0.326427 0.012393
Cl3   Cl    Cl    0.779327 0.406641 0.423911 -0.652351
Cl4   Cl    Cl    0.276665 0.560167 0.564853 -0.593157
C65   C     C_1   0.966607 0.623136 0.604932 0.390965
N21   N     N_1   0.942548 0.680581 0.649850 0.009967
C66   C     C_1   0.086337 0.354718 0.363136 0.398115
N22   N     N_1   0.109462 0.300677 0.312354 0.005836
Cl5   Cl    Cl    0.939152 0.715643 0.866586 -0.567013
Cl6   Cl    Cl    0.995293 0.183328 0.034880 -0.617876
Cl7   Cl    Cl    0.856872 0.151615 0.374013 -0.622860
Cl8   Cl    Cl    0.167058 0.808229 0.585457 -0.639243
Cl9   Cl    Cl    0.285231 0.877866 0.204570 -0.612416
Cl10  Cl    Cl    0.718061 0.215683 0.861103 -0.535090
Cl11  Cl    Cl    0.856272 0.376366 0.156525 -0.537636
Cl12  Cl    Cl    0.160134 0.590489 0.807731 -0.607248
Cl13  Cl    Cl    0.977709 0.985486 0.643747 -0.596920
Cl14  Cl    Cl    0.000055 0.028530 0.439993 -0.537802

loop_
_geom_bond_atom_site_label_1
_geom_bond_atom_site_label_2
_ccdc_geom_bond_type
C38   C40   A    
C38   H10   S    
C37   H9    S    
N2    Ni2   S    
C57   H19   S    
C53   H17   S    
C55   N13   A    
C49   H13   S    
N12   Ni2   S    
C12   Cl2   S    
C7    C26   S    
C23   N3    A    
N4    Ni1   S    
C56   Cl12  S    
C35   C37   A    
C51   H15   S    
C65   N21   T    
N7    N11   A    
C1    C59   A    
C23   Cl7   S    
C4    C24   A    
N15   Ni3   S    
C57   C59   A    
C58   C60   A    
C66   N22   T    
N3    N13   A    
C49   N7    A    
C58   N16   A    
C47   C60   S    
C52   N10   A    
C9    C19   A    
N8    N12   A    
C10   C20   A    
N3    Ni2   S    
C53   N11   A    
C63   N19   T    
C31   C33   A    
C13   C28   S    
C14   C27   S    
N6    Ni4   S    
N10   Ni1   S    
C58   H20   S    
C4    C56   A    
C46   N6    A    
C8    C25   S    
C41   C43   A    
C56   N14   A    
C2    C60   A    
C42   C44   A    
C55   Cl11  S    
C24   Cl8   S    
N2    N16   A    
C6    C40   S    
C7    C49   A    
N6    N10   A    
C8    C54   A    
N5    N9    A    
C42   Cl6   S    
C3    C34   S    
C45   Cl9   S    
C3    C23   A    
C5    C45   A    
C29   C34   A    
C19   Cl13  S    
C30   Cl4   S    
C32   C34   A    
C45   N5    A    
C54   N12   A    
N5    Ni3   S    
C35   H7    S    
C22   C64   S    
C11   Cl1   S    
N4    N14   A    
N11   Ni1   S    
C9    C11   A    
N13   Ni4   S    
C21   C63   S    
C10   C12   A    
C16   C62   S    
C16   C18   A    
C17   H5    S    
C21   C28   A    
C12   C14   A    
C22   C27   A    
C13   C15   A    
C22   C26   A    
C14   C16   A    
C2    N2    A    
C25   C27   A    
C7    C53   A    
C8    C50   A    
C48   C59   S    
N7    Ni4   S    
C15   C17   A    
C5    C39   S    
C21   C25   A    
C4    C33   S    
C43   H11   S    
C6    C46   A    
C30   C33   A    
C9    H3    S    
C26   C28   A    
C29   Cl3   S    
C36   C39   A    
C10   H4    S    
C43   C47   A    
C52   H16   S    
C1    H1    S    
C36   H8    S    
C50   N8    A    
C18   H6    S    
C62   N18   T    
C3    C55   A    
N9    Ni2   S    
C6    C52   A    
C50   H14   S    
C35   C40   A    
C24   N4    A    
C29   C31   A    
C64   N20   T    
C51   N9    A    
C30   C32   A    
C11   C13   A    
N1    Ni1   S    
N14   Ni3   S    
N1    N15   A    
N16   Ni4   S    
C36   C38   A    
C17   C19   A    
C41   C48   A    
C20   Cl14  S    
C44   H12   S    
C18   C20   A    
C42   C47   A    
C32   C66   S    
N8    Ni3   S    
C44   C48   A    
C37   C39   A    
C57   N15   A    
C61   N17   T    
C41   Cl5   S    
C46   Cl10  S    
C15   C61   S    
C1    N1    A    
C31   C65   S    
C2    H2    S    
C5    C51   A    
C54   H18   S    
