data_mof_unit_45826.cif
_audit_creation_date              2012-12-11T14:07:46-0500
_audit_creation_method            fapswitch 2.2
_symmetry_space_group_name_H-M    P1
_symmetry_Int_Tables_number       1
_space_group_crystal_system       triclinic
_cell_length_a                    19.855248
_cell_length_b                    17.049306
_cell_length_c                    15.457209
_cell_angle_alpha                 90.088511
_cell_angle_beta                  52.838387
_cell_angle_gamma                 89.848332
_cell_volume                      4169.9514241

loop_
_atom_site_label
_atom_site_type_symbol
_atom_type_description
_atom_site_fract_x
_atom_site_fract_y
_atom_site_fract_z
_atom_type_partial_charge
C1    C     C_R   0.337925 0.171672 0.056207 -0.239479
C2    C     C_R   0.660990 0.820570 0.059758 0.227744
C3    C     C_3   0.952757 0.585952 0.570858 -1.112777
C4    C     C_R   0.206566 0.649952 0.985767 0.168601
C5    C     C_R   0.159905 0.320245 0.061134 0.211748
C6    C     C_R   0.692551 0.862818 0.677528 0.006018
C7    C     C_R   0.611227 0.184271 0.697144 0.006559
C8    C     C_R   0.192586 0.362805 0.677531 0.003872
C9    C     C_R   0.111170 0.684299 0.697244 0.007130
C10   C     C_3   0.249576 0.219127 0.456981 -0.416743
C11   C     C_3   0.205451 0.871080 0.526573 -0.392142
C12   C     C_3   0.749220 0.719143 0.457136 -0.417416
C13   C     C_R   0.357934 0.809924 0.021770 -0.214786
C14   C     C_3   0.704986 0.371191 0.526525 -0.391467
C15   C     C_3   0.195629 0.264607 0.563046 -0.380644
C16   C     C_3   0.149728 0.822376 0.630446 -0.403323
C17   C     C_3   0.695362 0.764669 0.563174 -0.379432
C18   C     C_3   0.649475 0.322408 0.630386 -0.402926
C19   C     C_3   0.366553 0.216754 0.477691 -0.386496
C20   C     C_3   0.307419 0.756593 0.434792 -0.366638
C21   C     C_3   0.866224 0.716638 0.477774 -0.384241
C22   C     C_3   0.807298 0.256944 0.434707 -0.363230
C23   C     C_3   0.861092 0.824639 0.371285 -0.331584
C24   C     C_R   0.837599 0.671165 0.056940 -0.277561
C25   C     C_3   0.685251 0.271456 0.423969 -0.373284
C26   C     C_3   0.361342 0.324732 0.371250 -0.345357
C27   C     C_3   0.185365 0.771570 0.424110 -0.368556
C28   C     C_3   0.344198 0.236182 0.399415 0.347849
C29   C     C_3   0.252900 0.816010 0.425512 0.351227
C30   C     C_3   0.843857 0.736109 0.399535 0.337587
C31   C     C_3   0.752634 0.316166 0.425412 0.350772
C32   C     C_3   0.751318 0.819186 0.575929 0.383568
C33   C     C_3   0.658422 0.233976 0.600767 0.388182
C34   C     C_3   0.251472 0.319189 0.575906 0.391435
C35   C     C_R   0.859001 0.309309 0.019879 -0.225081
C36   C     C_3   0.158478 0.733948 0.600872 0.392266
C37   C     C_3   0.815044 0.769124 0.579228 -0.406479
C38   C     C_3   0.752004 0.208685 0.537419 -0.390400
C39   C     C_3   0.315206 0.269163 0.579247 -0.406225
C40   C     C_3   0.252003 0.708449 0.537578 -0.395716
C41   C     C_R   0.353107 0.825171 0.222250 -0.045011
C42   C     C_R   0.398901 0.199464 0.208624 -0.080661
C43   C     C_R   0.852789 0.325478 0.222089 -0.047388
C44   C     C_R   0.898707 0.699421 0.208713 -0.077467
C45   C     C_3   0.803473 0.874005 0.475384 -0.420565
C46   C     C_R   0.639505 0.897509 0.097210 -0.164333
C47   C     C_3   0.629350 0.222640 0.528061 -0.418475
C48   C     C_3   0.303612 0.374043 0.475391 -0.428198
C49   C     C_3   0.129386 0.722755 0.528170 -0.421112
C50   C     C_2   0.266133 0.700472 0.980281 -0.498376
C51   C     C_2   0.210996 0.268495 0.072933 -0.421736
C52   C     C_2   0.766657 0.199898 0.979164 -0.498253
C53   C     C_2   0.712453 0.768793 0.070912 -0.469321
C54   C     C_2   0.748673 0.276534 0.003559 0.580016
C55   C     C_2   0.710366 0.690063 0.064604 0.582324
C56   C     C_2   0.246696 0.776577 0.007735 0.588308
C57   C     C_R   0.666970 0.085472 0.054502 -0.074294
C58   C     C_2   0.210394 0.189898 0.064065 0.533316
C59   C     C_R   0.346079 0.894453 0.924139 0.606484
C60   C     C_R   0.330939 0.091785 0.949429 0.554679
C61   C     C_R   0.847594 0.393955 0.921896 0.652946
C62   C     C_R   0.830476 0.591307 0.950291 0.613401
C63   C     C_R   0.407382 0.107854 0.303440 -0.143353
C64   C     C_R   0.360288 0.920394 0.315895 -0.132159
C65   C     C_R   0.907158 0.607796 0.303573 -0.139962
C66   C     C_R   0.860141 0.420487 0.315844 -0.130680
C67   C     C_R   0.286284 0.148178 0.030305 -0.179506
C68   C     C_R   0.138839 0.397308 0.098026 -0.168483
C69   C     C_R   0.313414 0.826005 0.984303 -0.173892
C70   C     C_R   0.785659 0.647460 0.031607 -0.114824
C71   C     C_R   0.815680 0.325027 0.980533 -0.180267
C72   C     C_R   0.311642 0.858914 0.324455 -0.016982
C73   C     C_R   0.390510 0.185848 0.302616 0.063189
C74   C     C_R   0.811326 0.359166 0.324351 -0.017768
C75   C     C_R   0.890114 0.685747 0.302813 0.066131
C76   C     C_R   0.661258 0.175581 0.950446 -0.011016
C77   C     C_R   0.631452 0.802743 0.001530 -0.071652
C78   C     C_R   0.160772 0.676331 0.951480 -0.016687
C79   C     C_R   0.166983 0.585526 0.054504 -0.066678
C80   C     C_R   0.130906 0.302604 0.002236 -0.073137
C81   C     C_R   0.650597 0.829025 0.779887 -0.144561
C82   C     C_R   0.601928 0.198668 0.791537 -0.162804
C83   C     C_R   0.150614 0.329029 0.779903 -0.144542
C84   C     C_R   0.101941 0.698666 0.791587 -0.162696
C85   C     C_R   0.594160 0.106264 0.695811 -0.181678
C86   C     C_R   0.642097 0.922828 0.685101 -0.151856
C87   C     C_R   0.094097 0.606298 0.695868 -0.184135
C88   C     C_R   0.142115 0.422809 0.685091 -0.153440
C89   C     C_3   0.355622 0.866210 0.770614 0.208544
C90   C     C_R   0.706727 0.149581 0.985309 0.169189
C91   C     C_3   0.451703 0.859479 0.684352 -0.387228
C92   C     C_3   0.473756 0.806481 0.590746 -0.968013
C93   C     C_3   0.391420 0.086319 0.768287 0.270135
C94   C     C_3   0.373052 0.077278 0.686065 -0.216133
C95   C     C_3   0.453689 0.084636 0.569870 -1.114873
C96   C     C_3   0.858281 0.366550 0.767306 0.200989
C97   C     C_3   0.954415 0.360776 0.681068 -0.395191
C98   C     C_3   0.977114 0.308744 0.586349 -0.960138
C99   C     C_3   0.890596 0.587034 0.769215 0.241717
C100  C     C_3   0.872196 0.578032 0.687028 -0.203980
H1    H     H_    0.325512 0.217247 0.112556 0.135588
H2    H     H_    0.582295 0.341304 0.676862 0.160005
H3    H     H_    0.831400 0.307667 0.800464 0.067237
H4    H     H_    0.980962 0.420110 0.649861 0.209420
H5    H     H_    0.983531 0.335783 0.717826 0.193781
H6    H     H_    0.953750 0.248167 0.615052 0.266689
H7    H     H_    0.046762 0.306642 0.524147 0.264165
H8    H     H_    0.948809 0.332633 0.548016 0.263422
H9    H     H_    0.939259 0.542925 0.749995 0.101618
H10   H     H_    0.915711 0.647252 0.761083 0.054658
H11   H     H_    0.843916 0.519819 0.696375 0.219723
H12   H     H_    0.825776 0.623356 0.702783 0.186105
H13   H     H_    0.147675 0.299357 0.564025 0.162724
H14   H     H_    0.975479 0.647414 0.555182 0.278096
H15   H     H_    0.939779 0.569561 0.512762 0.273401
H16   H     H_    0.003168 0.546414 0.556481 0.267918
H17   H     H_    0.082605 0.841430 0.676802 0.160184
H18   H     H_    0.160788 0.222518 0.631867 0.163567
H19   H     H_    0.170593 0.834000 0.681703 0.156006
H20   H     H_    0.660505 0.722603 0.632022 0.163591
H21   H     H_    0.670391 0.334130 0.681567 0.156735
H22   H     H_    0.350202 0.154949 0.505088 0.159311
H23   H     H_    0.355864 0.787941 0.436324 0.168894
H24   H     H_    0.849686 0.654874 0.505289 0.158955
H25   H     H_    0.359070 0.754976 0.055222 0.135988
H26   H     H_    0.855603 0.288466 0.436357 0.167679
H27   H     H_    0.782412 0.730767 0.651555 0.149764
H28   H     H_    0.773713 0.216751 0.588586 0.159953
H29   H     H_    0.282557 0.230748 0.651531 0.149875
H30   H     H_    0.273724 0.716463 0.588739 0.160058
H31   H     H_    0.928534 0.837903 0.332693 0.199380
H32   H     H_    0.715166 0.231100 0.353214 0.157143
H33   H     H_    0.428764 0.338088 0.332728 0.192592
H34   H     H_    0.215129 0.731262 0.353321 0.157308
H35   H     H_    0.848174 0.841672 0.313237 0.149535
H36   H     H_    0.825215 0.716882 0.113109 0.141685
H37   H     H_    0.645542 0.313735 0.417786 0.171580
H38   H     H_    0.348458 0.341745 0.313161 0.148567
H39   H     H_    0.145736 0.814023 0.418013 0.176734
H40   H     H_    0.761434 0.909802 0.466080 0.155663
H41   H     H_    0.562096 0.240868 0.573237 0.155597
H42   H     H_    0.261557 0.409791 0.466066 0.155182
H43   H     H_    0.062162 0.741081 0.573344 0.156561
H44   H     H_    0.842214 0.915063 0.484664 0.169958
H45   H     H_    0.634427 0.160264 0.503928 0.161375
H46   H     H_    0.342274 0.415148 0.484753 0.162224
H47   H     H_    0.859984 0.254439 0.053631 0.138384
H48   H     H_    0.134365 0.660396 0.504023 0.161220
H49   H     H_    0.435384 0.224664 0.436011 0.181397
H50   H     H_    0.341727 0.716247 0.363455 0.186218
H51   H     H_    0.935082 0.724399 0.436034 0.184867
H52   H     H_    0.841782 0.216662 0.363303 0.190418
H53   H     H_    0.339031 0.769517 0.204115 0.087532
H54   H     H_    0.397312 0.255580 0.177590 0.097980
H55   H     H_    0.838368 0.270121 0.203712 0.088637
H56   H     H_    0.897143 0.755547 0.177678 0.098275
H57   H     H_    0.858231 0.807883 0.582981 0.161795
H58   H     H_    0.231516 0.236174 0.403906 0.162999
H59   H     H_    0.759753 0.145360 0.515151 0.167795
H60   H     H_    0.358292 0.307957 0.583156 0.160101
H61   H     H_    0.259609 0.645112 0.515409 0.163923
H62   H     H_    0.330062 0.678273 0.939763 0.144042
H63   H     H_    0.262977 0.298025 0.064665 0.129880
H64   H     H_    0.829684 0.176498 0.941926 0.146028
H65   H     H_    0.765398 0.797991 0.060602 0.134667
H66   H     H_    0.413782 0.078003 0.359688 0.086747
H67   H     H_    0.351597 0.956481 0.379238 0.091106
H68   H     H_    0.913540 0.577965 0.359849 0.086055
H69   H     H_    0.166044 0.914223 0.521051 0.163976
H70   H     H_    0.851448 0.456504 0.379241 0.090368
H71   H     H_    0.674185 0.225528 0.899661 0.106729
H72   H     H_    0.633375 0.747202 0.966828 0.153232
H73   H     H_    0.172839 0.727191 0.902410 0.103504
H74   H     H_    0.132978 0.247277 0.967135 0.155980
H75   H     H_    0.668171 0.777178 0.801718 0.097060
H76   H     H_    0.603962 0.254489 0.822958 0.114536
H77   H     H_    0.168229 0.277228 0.801767 0.098216
H78   H     H_    0.104050 0.754449 0.823015 0.112107
H79   H     H_    0.589993 0.076502 0.637537 0.086298
H80   H     H_    0.731159 0.736224 0.404072 0.163572
H81   H     H_    0.651470 0.957569 0.620531 0.097286
H82   H     H_    0.089948 0.576545 0.637573 0.086626
H83   H     H_    0.151512 0.457562 0.620513 0.097075
H84   H     H_    0.646798 0.925170 0.154073 0.106710
H85   H     H_    0.684722 0.056350 0.100065 0.097457
H86   H     H_    0.145924 0.424999 0.155064 0.106356
H87   H     H_    0.184803 0.556269 0.099916 0.095963
H88   H     H_    0.236360 0.155306 0.474269 0.163534
H89   H     H_    0.250274 0.904474 0.532841 0.148492
H90   H     H_    0.735937 0.655332 0.474463 0.163956
H91   H     H_    0.665390 0.414120 0.521056 0.163308
H92   H     H_    0.749667 0.404844 0.532802 0.148192
H93   H     H_    0.586085 0.392935 0.229959 0.354792
H94   H     H_    0.555278 0.536161 0.213649 0.373757
H95   H     H_    0.080207 0.893446 0.236288 0.377500
H96   H     H_    0.164778 0.024576 0.122829 0.377026
H97   H     H_    0.327229 0.885386 0.730480 0.132957
H98   H     H_    0.328072 0.807670 0.804632 0.066293
H99   H     H_    0.478832 0.918464 0.651914 0.208473
H100  H     H_    0.480698 0.834818 0.721437 0.194413
H101  H     H_    0.449623 0.746269 0.620735 0.265912
H102  H     H_    0.647411 0.799470 0.564180 0.162115
H103  H     H_    0.543383 0.803529 0.528634 0.265603
H104  H     H_    0.445764 0.830103 0.551892 0.264076
H105  H     H_    0.439530 0.041777 0.749747 0.098460
H106  H     H_    0.417189 0.146318 0.759508 0.055960
H107  H     H_    0.344381 0.019210 0.695802 0.219486
H108  H     H_    0.326978 0.122863 0.701414 0.188393
H109  H     H_    0.477024 0.145891 0.553896 0.277716
H110  H     H_    0.440527 0.068569 0.511855 0.274402
H111  H     H_    0.503682 0.044589 0.555720 0.268432
H112  H     H_    0.829706 0.385718 0.727398 0.136264
N1    N     N_R   0.408680 0.130160 0.995800 -0.059980
N2    N     N_R   0.403730 0.078230 0.935950 -0.118978
N3    N     N_R   0.903730 0.421770 0.935950 -0.113261
N4    N     N_R   0.903730 0.578230 0.935950 -0.128527
N5    N     N_R   0.426630 0.075970 0.212960 -0.038756
N6    N     N_R   0.426630 0.924030 0.212960 -0.036701
N7    N     N_R   0.926630 0.575970 0.212960 -0.038313
N8    N     N_R   0.926630 0.424030 0.212960 -0.036949
N9    N     N_R   0.591320 0.134600 0.004200 -0.039234
N10   N     N_R   0.591320 0.865400 0.004200 -0.059091
N11   N     N_R   0.091320 0.634600 0.004200 -0.039088
N12   N     N_R   0.408680 0.869840 0.995800 -0.066162
N13   N     N_R   0.091320 0.365400 0.004200 -0.059172
N14   N     N_R   0.578320 0.867660 0.846880 -0.040793
N15   N     N_R   0.578320 0.132340 0.846880 -0.038968
N16   N     N_R   0.078320 0.367660 0.846880 -0.041171
N17   N     N_R   0.078320 0.632340 0.846880 -0.038600
N18   N     N_R   0.573370 0.074390 0.787040 -0.037669
N19   N     N_R   0.573370 0.925610 0.787040 -0.050430
N20   N     N_R   0.073370 0.574390 0.787040 -0.038129
N21   N     N_R   0.073370 0.425610 0.787040 -0.051688
N22   N     N_R   0.596270 0.927870 0.064040 -0.054493
N23   N     N_R   0.908680 0.630160 0.995800 -0.061748
N24   N     N_R   0.596270 0.072130 0.064040 -0.051281
N25   N     N_R   0.096270 0.427870 0.064040 -0.053883
N26   N     N_R   0.096270 0.572130 0.064040 -0.051207
N27   N     N_R   0.908680 0.369840 0.995800 -0.064802
N28   N     N_R   0.421680 0.867580 0.153120 -0.030844
N29   N     N_R   0.421680 0.132420 0.153120 -0.037311
N30   N     N_R   0.921680 0.367580 0.153120 -0.030503
N31   N     N_R   0.921680 0.632420 0.153120 -0.034774
N32   N     N_R   0.403730 0.921770 0.935950 -0.111284
Ni1   Ni    Ni4+2 0.500000 0.131190 0.000000 0.242783
Ni2   Ni    Ni4+2 0.500000 0.868810 0.000000 0.233808
Ni3   Ni    Ni4+2 1.000000 0.631190 0.000000 0.244072
Ni4   Ni    Ni4+2 0.000000 0.368810 0.000000 0.235910
Ni5   Ni    Ni4+2 0.488650 0.000000 0.862740 0.196343
Ni6   Ni    Ni4+2 0.988650 0.500000 0.862740 0.199637
Ni7   Ni    Ni4+2 0.511350 0.000000 0.137260 0.227779
Ni8   Ni    Ni4+2 0.011350 0.500000 0.137260 0.229675
O1    O     O_2   0.622181 0.351991 0.019728 -0.283373
O2    O     O_2   0.040728 0.181728 0.174265 -0.292032
O3    O     O_2   0.129228 0.105113 0.005712 -0.271414
O4    O     O_3   0.113582 0.056102 0.175299 -0.485332
O5    O     O_3   0.334273 0.923169 0.850556 -0.631656
O6    O     O_3   0.316294 0.074924 0.874441 -0.602190
O7    O     O_3   0.836368 0.423092 0.847949 -0.628669
O8    O     O_3   0.815705 0.574776 0.875335 -0.597626
O9    O     O_2   0.581577 0.257237 0.163280 -0.350820
O10   O     O_3   0.644964 0.390354 0.162671 -0.495085
O11   O     O_2   0.540509 0.684996 0.175443 -0.338901
O12   O     O_2   0.627671 0.603610 0.010750 -0.263982
O13   O     O_3   0.611089 0.559669 0.182927 -0.493136
O14   O     O_2   0.117835 0.855195 0.034471 -0.283971
O15   O     O_2   0.080021 0.751336 0.166746 -0.337994
O16   O     O_3   0.140742 0.880648 0.180660 -0.541554
S1    S     S_3+6 0.645381 0.318052 0.088225 -0.038971
S2    S     S_3+6 0.619046 0.635335 0.107801 -0.022082
S3    S     S_3+6 0.142368 0.814991 0.098215 -0.048201
S4    S     S_3+6 0.120445 0.134007 0.104033 -0.008500

loop_
_geom_bond_atom_site_label_1
_geom_bond_atom_site_label_2
_ccdc_geom_bond_type
C25   C31   S    
C6    C32   S    
C47   H45   S    
C19   H22   S    
C93   C94   S    
C23   C45   S    
C1    H1    S    
C39   H60   S    
C27   C29   S    
C8    C83   A    
N13   N25   A    
N6    Ni7   S    
C14   C18   S    
C92   H101  S    
C52   C90   S    
N6    N28   A    
C14   C31   S    
C93   H105  S    
O2    S4    D    
C87   H82   S    
C97   C98   S    
C24   C70   A    
N1    N2    A    
C2    C46   A    
C89   H98   S    
O4    S4    S    
C65   H68   S    
C84   N17   A    
C79   H87   S    
C20   C29   S    
C96   H112  S    
C86   N19   A    
C46   N22   A    
C21   H51   S    
C42   H54   S    
C38   H59   S    
N17   N20   A    
C68   N25   A    
C96   O7    S    
C20   C40   S    
C22   H26   S    
C14   H91   S    
C93   H106  S    
C37   H57   S    
C87   N20   A    
C99   H9    S    
C58   S4    S    
C54   S1    S    
C98   H8    S    
C62   C70   A    
C88   H83   S    
C18   H2    S    
N3    Ni6   S    
C60   O6    S    
C13   C69   A    
C60   N2    A    
C18   H21   S    
C20   H23   S    
C66   N8    A    
H95   O16   S    
C17   H20   S    
C1    C67   A    
N3    N27   A    
O15   S3    D    
C3    C100  S    
O11   S2    D    
C54   C71   S    
C60   C67   A    
O1    S1    D    
C48   H46   S    
C12   C17   S    
C78   H73   S    
C10   H88   S    
C15   H13   S    
N25   Ni8   S    
C51   H63   S    
C98   H6    S    
C80   N13   A    
C89   C91   S    
N18   Ni5   S    
C47   H41   S    
C10   H58   S    
C15   C34   S    
O9    S1    D    
C92   H104  S    
C26   C48   S    
C78   N11   A    
O3    S4    D    
C29   C72   S    
C97   H5    S    
C24   H36   S    
N13   Ni4   S    
C53   C55   D    
C35   C71   A    
C3    H14   S    
C6    C81   A    
N28   Ni2   S    
C57   C90   A    
C7    C33   S    
C94   C95   S    
H94   O13   S    
C40   H30   S    
C5    C68   A    
C43   H55   S    
C28   C73   S    
N23   Ni3   S    
C52   C54   D    
N21   Ni6   S    
N14   Ni2   S    
N20   Ni6   S    
C41   H53   S    
C83   N16   A    
C63   H66   S    
C43   N30   A    
C22   H52   S    
C22   C31   S    
C83   H77   S    
C48   H42   S    
C34   C39   S    
C44   H56   S    
C23   C30   S    
C36   C40   S    
C35   N27   A    
C4    C79   A    
C10   C28   S    
N32   Ni5   S    
C16   H19   S    
C5    C51   S    
C91   C92   S    
C51   C58   D    
N12   N32   A    
C31   C74   S    
C8    C34   S    
C63   C73   A    
N11   Ni3   S    
C99   H10   S    
N8    N30   A    
O14   S3    D    
C2    C53   S    
C45   H40   S    
C50   C56   D    
C98   H7    S    
C49   H48   S    
C4    C50   S    
C59   N32   A    
C8    C88   A    
N5    N29   A    
C95   H109  S    
C94   H107  S    
C44   C75   A    
C25   H37   S    
O13   S2    S    
C4    C78   A    
C88   N21   A    
N15   Ni1   S    
N30   Ni4   S    
C11   C16   S    
C58   C67   S    
C99   C100  S    
C94   H108  S    
O16   S3    S    
C85   H79   S    
C96   C97   S    
N15   N18   A    
N2    Ni5   S    
C23   H31   S    
C46   H84   S    
N7    N31   A    
C55   S2    S    
C35   H47   S    
C32   C37   S    
C32   C45   S    
C5    C80   A    
N1    Ni1   S    
C19   C28   S    
C95   H110  S    
N16   N21   A    
C92   H103  S    
C19   C39   S    
C52   H64   S    
C41   C72   A    
C91   H100  S    
N5    Ni7   S    
C76   H71   S    
C53   H65   S    
C12   H80   S    
C59   C69   A    
C100  H12   S    
N31   Ni3   S    
N7    Ni8   S    
N8    Ni8   S    
N9    N24   A    
C1    N1    A    
C84   H78   S    
N29   Ni1   S    
C50   H62   S    
C34   C48   S    
C61   O7    S    
C13   N12   A    
N19   Ni5   S    
C81   H75   S    
C57   N24   A    
C89   H97   S    
C65   N7    A    
C21   C30   S    
N12   Ni2   S    
C91   H99   S    
C17   C32   S    
C89   O5    S    
C45   H44   S    
C25   C47   S    
N10   N22   A    
C42   C73   A    
O12   S2    D    
N26   Ni8   S    
C10   C15   S    
C27   H34   S    
C57   H85   S    
C66   H70   S    
C59   O5    S    
C85   N18   A    
C33   C38   S    
C82   H76   S    
C39   H29   S    
C26   H38   S    
N11   N26   A    
C65   C75   A    
N22   Ni7   S    
C38   H28   S    
C11   H69   S    
C55   C70   S    
N16   Ni4   S    
C64   N6    A    
C76   N9    A    
C64   H67   S    
C12   H90   S    
C82   N15   A    
H96   O4    S    
C42   N29   A    
C26   C28   S    
H93   O10   S    
C6    C86   A    
C15   H18   S    
C23   H35   S    
C3    H16   S    
C95   H111  S    
C62   O8    S    
C63   N5    A    
C21   H24   S    
C12   C30   S    
C80   H74   S    
C40   H61   S    
C24   N23   A    
C3    H15   S    
C16   H17   S    
C9    C87   A    
O10   S1    S    
C9    C36   S    
C30   C75   S    
N10   Ni2   S    
C61   C71   A    
C7    C85   A    
N9    Ni1   S    
C99   O8    S    
C43   C74   A    
C77   H72   S    
C33   C47   S    
C49   H43   S    
C62   N4    A    
C81   N14   A    
C19   H49   S    
C20   H50   S    
C14   H92   S    
C64   C72   A    
C22   C38   S    
C17   H102  S    
C18   C33   S    
C27   H39   S    
C97   H4    S    
C56   S3    S    
C9    C84   A    
C68   H86   S    
C93   O6    S    
N17   Ni3   S    
C27   C49   S    
C77   N10   A    
C7    C82   A    
C21   C37   S    
C11   C29   S    
C100  H11   S    
N4    Ni6   S    
C56   C69   S    
C96   H3    S    
C26   H33   S    
N4    N23   A    
C2    C77   A    
N24   Ni7   S    
N27   Ni4   S    
C61   N3    A    
C86   H81   S    
C79   N26   A    
C11   H89   S    
C25   H32   S    
C13   H25   S    
C16   C36   S    
C36   C49   S    
N14   N19   A    
C44   N31   A    
C76   C90   A    
C37   H27   S    
C41   N28   A    
C66   C74   A    
