data_mof_unit_27982.cif
_audit_creation_date              2013-03-05T15:45:30-0500
_audit_creation_method            fapswitch 2.2
_symmetry_space_group_name_H-M    P1
_symmetry_Int_Tables_number       1
_space_group_crystal_system       triclinic
_cell_length_a                    9.953081
_cell_length_b                    11.127337
_cell_length_c                    13.463906
_cell_angle_alpha                 95.946098
_cell_angle_beta                  82.51995
_cell_angle_gamma                 110.253451
_cell_volume                      1384.29510127

loop_
_atom_site_label
_atom_site_type_symbol
_atom_site_description
_atom_site_fract_x
_atom_site_fract_y
_atom_site_fract_z
_atom_type_partial_charge
O1    O     O_R   0.426290 0.668220 0.490680 -0.592547
O2    O     O_R   0.659360 0.703290 0.520190 -0.564264
C1    C     C_R   0.555315 0.743676 0.507258 0.862625
O3    O     O_R   0.326580 0.473880 0.629020 -0.538714
O4    O     O_R   0.559660 0.508940 0.658530 -0.555199
C2    C     C_R   0.421851 0.475932 0.688620 0.867462
Cu1   Cu    Cu3+1 0.362000 0.479240 0.482530 1.077603
Cu2   Cu    Cu3+1 0.638000 0.520760 0.517470 1.111118
O5    O     O_R   0.340640 0.296710 0.479810 -0.556397
O6    O     O_R   0.573710 0.331780 0.509320 -0.535229
O7    O     O_R   0.440340 0.491060 0.341470 -0.553516
O8    O     O_R   0.673420 0.526120 0.370980 -0.546266
C3    C     C_R   0.446262 0.255410 0.490770 0.880704
C4    C     C_R   0.574132 0.507500 0.309963 0.841921
C5    C     C_R   0.791403 0.574881 0.058311 0.374531
H1    H     H_    0.833450 0.624947 0.212635 0.232221
H2    H     H_    0.822164 0.483402 0.866027 0.238077
C6    C     C_R   0.611524 0.509616 0.201114 -0.201967
C7    C     C_R   0.227058 0.420600 0.829878 -0.189074
C8    C     C_R   0.181248 0.411228 0.932411 0.388302
C9    C     C_R   0.284554 0.437176 0.000229 -0.147322
C10   C     C_R   0.428082 0.447544 0.966606 0.033831
C11   C     C_R   0.468057 0.438224 0.862384 0.073484
C12   C     C_R   0.535974 0.473319 0.033132 -0.039825
C13   C     C_R   0.682455 0.515977 0.993611 -0.028154
C14   C     C_R   0.714598 0.481524 0.892779 -0.085708
C15   C     C_R   0.603471 0.424704 0.831466 -0.029397
C16   C     C_R   0.503600 0.450664 0.135638 0.278091
C17   C     C_R   0.752713 0.575298 0.162090 -0.211596
C18   C     C_R   0.372126 0.442402 0.794330 -0.139430
H3    H     H_    0.149526 0.413366 0.778120 0.232173
H4    H     H_    0.251928 0.451639 0.078507 0.227524
H5    H     H_    0.389211 0.867817 0.460280 0.176505
C19   C     C_2   0.586496 0.880177 0.510201 -0.276243
C20   C     C_2   0.493008 0.929600 0.482767 -0.215616
H6    H     H_    0.310708 0.052916 0.486096 0.160681
C21   C     C_2   0.421494 0.117373 0.485925 -0.272088
C22   C     C_2   0.529018 0.068370 0.483183 0.022097
H7    H     H_    0.689930 0.940708 0.534231 0.182756
N1    N     N_2   0.845330 0.551960 0.543750 -0.120593
C23   C     C_2   0.933870 0.509675 0.479340 0.343731
N2    N     N_2   0.154690 0.448120 0.456210 -0.256508
C24   C     C_2   0.085394 0.525793 0.498125 -0.006232
C25   C     C_2   0.160040 0.649661 0.550887 0.560226
H8    H     H_    0.156220 0.737524 0.525158 0.005053
O9    O     O_2   0.212721 0.654177 0.628670 -0.459291
N3    N     N_R   0.901279 0.471256 0.377802 0.093967
O10   O     O_R   0.991745 0.529817 0.304965 -0.347509
O11   O     O_R   0.803369 0.362008 0.356993 -0.381141
C26   C     C_2   0.071276 0.319749 0.428302 0.698392
H9    H     H_    0.028724 0.296125 0.355992 0.102436
O12   O     O_2   0.048818 0.234804 0.485160 -0.528633
N4    N     N_R   0.876256 0.582491 0.643193 0.191128
O13   O     O_R   0.835515 0.671136 0.695344 -0.284084
O14   O     O_R   0.927110 0.512191 0.688553 -0.391046
N5    N     N_R   0.938629 0.639951 0.020421 0.142696
O15   O     O_R   0.967982 0.696368 0.936379 -0.283427
O16   O     O_R   0.042181 0.659604 0.076576 -0.287378
N6    N     N_R   0.382230 0.340172 0.165448 0.122176
O17   O     O_R   0.376889 0.227250 0.125475 -0.294016
O18   O     O_R   0.269414 0.352146 0.220332 -0.358188
N7    N     N_R   0.030698 0.376814 0.967501 0.149437
O19   O     O_R   0.934154 0.324883 0.904930 -0.363948
O20   O     O_R   0.988919 0.378494 0.063206 -0.273335
C27   C     C_2   0.620086 0.326234 0.752501 0.521619
H10   H     H_    0.724426 0.315972 0.731246 0.160687
O21   O     O_2   0.515608 0.249226 0.715681 -0.534322
C28   C     C_2   0.684575 0.145822 0.476067 0.519379
H11   H     H_    0.752312 0.136145 0.407951 0.082145
O22   O     O_2   0.739560 0.208893 0.549031 -0.506575

loop_
_geom_bond_atom_site_label_1
_geom_bond_atom_site_label_2
_geom_bond_distance
_ccdc_geom_bond_type
O4    Cu2   1.956396 S    
C26   O12   1.220044 D    
C24   C25   1.477147 S    
N1    N4    1.394075 S    
C5    C17   1.400164 A    
C21   C22   1.354096 D    
C15   C27   1.482090 S    
C11   C15   1.412009 A    
C4    C6    1.464899 S    
C26   H9    1.083318 S    
C3    C21   1.464775 S    
C7    C8    1.399124 A    
O8    C4    1.314825 A    
Cu2   O8    1.961300 S    
C13   C14   1.398705 A    
C7    H3    1.083047 S    
C5    N5    1.441898 S    
C8    C9    1.399506 A    
O2    C1    1.300009 A    
C23   N3    1.433631 S    
N6    O17   1.300924 A    
N3    O11   1.298560 A    
C6    C17   1.400442 A    
O1    Cu1   1.970358 S    
N4    O13   1.299887 A    
N5    O15   1.301510 A    
Cu1   O7    1.956396 S    
C23   C24   1.507736 S    
C14   C15   1.396425 A    
N7    O19   1.300943 A    
C16   N6    1.442117 S    
N2    C26   1.421203 S    
O3    Cu1   1.961301 S    
H2    C14   1.077987 S    
O3    C2    1.312599 A    
N1    C23   1.324235 D    
C2    C18   1.486147 S    
N5    O16   1.301650 A    
C27   H10   1.082295 S    
O1    C1    1.301242 A    
N4    O14   1.301800 A    
C8    N7    1.439110 S    
O4    C2    1.310628 A    
C9    H4    1.074265 S    
C10   C12   1.421857 A    
N6    O18   1.300684 A    
C5    C13   1.414174 A    
N2    C24   1.323440 D    
C22   C28   1.484492 S    
C19   H7    1.086137 S    
C11   C18   1.421520 A    
C12   C16   1.404355 A    
Cu1   Cu2   2.719150 S    
C20   C22   1.458914 S    
C6    C16   1.414283 A    
C12   C13   1.416068 A    
Cu2   O6    1.970360 S    
C19   C20   1.338112 D    
Cu1   N2    2.042856 S    
O7    C4    1.298859 A    
Cu1   O5    1.964551 S    
C28   O22   1.219968 D    
O5    C3    1.314170 A    
C10   C11   1.411087 A    
H6    C21   1.087385 S    
N7    O20   1.301752 A    
Cu2   N1    2.042719 S    
C1    C19   1.438502 S    
H5    C20   1.085433 S    
H1    C17   1.082228 S    
C9    C10   1.409731 A    
C7    C18   1.405103 A    
O2    Cu2   1.964549 S    
C25   H8    1.084726 S    
N3    O10   1.301288 A    
C25   O9    1.219859 D    
C28   H11   1.084457 S    
C27   O21   1.220928 D    
O6    C3    1.298387 A    
