data_mof_unit_15818.cif
_audit_creation_date              2013-03-05T15:45:39-0500
_audit_creation_method            fapswitch 2.2
_symmetry_space_group_name_H-M    P1
_symmetry_Int_Tables_number       1
_space_group_crystal_system       triclinic
_cell_length_a                    15.032935
_cell_length_b                    11.075084
_cell_length_c                    9.887066
_cell_angle_alpha                 112.123504
_cell_angle_beta                  98.335507
_cell_angle_gamma                 91.658819
_cell_volume                      1502.52234513

loop_
_atom_site_label
_atom_site_type_symbol
_atom_site_description
_atom_site_fract_x
_atom_site_fract_y
_atom_site_fract_z
_atom_type_partial_charge
O1    O     O_R   0.508410 0.332340 0.577400 -0.626250
O2    O     O_R   0.491590 0.667660 0.422600 -0.610600
O3    O     O_R   0.481780 0.295500 0.332650 -0.489587
O4    O     O_R   0.518220 0.704500 0.667350 -0.506884
C1    C     C_R   0.493710 0.253269 0.439104 0.808639
C2    C     C_R   0.505313 0.746498 0.561056 0.794568
O5    O     O_R   0.383570 0.518390 0.622380 -0.582994
O6    O     O_R   0.616430 0.481610 0.377620 -0.548012
O7    O     O_R   0.356940 0.481550 0.377630 -0.542472
O8    O     O_R   0.643060 0.518450 0.622370 -0.548460
C3    C     C_R   0.328974 0.494055 0.499624 0.866534
C4    C     C_R   0.671199 0.508871 0.501293 0.881047
Cu1   Cu    Cu3+1 0.515770 0.521810 0.644910 1.122073
Cu2   Cu    Cu3+1 0.484230 0.478190 0.355090 1.128766
C5    C     C_R   0.820317 0.624517 0.511647 0.381827
C6    C     C_R   0.180044 0.375406 0.478745 0.318858
C7    C     C_R   0.768054 0.512145 0.501161 -0.164276
C8    C     C_R   0.232706 0.491478 0.502836 -0.168583
C9    C     C_R   0.808877 0.401056 0.501790 -0.177634
C10   C     C_R   0.195582 0.610828 0.539068 -0.176040
C11   C     C_R   0.901863 0.394856 0.505543 0.016696
C12   C     C_R   0.103958 0.619151 0.547533 0.014654
C13   C     C_R   0.955663 0.508159 0.521985 -0.009519
C14   C     C_R   0.049559 0.503953 0.523280 -0.002491
C15   C     C_R   0.915609 0.625342 0.534830 -0.051885
C16   C     C_R   0.088841 0.384324 0.499865 -0.039235
C17   C     C_R   0.943009 0.279880 0.497785 0.382839
C18   C     C_R   0.065446 0.739747 0.581513 0.385606
C19   C     C_R   0.035925 0.278039 0.500226 -0.141479
C20   C     C_R   0.972109 0.740911 0.573048 -0.127291
H1    H     H_    0.766117 0.319079 0.497505 0.200393
H2    H     H_    0.239490 0.696303 0.556531 0.197608
H3    H     H_    0.066660 0.193607 0.507112 0.254005
H4    H     H_    0.944392 0.834248 0.600366 0.255801
H5    H     H_    0.461549 0.861194 0.377321 0.209750
H6    H     H_    0.504115 0.140387 0.627628 0.213024
C21   C     C_2   0.490269 0.111801 0.402813 0.192343
C22   C     C_2   0.507181 0.887684 0.598873 0.176389
C23   C     C_2   0.494715 0.069689 0.514370 -0.162340
C24   C     C_2   0.484908 0.930964 0.489636 -0.225355
H7    H     H_    0.436671 0.422281 0.844453 0.177753
H8    H     H_    0.557854 0.585345 0.156662 0.191968
N1    N     N_2   0.460520 0.445420 0.137370 -0.077579
N2    N     N_2   0.539480 0.554580 0.862630 -0.082951
C25   C     C_2   0.505677 0.512128 0.081435 0.066972
C26   C     C_2   0.491666 0.491253 0.919132 0.052712
S1    S     S_3+6 0.769014 0.760032 0.487124 0.040695
O9    O     O_2   0.770952 0.867929 0.636103 -0.219606
O10   O     O_2   0.821503 0.808032 0.396109 -0.215425
O11   O     O_3   0.662497 0.721470 0.397691 -0.553435
H9    H     H_    0.646780 0.797474 0.372264 0.384539
S2    S     S_3+6 0.227869 0.221757 0.411355 0.028582
O12   O     O_2   0.283997 0.203170 0.539542 -0.276115
O13   O     O_2   0.158107 0.107023 0.333333 -0.221128
O14   O     O_3   0.294228 0.221803 0.288958 -0.476191
H10   H     H_    0.252589 0.228361 0.205126 0.395916
S3    S     S_3+6 0.881066 0.134421 0.480402 0.085612
O15   O     O_2   0.941150 0.024617 0.455502 -0.174494
O16   O     O_2   0.843170 0.158416 0.620023 -0.242294
O17   O     O_3   0.796006 0.091582 0.335541 -0.479841
H11   H     H_    0.752406 0.032700 0.353472 0.404769
S4    S     S_3+6 0.131606 0.891286 0.636117 0.076374
O18   O     O_2   0.075230 0.004909 0.685464 -0.197768
O19   O     O_2   0.205565 0.904415 0.762137 -0.241720
O20   O     O_3   0.177507 0.893247 0.491484 -0.477821
H12   H     H_    0.231186 0.957645 0.535797 0.407775
N3    N     N_R   0.534081 0.976019 0.750748 0.148217
O21   O     O_R   0.606772 0.960042 0.828906 -0.208330
O22   O     O_R   0.478424 0.056758 0.817338 -0.271501
N4    N     N_R   0.484751 0.022281 0.251211 0.142869
O23   O     O_R   0.428886 0.037335 0.146521 -0.186005
O24   O     O_R   0.543277 0.936138 0.215540 -0.337388
N5    N     N_R   0.618927 0.628334 0.948425 0.243610
O25   O     O_R   0.642724 0.736201 0.934422 -0.199673
O26   O     O_R   0.679746 0.574936 0.009936 -0.309094
N6    N     N_R   0.385414 0.363147 0.047427 0.234641
O27   O     O_R   0.375765 0.243850 0.040167 -0.204830
O28   O     O_R   0.316646 0.411878 0.996915 -0.329848

loop_
_geom_bond_atom_site_label_1
_geom_bond_atom_site_label_2
_geom_bond_distance
_ccdc_geom_bond_type
O14   H10   0.990784 S    
C3    C8    1.451832 S    
C1    C21   1.467194 S    
C17   C19   1.394385 A    
N5    O25   1.299422 A    
C5    S1    1.786903 S    
C9    H1    1.081031 S    
S1    O10   1.502298 D    
C25   C26   1.514139 S    
O5    C3    1.292783 A    
O1    C1    1.297932 A    
C9    C11   1.397326 A    
N6    O28   1.301932 A    
C5    C15   1.416753 A    
C19   H3    1.075342 S    
N1    N6    1.390989 S    
O4    Cu1   1.949244 S    
S4    O19   1.504078 D    
N2    C26   1.304980 D    
C4    C7    1.455628 S    
H7    C26   1.083423 S    
C2    C22   1.462754 S    
N4    O23   1.300205 A    
S2    O14   1.676324 S    
C11   C17   1.412714 A    
C12   C18   1.412480 A    
Cu1   Cu2   2.686868 S    
N5    O26   1.302497 A    
O2    C2    1.298574 A    
S2    O13   1.503169 D    
S1    O11   1.671444 S    
C6    C16   1.417202 A    
C20   H4    1.078147 S    
N3    O21   1.300750 A    
N6    O27   1.298567 A    
O4    C2    1.293345 A    
C17   S3    1.774843 S    
C23   C24   1.461325 S    
S3    O17   1.683327 S    
O17   H11   0.991114 S    
N3    O22   1.301028 A    
H8    C25   1.079691 S    
O7    Cu2   1.958114 S    
S4    O18   1.503006 D    
O7    C3    1.294345 A    
S1    O9    1.502727 D    
O6    C4    1.296084 A    
O11   H9    0.990587 S    
N1    C25   1.303862 D    
O3    Cu2   1.949245 S    
O8    C4    1.294989 A    
C10   C12   1.395575 A    
C11   C13   1.415853 A    
C12   C14   1.416434 A    
O1    Cu1   1.941960 S    
S2    O12   1.502374 D    
C10   H2    1.081342 S    
C15   C20   1.407888 A    
C5    C7    1.414024 A    
O6    Cu2   1.965086 S    
S4    O20   1.682287 S    
H6    C23   1.083637 S    
C6    S2    1.792271 S    
C14   C16   1.418309 A    
O3    C1    1.296007 A    
O8    Cu1   1.958114 S    
C18   C20   1.394186 A    
H5    C24   1.085566 S    
C21   C23   1.344044 D    
C22   C24   1.342646 D    
S3    O15   1.502627 D    
C7    C9    1.392370 A    
C8    C10   1.389613 A    
C13   C15   1.416428 A    
N2    N5    1.393221 S    
O2    Cu2   1.941960 S    
S3    O16   1.503747 D    
C13   C14   1.412009 A    
O5    Cu1   1.965086 S    
C22   N3    1.438743 S    
C16   C19   1.402911 A    
C6    C8    1.411299 A    
O20   H12   0.990264 S    
N4    O24   1.301455 A    
C21   N4    1.440973 S    
Cu1   N2    2.018442 S    
Cu2   N1    2.018442 S    
C18   S4    1.778374 S    
