data_mof_unit_68312.cif
_audit_creation_date              2012-12-11T17:41:09-0500
_audit_creation_method            fapswitch 2.2
_symmetry_space_group_name_H-M    P1
_symmetry_Int_Tables_number       1
_space_group_crystal_system       triclinic
_cell_length_a                    8.173532
_cell_length_b                    12.662525
_cell_length_c                    14.202008
_cell_angle_alpha                 92.800157
_cell_angle_beta                  90.66839
_cell_angle_gamma                 98.32674
_cell_volume                      1452.38042369

loop_
_atom_site_label
_atom_site_type_symbol
_atom_type_description
_atom_site_fract_x
_atom_site_fract_y
_atom_site_fract_z
_atom_type_partial_charge
Ba1   Ba    Ba6+2 0.855630 0.555280 0.454520 1.632318
Ba2   Ba    Ba6+2 0.334200 0.444810 0.545490 1.631387
C1    C     C_3   0.603961 0.948936 0.179773 -0.411057
C2    C     C_R   0.183273 0.498548 0.195875 0.042296
C3    C     C_R   0.338400 0.550650 0.225990 -0.295054
C4    C     C_3   0.144252 0.804361 0.194808 0.359888
C5    C     C_R   0.451211 0.597734 0.162314 0.018743
C6    C     C_R   0.406232 0.600689 0.067483 -0.148495
C7    C     C_R   0.249082 0.551959 0.034673 -0.003154
C8    C     C_R   0.137613 0.496866 0.098019 -0.022807
C9    C     C_R   0.052940 0.502009 0.901875 -0.023172
C10   C     C_R   0.941588 0.446733 0.965198 -0.003315
C11   C     C_R   0.007672 0.499857 0.803918 0.044231
C12   C     C_3   0.649031 0.857231 0.235297 0.339826
C13   C     C_R   0.854105 0.445397 0.773464 -0.294170
C14   C     C_R   0.740615 0.399160 0.837229 0.014344
C15   C     C_R   0.784807 0.397422 0.932290 -0.148181
C16   C     C_3   0.128903 0.841589 0.095279 -0.362986
C17   C     C_R   0.204739 0.556207 0.938820 -0.035660
C18   C     C_R   0.764475 0.176591 0.536256 -0.276866
C19   C     C_R   0.428972 0.813263 0.461331 -0.285814
C20   C     C_R   0.405750 0.994960 0.427579 -0.104174
C21   C     C_R   0.340672 0.887485 0.422958 -0.007204
C22   C     C_R   0.576207 0.846301 0.512327 0.066921
C23   C     C_3   0.475427 0.310329 0.257762 0.303057
C24   C     C_R   0.641233 0.956936 0.521775 -0.057654
C25   C     C_R   0.555412 0.031552 0.476910 -0.060888
C26   C     C_R   0.619502 0.141300 0.484499 0.043262
C27   C     C_R   0.853625 0.104499 0.576776 -0.008615
C28   C     C_3   0.226650 0.762954 0.656674 0.280847
C29   C     C_R   0.789976 0.995640 0.572772 -0.092454
C30   C     C_3   0.239664 0.882564 0.677660 -0.351059
C31   C     C_3   0.969726 0.236490 0.343737 0.279221
C32   C     C_3   0.960551 0.117127 0.322411 -0.350295
C33   C     C_3   0.714015 0.672880 0.738066 0.307304
C34   C     C_3   0.455224 0.287999 0.151704 -0.389980
C35   C     C_3   0.730354 0.696503 0.844160 -0.394001
C36   C     C_3   0.046534 0.195976 0.805716 0.362453
C37   C     C_3   0.061871 0.159846 0.905648 -0.363309
C38   C     C_3   0.542042 0.141611 0.764424 0.344238
C39   C     C_3   0.590069 0.051772 0.821322 -0.411892
C40   C     C_R   0.985600 0.442935 0.061144 -0.035474
H1    H     H_    0.741845 0.889303 0.291089 0.080536
H2    H     H_    0.831269 0.650325 0.711542 0.011910
H3    H     H_    0.612073 0.605801 0.723839 0.066827
H4    H     H_    0.557073 0.008835 0.228122 0.104126
H5    H     H_    0.837954 0.759219 0.860690 0.128182
H6    H     H_    0.748383 0.623512 0.880539 0.064893
H7    H     H_    0.616335 0.724803 0.870990 0.118517
H8    H     H_    0.535240 0.820445 0.270061 -0.050612
H9    H     H_    0.506468 0.918160 0.126269 0.113942
H10   H     H_    0.357982 0.332097 0.285617 0.018166
H11   H     H_    0.576569 0.378215 0.271207 0.059868
H12   H     H_    0.322353 0.906272 0.739681 0.114548
H13   H     H_    0.349787 0.223487 0.135910 0.128936
H14   H     H_    0.431149 0.361053 0.117119 0.063908
H15   H     H_    0.569883 0.262794 0.122609 0.118781
H16   H     H_    0.713882 0.987802 0.142852 0.129802
H17   H     H_    0.168938 0.782146 0.043732 0.067939
H18   H     H_    0.127134 0.273886 0.800620 0.092726
H19   H     H_    0.916064 0.206478 0.792473 -0.070569
H20   H     H_    0.192738 0.153261 0.922778 0.153538
H21   H     H_    0.018736 0.218737 0.956560 0.067475
H22   H     H_    0.985497 0.080757 0.912700 0.110235
H23   H     H_    0.290586 0.926563 0.616610 0.080529
H24   H     H_    0.654819 0.178964 0.728971 -0.053748
H25   H     H_    0.449968 0.107490 0.708947 0.082397
H26   H     H_    0.686757 0.084585 0.874640 0.113741
H27   H     H_    0.638923 0.991845 0.773864 0.094181
H28   H     H_    0.062181 0.726984 0.199601 0.093045
H29   H     H_    0.481046 0.012288 0.858613 0.129792
H30   H     H_    0.374712 0.550512 0.299494 0.072306
H31   H     H_    0.494388 0.639986 0.019426 0.070774
H32   H     H_    0.696236 0.358775 0.980470 0.069849
H33   H     H_    0.818579 0.444276 0.699747 0.069837
H34   H     H_    0.115468 0.904079 0.693053 0.141347
H35   H     H_    0.899275 0.397628 0.106288 0.097134
H36   H     H_    0.291030 0.601575 0.893706 0.096813
H37   H     H_    0.334805 0.048812 0.394410 0.100894
H38   H     H_    0.859870 0.942996 0.608209 0.103217
H39   H     H_    0.813389 0.260845 0.540441 0.063571
H40   H     H_    0.274279 0.792426 0.207398 -0.069558
H41   H     H_    0.377650 0.729441 0.456237 0.070682
H42   H     H_    0.998577 0.850411 0.079018 0.153439
H43   H     H_    0.207812 0.919800 0.088329 0.109662
H44   H     H_    0.349641 0.742702 0.638958 0.007274
H45   H     H_    0.847031 0.255019 0.363798 0.002242
H46   H     H_    0.139699 0.741164 0.595949 0.076717
H47   H     H_    0.059079 0.259548 0.403045 0.082586
H48   H     H_    0.873991 0.091907 0.262310 0.115570
H49   H     H_    0.916223 0.072534 0.384458 0.085366
H50   H     H_    0.084947 0.097896 0.303954 0.140443
O1    O     O_2   0.887370 0.460630 0.272300 -0.466932
O2    O     O_2   0.195418 0.111023 0.568283 -0.483302
O3    O     O_3   0.095799 0.118923 0.741762 -0.601293
O4    O     O_3   0.129410 0.451380 0.388510 -0.494432
O5    O     O_3   0.575400 0.626570 0.547370 -0.491299
O6    O     O_2   0.344320 0.238700 0.455090 -0.466556
O7    O     O_3   0.513658 0.218301 0.298970 -0.650864
O8    O     O_2   0.401283 0.407662 0.835729 -0.494788
O9    O     O_3   0.470191 0.212675 0.825008 -0.592573
O10   O     O_3   0.670210 0.653170 0.329170 -0.477820
O11   O     O_2   0.791126 0.592203 0.164785 -0.493691
O12   O     O_3   0.680563 0.765059 0.695821 -0.642802
O13   O     O_3   0.017760 0.289076 0.262166 -0.640452
O14   O     O_3   0.718153 0.785985 0.173625 -0.594225
O15   O     O_2   0.845380 0.761330 0.544970 -0.471310
O16   O     O_3   0.088930 0.704860 0.376040 -0.489057
O17   O     O_2   0.001450 0.889256 0.434487 -0.486073
O18   O     O_3   0.097351 0.881484 0.259567 -0.602293
O19   O     O_2   0.302330 0.539400 0.727760 -0.469717
O20   O     O_3   0.060300 0.548700 0.611500 -0.495681
O21   O     O_3   0.519500 0.346920 0.670840 -0.470523
O22   O     O_3   0.171635 0.711067 0.737515 -0.639326
O23   O     O_3   0.614310 0.373510 0.452640 -0.479393
O24   O     O_3   0.100780 0.295230 0.623970 -0.486601
P1    P     P_3+3 0.054400 0.427280 0.286870 0.970201
P2    P     P_3+3 0.668300 0.742890 0.573060 0.969270
P3    P     P_3+3 0.132438 0.842858 0.373940 0.946883
P4    P     P_3+3 0.135310 0.572810 0.713130 0.969875
P5    P     P_3+3 0.060595 0.155964 0.626892 0.948939
P6    P     P_3+3 0.658055 0.654921 0.206472 0.958336
P7    P     P_3+3 0.526760 0.241629 0.421506 0.932683
P8    P     P_3+3 0.532626 0.343923 0.793354 0.958436

loop_
_geom_bond_atom_site_label_1
_geom_bond_atom_site_label_2
_ccdc_geom_bond_type
C13   H33   S    
C4    H40   S    
C8    C40   A    
C26   P7    S    
C5    C6    A    
C37   H22   S    
Ba2   O20   S    
C24   C25   A    
O7    P7    S    
C33   C35   S    
C23   H11   S    
C20   H37   S    
C3    H30   S    
Ba1   O20   S    
C21   P3    S    
C36   C37   S    
Ba2   O21   S    
C13   C14   A    
Ba1   Ba2   S    
O5    P2    S    
C32   H49   S    
C10   C40   A    
C38   O9    S    
Ba2   O24   S    
C23   O7    S    
C19   H41   S    
Ba2   O5    S    
C14   C15   A    
C38   H25   S    
C27   P5    S    
C36   O3    S    
C16   H42   S    
C3    C5    A    
C35   H5    S    
C7    C8    A    
O15   P2    D    
C39   H29   S    
C36   H19   S    
O3    P5    S    
C24   C29   A    
C38   H24   S    
C18   H39   S    
C4    O18   S    
O16   P3    S    
O13   P1    S    
O1    P1    D    
C30   H12   S    
C7    C17   A    
C39   H26   S    
O12   P2    S    
C18   C27   A    
O6    P7    D    
C4    C16   S    
Ba2   O19   S    
C16   H43   S    
O23   P7    S    
O24   P5    S    
O9    P8    S    
O4    P1    S    
C29   H38   S    
C31   O13   S    
C33   O12   S    
Ba1   O5    S    
O20   P4    S    
C1    H9    S    
C6    C7    A    
C18   C26   A    
O19   P4    D    
O8    P8    D    
C10   C15   A    
C17   H36   S    
C32   H48   S    
C1    H16   S    
C34   H14   S    
C31   H47   S    
C35   H7    S    
Ba2   O23   S    
C9    C17   A    
O14   P6    S    
C31   C32   S    
Ba1   P1    S    
C35   H6    S    
C33   H2    S    
C1    C12   S    
Ba1   O15   S    
C36   H18   S    
C38   C39   S    
C34   H15   S    
C20   C25   A    
C19   C21   A    
C15   H32   S    
C2    P1    S    
C28   H44   S    
C5    P6    S    
C28   H46   S    
C33   H3    S    
C11   P4    S    
O17   P3    D    
C39   H27   S    
C28   O22   S    
C4    H28   S    
C37   H20   S    
Ba2   P4    S    
C23   C34   S    
C22   C24   A    
C2    C3    A    
O18   P3    S    
C30   H34   S    
C9    C10   A    
C37   H21   S    
C1    H4    S    
C22   P2    S    
C11   C13   A    
C14   P8    S    
C23   H10   S    
C27   C29   A    
C34   H13   S    
C28   C30   S    
C9    C11   A    
C12   H8    S    
O21   P8    S    
Ba1   O4    S    
Ba2   O4    S    
C6    H31   S    
Ba1   P2    S    
C31   H45   S    
C32   H50   S    
Ba1   O16   S    
O2    P5    D    
C16   H17   S    
C12   O14   S    
Ba2   O6    S    
C40   H35   S    
Ba1   O1    S    
C19   C22   A    
C25   C26   A    
C20   C21   A    
C12   H1    S    
Ba1   O23   S    
O10   P6    S    
O11   P6    D    
C2    C8    A    
Ba1   O10   S    
O22   P4    S    
C30   H23   S    
