data_mof_unit_34213.cif
_audit_creation_date              2013-03-05T15:42:22-0500
_audit_creation_method            fapswitch 2.2
_symmetry_space_group_name_H-M    P1
_symmetry_Int_Tables_number       1
_space_group_crystal_system       triclinic
_cell_length_a                    16.858273
_cell_length_b                    16.723844
_cell_length_c                    19.490368
_cell_angle_alpha                 117.841374
_cell_angle_beta                  62.433907
_cell_angle_gamma                 100.925873
_cell_volume                      4304.86104986

loop_
_atom_site_label
_atom_site_type_symbol
_atom_site_description
_atom_site_fract_x
_atom_site_fract_y
_atom_site_fract_z
_atom_type_partial_charge
C1    C     C_R   0.020503 0.761492 0.033753 -0.146798
H1    H     H_    0.046451 0.810357 0.078149 0.159987
N1    N     N_R   0.036080 0.671900 0.995420 -0.052860
C2    C     C_R   0.749316 0.482971 0.171007 -0.080519
H2    H     H_    0.697079 0.463975 0.150123 0.152251
N2    N     N_R   0.834710 0.454650 0.119760 -0.038094
C3    C     C_R   0.822985 0.499164 0.903118 -0.095522
H3    H     H_    0.853662 0.513211 0.848647 0.232736
N3    N     N_R   0.867430 0.509300 0.948100 -0.084965
C4    C     C_R   0.012917 0.660382 0.240357 -0.198100
H4    H     H_    0.995829 0.631243 0.284393 0.132179
N4    N     N_R   0.003360 0.617250 0.167070 -0.062286
C5    C     C_R   0.753992 0.423347 0.979724 0.317232
N5    N     N_R   0.825450 0.461270 0.995400 -0.103638
C6    C     C_R   0.086082 0.734306 0.160510 0.271805
N6    N     N_R   0.045340 0.665280 0.119770 -0.067659
C7    C     C_R   0.827995 0.551184 0.247892 -0.073712
H5    H     H_    0.848064 0.593640 0.298719 0.107062
N7    N     N_R   0.883740 0.497640 0.167070 -0.047669
C8    C     C_R   0.945654 0.695080 0.953247 0.339840
N8    N     N_R   0.987050 0.628910 0.948110 -0.071493
C9    C     C_R   0.962310 0.779088 0.010082 -0.062135
C10   C     C_R   0.742659 0.544837 0.252002 0.022483
C11   C     C_R   0.752241 0.442967 0.918004 -0.061168
C12   C     C_R   0.064521 0.735377 0.238999 0.004161
C13   C     C_R   0.261703 0.517467 0.961850 -0.060484
H6    H     H_    0.308430 0.542975 0.916745 0.114567
N9    N     N_R   0.174550 0.538730 0.004600 -0.035389
C14   C     C_R   0.980035 0.247214 0.827928 -0.066682
H7    H     H_    0.957146 0.192800 0.846582 0.104689
N10   N     N_R   0.954660 0.334720 0.880230 -0.043567
C15   C     C_R   0.155127 0.513561 0.761070 0.268911
N11   N     N_R   0.116260 0.502360 0.832930 -0.077746
C16   C     C_R   0.028920 0.312031 0.073095 -0.053191
H8    H     H_    0.057835 0.328970 0.117190 0.158682
N12   N     N_R   0.012950 0.371090 0.051890 -0.062141
C17   C     C_R   0.948923 0.244089 0.999627 -0.112563
H9    H     H_    0.902796 0.198381 0.976635 0.139094
N13   N     N_R   0.963920 0.328100 0.004580 -0.045546
C18   C     C_R   0.238161 0.577502 0.833417 -0.152927
H10   H     H_    0.283052 0.623239 0.858279 0.146027
N14   N     N_R   0.165290 0.545350 0.880240 -0.058362
C19   C     C_R   0.195424 0.443438 0.043179 -0.079788
H11   H     H_    0.182259 0.405932 0.079276 0.157428
N15   N     N_R   0.132570 0.490700 0.051900 -0.057371
C20   C     C_R   0.049569 0.326806 0.752601 -0.076759
H12   H     H_    0.092695 0.347887 0.703140 0.140957
N16   N     N_R   0.996640 0.382750 0.832930 -0.045512
Ni1   Ni    Ni4+2 0.104370 0.604370 0.000010 0.262778
Ni2   Ni    Ni4+2 0.895630 0.395630 0.999990 0.291050
Ni3   Ni    Ni4+2 0.991920 0.505780 0.891500 0.282289
Ni4   Ni    Ni4+2 0.008080 0.494220 0.108500 0.239867
C21   C     C_R   0.277949 0.455472 0.983270 0.069639
C22   C     C_R   0.042636 0.240540 0.747574 0.020111
C23   C     C_R   0.234824 0.557263 0.757049 -0.010526
C24   C     C_R   0.990439 0.230322 0.040483 0.072386
C25   C     C_R   0.071307 0.073176 0.671199 -0.218699
C26   C     C_R   0.089971 0.158262 0.670462 0.097317
C27   C     C_R   0.144672 0.163782 0.592550 -0.165700
C28   C     C_R   0.162267 0.087587 0.514655 0.006429
C29   C     C_R   0.131363 0.003358 0.515974 0.002379
C30   C     C_R   0.091648 0.995132 0.593892 0.148868
C31   C     C_R   0.200199 0.095304 0.436610 0.334408
C32   C     C_R   0.195470 0.023219 0.364027 -0.228570
C33   C     C_R   0.157016 0.942579 0.367498 0.047850
C34   C     C_R   0.131105 0.929918 0.441308 0.040905
C35   C     C_R   0.095397 0.847263 0.443409 0.132379
C36   C     C_R   0.066381 0.836640 0.518619 -0.175006
C37   C     C_R   0.063564 0.910631 0.593900 -0.179031
C38   C     C_R   0.136481 0.877980 0.301283 -0.153691
C39   C     C_R   0.097778 0.796703 0.303514 0.127911
C40   C     C_R   0.082217 0.779681 0.372900 -0.234386
H13   H     H_    0.033812 0.067615 0.731200 0.123811
H14   H     H_    0.164972 0.228652 0.592197 0.165629
H15   H     H_    0.218246 0.031686 0.305957 0.189329
H16   H     H_    0.143689 0.896077 0.252529 0.173759
H17   H     H_    0.053306 0.717237 0.375862 0.133980
H18   H     H_    0.039921 0.773141 0.520864 0.157073
H19   H     H_    0.034504 0.903109 0.653053 0.153171
C41   C     C_R   0.295840 0.542599 0.608965 -0.162918
C42   C     C_R   0.298280 0.584535 0.689260 0.124107
C43   C     C_R   0.366121 0.645505 0.700939 -0.207227
C44   C     C_R   0.434195 0.658904 0.631191 0.117038
C45   C     C_R   0.430282 0.615977 0.551030 0.032493
C46   C     C_R   0.358009 0.561520 0.541552 0.095041
C47   C     C_R   0.509069 0.709090 0.638405 -0.148444
C48   C     C_R   0.583015 0.709434 0.565001 -0.172319
C49   C     C_R   0.581725 0.661418 0.484182 0.125840
C50   C     C_R   0.502898 0.619358 0.478133 0.038938
C51   C     C_R   0.499976 0.572433 0.397603 0.120014
C52   C     C_R   0.422923 0.527549 0.391121 -0.171516
C53   C     C_R   0.352845 0.520495 0.462600 -0.135006
C54   C     C_R   0.660126 0.646027 0.408655 -0.220322
C55   C     C_R   0.659394 0.588842 0.328359 0.110400
C56   C     C_R   0.577416 0.561392 0.323583 -0.222947
H20   H     H_    0.250003 0.489642 0.595619 0.178175
H21   H     H_    0.369558 0.678174 0.762209 0.139320
H22   H     H_    0.512737 0.743219 0.699688 0.155126
H23   H     H_    0.642691 0.743236 0.570803 0.145825
H24   H     H_    0.722362 0.671770 0.413085 0.123918
H25   H     H_    0.574401 0.521602 0.262477 0.143896
H26   H     H_    0.419851 0.491801 0.329566 0.161875
H27   H     H_    0.296439 0.479873 0.455361 0.175305
C57   C     C_R   0.693268 0.409262 0.872390 -0.030933
C58   C     C_R   0.367191 0.415342 0.949356 0.000167
C59   C     C_R   0.467763 0.314952 0.933925 -0.162094
C60   C     C_R   0.381132 0.338501 0.955775 0.326402
C61   C     C_R   0.442324 0.457227 0.908757 -0.190815
C62   C     C_R   0.528781 0.430006 0.881821 -0.000720
C63   C     C_R   0.540872 0.363263 0.901082 0.057776
C64   C     C_R   0.624776 0.350610 0.892732 -0.187272
C65   C     C_R   0.688072 0.453489 0.827687 0.276790
C66   C     C_R   0.603943 0.468849 0.837180 0.259406
H28   H     H_    0.633633 0.300446 0.908771 0.198489
H29   H     H_    0.477760 0.259792 0.943939 0.179026
H30   H     H_    0.434206 0.515082 0.902106 0.173939
C67   C     C_R   0.829301 0.202477 0.219371 0.106936
C68   C     C_R   0.920546 0.869331 0.046821 0.141281
C69   C     C_R   0.791029 0.961602 0.098809 -0.175938
C70   C     C_R   0.833761 0.876947 0.056795 -0.119144
C71   C     C_R   0.963402 0.948720 0.081003 -0.204068
C72   C     C_R   0.919681 0.033829 0.125981 0.115926
C73   C     C_R   0.832911 0.040286 0.134478 0.162384
C74   C     C_R   0.788688 0.125089 0.180445 -0.315344
C75   C     C_R   0.914818 0.197011 0.212489 0.306589
C76   C     C_R   0.960292 0.112336 0.164714 -0.320471
H31   H     H_    0.722308 0.131554 0.187486 0.172978
H32   H     H_    0.723969 0.965262 0.105921 0.149003
H33   H     H_    0.026588 0.107347 0.158648 0.201052
H34   H     H_    0.796896 0.817464 0.035453 0.164963
H35   H     H_    0.030002 0.944317 0.074540 0.143553
Br1   Br    Br    0.082913 0.517465 0.709755 -0.487606
Br2   Br    Br    0.250095 0.204990 0.426825 -0.509278
Br3   Br    Br    0.792747 0.473389 0.738522 -0.364475
Br4   Br    Br    0.593164 0.541026 0.787866 -0.449368
Br5   Br    Br    0.289155 0.258143 0.987237 -0.539348
N17   N     N_R   0.954878 0.277558 0.253835 0.237930
O1    O     O_R   0.912733 0.355683 0.296324 -0.385908
O2    O     O_R   0.033867 0.273826 0.248920 -0.359277
N18   N     N_R   0.706625 0.353255 0.003757 0.208232
O3    O     O_R   0.620941 0.364311 0.052980 -0.429281
O4    O     O_R   0.751059 0.291202 0.995507 -0.425072
Br6   Br    Br    0.195094 0.775508 0.093256 -0.601559
Br7   Br    Br    0.899957 0.682058 0.875216 -0.474622

loop_
_geom_bond_atom_site_label_1
_geom_bond_atom_site_label_2
_geom_bond_distance
_ccdc_geom_bond_type
C48   C49   1.403606 A    
C16   C24   1.387963 A    
C54   C55   1.406907 A    
C8    Br7   1.914512 S    
N3    Ni3   1.862332 S    
C15   Br1   1.924747 S    
C19   H11   1.073566 S    
C41   C46   1.383110 A    
C42   C43   1.407685 A    
N1    Ni1   1.814224 S    
C73   C74   1.402017 A    
N2    N7    1.382486 A    
N17   O2    1.301598 A    
C13   H6    1.075781 S    
C14   H7    1.074822 S    
C28   C31   1.411084 A    
C70   H34   1.080397 S    
N11   N14   1.382486 A    
C31   Br2   1.924130 S    
C67   C74   1.395373 A    
N18   O4    1.300509 A    
C35   C40   1.397130 A    
C49   C50   1.409903 A    
C22   C26   1.470894 S    
C6    C12   1.390996 A    
C59   C60   1.398259 A    
C3    C11   1.378166 A    
C61   C62   1.388272 A    
C3    N3    1.334092 A    
C16   H8    1.079119 S    
C25   H13   1.082086 S    
C63   C64   1.392921 A    
C53   H27   1.084175 S    
C49   C54   1.397994 A    
C17   C24   1.387482 A    
N7    Ni4   1.862806 S    
C19   C21   1.396166 A    
N16   Ni3   1.824015 S    
N4    N6    1.366847 A    
C36   C37   1.395782 A    
C56   H25   1.080167 S    
C38   C39   1.402835 A    
C12   C39   1.475555 S    
C23   C42   1.472345 S    
C15   C23   1.388973 A    
N12   Ni4   1.822778 S    
C62   C66   1.407141 A    
C69   H32   1.083659 S    
C18   N14   1.342177 A    
C34   C35   1.410481 A    
C1    C9    1.384560 A    
C5    N5    1.347889 A    
C55   C56   1.402866 A    
C71   H35   1.083359 S    
C29   C34   1.400226 A    
C65   C66   1.400921 A    
N4    Ni4   1.824015 S    
C46   C53   1.400514 A    
C48   H23   1.083737 S    
C36   H18   1.083699 S    
C58   C61   1.405296 A    
C20   N16   1.333424 A    
N9    N15   1.366846 A    
C6    N6    1.335241 A    
C35   C36   1.402236 A    
C5    N18   1.429317 S    
C51   C56   1.385332 A    
C45   C46   1.406612 A    
N18   O3    1.301560 A    
C2    N2    1.334232 A    
C3    H3    1.062304 S    
C52   C53   1.388469 A    
C57   C65   1.418109 A    
C2    C10   1.389098 A    
C47   C48   1.398278 A    
C2    H2    1.070999 S    
C76   H33   1.083468 S    
C75   N17   1.436995 S    
C26   C27   1.402656 A    
N2    Ni2   1.868542 S    
C30   C37   1.402748 A    
C28   C29   1.414058 A    
C11   C57   1.494666 S    
C68   C71   1.408632 A    
C72   C76   1.405077 A    
N3    N5    1.366849 A    
C44   C47   1.403522 A    
C17   H9    1.080303 S    
C57   C64   1.400985 A    
C58   C60   1.419224 A    
N9    Ni1   1.815170 S    
C44   C45   1.410859 A    
C27   H14   1.076180 S    
C18   C23   1.390286 A    
C20   C22   1.385383 A    
C7    H5    1.078017 S    
C7    C10   1.389498 A    
N6    Ni1   1.868099 S    
C19   N15   1.342272 A    
C54   H24   1.082357 S    
C71   C72   1.404233 A    
C4    N4    1.339081 A    
C74   H31   1.082901 S    
C6    Br6   1.924693 S    
C4    C12   1.388024 A    
C18   H10   1.079997 S    
C8    C9    1.401594 A    
C43   C44   1.399413 A    
N10   N16   1.366847 A    
C38   H16   1.075712 S    
C75   C76   1.406858 A    
C43   H21   1.081924 S    
C37   H19   1.083705 S    
C41   H20   1.077308 S    
C45   C50   1.399793 A    
C25   C30   1.394983 A    
C52   H26   1.084095 S    
C51   C52   1.400158 A    
C13   C21   1.393576 A    
N8    Ni3   1.822778 S    
C59   C63   1.398916 A    
C9    C68   1.487594 S    
C20   H12   1.074143 S    
N12   N13   1.382487 A    
C65   Br3   1.929791 S    
C41   C42   1.402217 A    
C40   H17   1.081096 S    
C69   C70   1.397019 A    
C14   C22   1.389465 A    
C69   C73   1.400366 A    
N11   Ni3   1.862804 S    
N17   O1    1.301668 A    
C13   N9    1.329531 A    
N15   Ni4   1.862334 S    
C10   C55   1.470342 S    
C59   H29   1.083982 S    
C15   N11   1.332362 A    
C61   H30   1.074937 S    
C72   C73   1.413437 A    
C39   C40   1.407714 A    
C17   N13   1.344795 A    
C62   C63   1.406004 A    
C32   C33   1.398861 A    
C25   C26   1.403304 A    
N5    Ni2   1.815173 S    
C1    H1    1.078079 S    
C7    N7    1.340794 A    
C32   H15   1.084136 S    
C64   H28   1.076793 S    
C16   N12   1.343091 A    
C29   C30   1.411621 A    
C47   H22   1.083713 S    
C68   C70   1.406696 A    
N1    N8    1.382486 A    
C4    H4    1.079686 S    
N14   Ni1   1.868542 S    
C31   C32   1.391394 A    
C21   C58   1.482811 S    
C27   C28   1.391456 A    
N13   Ni2   1.814222 S    
C8    N8    1.358760 A    
C5    C11   1.400302 A    
C14   N10   1.343160 A    
C33   C34   1.404630 A    
C66   Br4   1.934505 S    
N10   Ni2   1.868099 S    
C1    N1    1.339439 A    
C50   C51   1.410040 A    
C67   C75   1.401528 A    
C33   C38   1.386346 A    
C60   Br5   1.919923 S    
