data_mof_unit_18372.cif
_audit_creation_date              2012-10-26T18:50:43-0400
_audit_creation_method            fapswitch 2.2
_symmetry_space_group_name_H-M    P1
_symmetry_Int_Tables_number       1
_space_group_crystal_system       triclinic
_cell_length_a                    12.362382
_cell_length_b                    13.141744
_cell_length_c                    17.264668
_cell_angle_alpha                 105.73325
_cell_angle_beta                  75.750523
_cell_angle_gamma                 116.748524
_cell_volume                      2385.62379726

loop_
_atom_site_label
_atom_site_type_symbol
_atom_type_description
_atom_site_fract_x
_atom_site_fract_y
_atom_site_fract_z
_atom_type_partial_charge
C1    C     C_R   0.144104 0.713788 0.507363 0.530268
C2    C     C_R   0.021441 0.506658 0.263793 0.020359
C3    C     C_R   0.724695 0.967915 0.388449 -0.083421
C4    C     C_R   0.990387 0.506362 0.652148 0.539772
C5    C     C_R   0.774120 0.161588 0.468770 0.001624
C6    C     C_R   0.182593 0.919347 0.562431 -0.112117
C7    C     C_R   0.261936 0.035355 0.579163 -0.120861
C8    C     C_R   0.386070 0.070968 0.549320 -0.110757
C9    C     C_R   0.433076 0.990918 0.498731 0.031152
C10   C     C_R   0.349101 0.875394 0.473949 0.018460
C11   C     C_R   0.560378 0.021472 0.471569 0.010298
C12   C     C_R   0.941042 0.586599 0.797836 -0.129816
C13   C     C_R   0.599910 0.939862 0.415061 0.000884
C14   C     C_R   0.514496 0.831662 0.384158 -0.139174
C15   C     C_R   0.390870 0.800641 0.411917 -0.106195
C16   C     C_R   0.856117 0.285451 0.487016 0.552927
C17   C     C_R   0.649871 0.130172 0.499622 -0.158123
C18   C     C_R   0.812056 0.078123 0.414194 0.232184
C19   C     C_R   0.225391 0.837822 0.511852 -0.001263
C20   C     C_R   0.662261 0.696382 0.620231 0.227062
C21   C     C_R   0.256057 0.364112 0.381775 0.096913
C22   C     C_R   0.366459 0.357398 0.345797 -0.146477
C23   C     C_R   0.972825 0.570178 0.162606 -0.049168
C24   C     C_R   0.467944 0.421014 0.386305 -0.094407
C25   C     C_R   0.458569 0.482218 0.466394 0.006075
C26   C     C_R   0.349250 0.499193 0.495385 0.121958
C27   C     C_R   0.558206 0.538461 0.513770 -0.080193
C28   C     C_R   0.013843 0.500300 0.348401 0.554843
C29   C     C_R   0.558384 0.632552 0.578791 0.006898
C30   C     C_R   0.453621 0.657609 0.601315 0.252189
C31   C     C_R   0.349478 0.586272 0.563424 -0.102490
C32   C     C_R   0.652764 0.499152 0.503054 0.408283
C33   C     C_R   0.757159 0.660610 0.601591 0.030237
C34   C     C_R   0.967768 0.570424 0.244788 0.268784
C35   C     C_R   0.998960 0.523737 0.737954 0.015069
C36   C     C_R   0.076572 0.487304 0.759387 -0.110728
C37   C     C_R   0.096520 0.513627 0.839291 -0.108900
C38   C     C_R   0.038865 0.576363 0.899017 0.063842
C39   C     C_R   0.961582 0.613388 0.878210 -0.084570
C40   C     C_3   0.818159 0.644466 0.292231 -0.116423
C41   C     C_3   0.442227 0.833184 0.640266 -0.053257
C42   C     C_3   0.680382 0.362822 0.388938 -0.062778
C43   C     C_R   0.078664 0.445577 0.201683 -0.172358
C44   C     C_R   0.082716 0.446624 0.120817 -0.122592
C45   C     C_R   0.031448 0.510101 0.101187 0.026840
C46   C     C_2   0.053117 0.596259 0.984006 0.221631
C47   C     C_2   0.030620 0.504551 0.015653 -0.112597
Cl1   Cl    Cl    0.965744 0.106838 0.372482 -0.601707
Cl2   Cl    Cl    0.683775 0.823487 0.694640 -0.550811
Cl3   Cl    Cl    0.104940 0.740548 0.038469 -0.574412
Cu1   Cu    Cu3+1 0.900140 0.524980 0.518800 0.998496
Cu2   Cu    Cu3+1 0.099860 0.475020 0.481200 0.956265
H1    H     H_    0.123189 0.439476 0.714262 0.144973
H2    H     H_    0.837351 0.710075 0.631964 0.155762
H3    H     H_    0.178845 0.319981 0.348581 0.180869
H4    H     H_    0.554769 0.433775 0.350208 0.090421
H5    H     H_    0.375472 0.309466 0.284526 0.119674
H6    H     H_    0.271623 0.605663 0.587515 0.188538
H7    H     H_    0.118500 0.395348 0.215655 0.142547
H8    H     H_    0.008094 0.419455 0.976747 0.092258
H9    H     H_    0.915904 0.661203 0.924270 0.154409
H10   H     H_    0.930479 0.615889 0.146050 0.153131
H11   H     H_    0.882363 0.617049 0.782325 0.141287
H12   H     H_    0.125843 0.397803 0.073404 0.132575
H13   H     H_    0.156937 0.485017 0.854667 0.123542
H14   H     H_    0.755139 0.559395 0.261165 0.070629
H15   H     H_    0.845722 0.713303 0.256622 0.153515
H16   H     H_    0.766294 0.668046 0.351261 0.139615
H17   H     H_    0.350797 0.807487 0.623965 0.096819
H18   H     H_    0.515425 0.861631 0.588260 0.136581
H19   H     H_    0.457987 0.909107 0.690746 0.176383
H20   H     H_    0.744927 0.323277 0.382302 0.153126
H21   H     H_    0.727686 0.441136 0.360607 0.121575
H22   H     H_    0.608390 0.295569 0.352712 0.112518
H23   H     H_    0.543351 0.770466 0.338242 0.108171
H24   H     H_    0.754324 0.904796 0.345616 0.142396
H25   H     H_    0.625218 0.193433 0.545201 0.152199
H26   H     H_    0.088077 0.892954 0.591051 0.146679
H27   H     H_    0.442028 0.162120 0.565690 0.137320
H28   H     H_    0.227716 0.097687 0.617872 0.138611
H29   H     H_    0.328663 0.717986 0.382744 0.159748
N1    N     N_R   0.749710 0.562810 0.547300 -0.251678
N2    N     N_R   0.249640 0.437820 0.453210 -0.237071
O1    O     O_R   0.025490 0.682370 0.523640 -0.497098
O2    O     O_3   0.445892 0.742809 0.667437 -0.496722
O3    O     O_3   0.626158 0.382397 0.470878 -0.547134
O4    O     O_R   0.194150 0.640180 0.491890 -0.543550
O5    O     O_R   0.905900 0.523560 0.631310 -0.505508
O6    O     O_R   0.074570 0.481370 0.599560 -0.526972
O7    O     O_R   0.805850 0.359820 0.508110 -0.479144
O8    O     O_R   0.974510 0.317630 0.476360 -0.438746
O9    O     O_R   0.925430 0.518630 0.400440 -0.469060
O10   O     O_R   0.094100 0.476440 0.368690 -0.530141
O11   O     O_3   0.922769 0.639994 0.307798 -0.530761

loop_
_geom_bond_atom_site_label_1
_geom_bond_atom_site_label_2
_ccdc_geom_bond_type
C1    O4    A    
C16   O7    A    
C26   N2    A    
C23   C45   A    
C27   C29   A    
C35   C36   A    
C22   H5    S    
C7    C8    A    
C15   H29   S    
C44   H12   S    
C1    O1    A    
C6    C19   A    
C20   Cl2   S    
C31   H6    S    
C36   C37   A    
C10   C15   A    
Cu1   O7    S    
C38   C39   A    
C6    H26   S    
C5    C17   A    
C3    C18   A    
C5    C16   S    
C36   H1    S    
C47   H8    S    
C23   H10   S    
C21   N2    A    
C8    C9    A    
C40   H15   S    
C37   H13   S    
C8    H27   S    
C42   O3    S    
C29   C30   A    
C9    C10   A    
C10   C19   A    
C3    C13   A    
C43   H7    S    
C41   H19   S    
C2    C34   A    
C4    C35   S    
C26   C31   A    
C40   H14   S    
C13   C14   A    
Cu2   O6    S    
C17   H25   S    
C20   C29   A    
C45   C47   S    
C39   H9    S    
C42   H22   S    
C1    C19   S    
Cu1   Cu2   S    
C24   C25   A    
C21   H3    S    
C12   H11   S    
C5    C18   A    
C25   C26   A    
C28   O10   A    
C12   C35   A    
Cu2   N2    S    
C43   C44   A    
C37   C38   A    
Cu1   O9    S    
C2    C43   A    
C23   C34   A    
C32   O3    S    
C42   H20   S    
Cu2   O10   S    
C28   O9    A    
C30   O2    S    
C3    H24   S    
C9    C11   A    
Cu1   N1    S    
C20   C33   A    
C22   C24   A    
C24   H4    S    
C32   N1    A    
C44   C45   A    
C41   H17   S    
C4    O6    A    
C33   N1    A    
C33   H2    S    
C46   C47   D    
C11   C17   A    
C42   H21   S    
C27   C32   A    
Cu2   O4    S    
C34   O11   S    
C40   O11   S    
C18   Cl1   S    
Cu1   O5    S    
C6    C7    A    
C4    O5    A    
C25   C27   A    
C41   O2    S    
C46   Cl3   S    
C14   H23   S    
C12   C39   A    
C11   C13   A    
C30   C31   A    
C38   C46   S    
C16   O8    A    
C40   H16   S    
C14   C15   A    
C7    H28   S    
Cu2   O8    S    
C2    C28   S    
C21   C22   A    
Cu1   O1    S    
C41   H18   S    
