data_mof_unit_36942.cif
_audit_creation_date              2013-03-05T16:10:29-0500
_audit_creation_method            fapswitch 2.2
_symmetry_space_group_name_H-M    P1
_symmetry_Int_Tables_number       1
_space_group_crystal_system       triclinic
_cell_length_a                    10.711943
_cell_length_b                    9.989822
_cell_length_c                    14.984489
_cell_angle_alpha                 90.139446
_cell_angle_beta                  93.897694
_cell_angle_gamma                 89.854601
_cell_volume                      1599.7780969

loop_
_atom_site_label
_atom_site_type_symbol
_atom_site_description
_atom_site_fract_x
_atom_site_fract_y
_atom_site_fract_z
_atom_type_partial_charge
O1    O     O_R   0.316770 0.614620 0.499990 -0.628984
O2    O     O_R   0.683230 0.385380 0.500010 -0.628986
O3    O     O_R   0.683230 0.614620 0.500010 -0.634934
O4    O     O_R   0.316770 0.385380 0.499990 -0.634939
C1    C     C_R   0.260318 0.500101 0.499777 0.844278
C2    C     C_R   0.739682 0.499899 0.500223 0.844292
O5    O     O_R   0.499980 0.614680 0.367850 -0.619194
O6    O     O_R   0.500020 0.385320 0.632150 -0.619189
O7    O     O_R   0.500020 0.614680 0.632150 -0.626223
O8    O     O_R   0.499980 0.385320 0.367850 -0.626223
C3    C     C_R   0.503092 0.499931 0.327334 0.887178
C4    C     C_R   0.496904 0.500069 0.672665 0.887164
Zn1   Zn    Zn3+2 0.500000 0.653120 0.500000 0.929540
Zn2   Zn    Zn3+2 0.500000 0.346880 0.500000 0.929542
C5    C     C_R   0.549014 0.603434 0.816281 -0.296361
C6    C     C_R   0.450951 0.396571 0.183720 -0.296360
C7    C     C_R   0.489865 0.499877 0.768198 -0.081228
C8    C     C_R   0.510106 0.500127 0.231800 -0.081242
C9    C     C_R   0.424922 0.398395 0.810934 0.137598
C10   C     C_R   0.575020 0.601625 0.189057 0.137574
C11   C     C_R   0.441476 0.388157 0.905017 0.083720
C12   C     C_R   0.558442 0.611865 0.094977 0.083742
C13   C     C_R   0.497034 0.498753 0.953254 -0.016558
C14   C     C_R   0.502890 0.501266 0.046742 -0.016550
C15   C     C_R   0.547108 0.607297 0.907966 0.087994
C16   C     C_R   0.452828 0.392718 0.092032 0.087985
C17   C     C_R   0.405621 0.273141 0.953114 0.196570
C18   C     C_R   0.594271 0.726889 0.046881 0.196544
C19   C     C_R   0.406611 0.280044 0.045944 -0.216886
C20   C     C_R   0.593305 0.719982 0.954054 -0.216898
H1    H     H_    0.594847 0.683051 0.781869 0.161595
H2    H     H_    0.405133 0.316948 0.218135 0.161596
H3    H     H_    0.375226 0.194586 0.083024 0.148594
H4    H     H_    0.624682 0.805445 0.916976 0.148605
C21   C     C_R   0.065881 0.380529 0.516395 -0.203147
C22   C     C_R   0.934118 0.619471 0.483605 -0.203145
C23   C     C_R   0.937963 0.380406 0.516384 -0.193180
C24   C     C_R   0.062037 0.619594 0.483616 -0.193178
H5    H     H_    0.115996 0.287564 0.529725 0.162581
H6    H     H_    0.884004 0.712436 0.470275 0.162581
H7    H     H_    0.890972 0.287390 0.529595 0.157412
H8    H     H_    0.109028 0.712609 0.470405 0.157413
C25   C     C_R   0.872365 0.499870 0.500045 -0.005383
C26   C     C_R   0.127635 0.500130 0.499955 -0.005379
C27   C     C_R   0.580301 0.071723 0.558101 0.201558
C28   C     C_R   0.419700 0.928277 0.441899 0.201551
C29   C     C_R   0.419384 0.071701 0.442124 0.207440
C30   C     C_R   0.580616 0.928299 0.557876 0.207436
N1    N     N_R   0.500000 0.857200 0.500000 -0.118137
N2    N     N_R   0.500000 0.142800 0.500000 -0.118136
C31   C     C_3   0.321936 0.322272 0.757951 -0.849596
H9    H     H_    0.283646 0.380941 0.699405 0.231685
H10   H     H_    0.357398 0.225457 0.733305 0.254096
H11   H     H_    0.240451 0.307071 0.798663 0.232578
C32   C     C_3   0.678010 0.677763 0.242028 -0.849576
H12   H     H_    0.716363 0.619061 0.300543 0.231667
H13   H     H_    0.759454 0.693050 0.201289 0.232598
H14   H     H_    0.642524 0.774541 0.266722 0.254101
C33   C     C_3   0.382703 0.136983 0.910769 -0.917048
H15   H     H_    0.448800 0.118792 0.858086 0.245465
H16   H     H_    0.399919 0.055480 0.960539 0.236710
H17   H     H_    0.284272 0.127143 0.883647 0.246956
C34   C     C_3   0.617122 0.863059 0.089225 -0.917031
H18   H     H_    0.551075 0.881184 0.141952 0.245469
H19   H     H_    0.715572 0.872977 0.116294 0.246946
H20   H     H_    0.599777 0.944552 0.039462 0.236729
C35   C     C_3   0.669790 0.142694 0.624718 -0.831713
H21   H     H_    0.668486 0.250934 0.619977 0.289211
H22   H     H_    0.646811 0.118184 0.693913 0.216634
H23   H     H_    0.767555 0.112390 0.614737 0.206141
C36   C     C_3   0.330211 0.857306 0.375281 -0.831724
H24   H     H_    0.331513 0.749066 0.380023 0.289212
H25   H     H_    0.232446 0.887610 0.385261 0.206146
H26   H     H_    0.353193 0.881815 0.306086 0.216630
C37   C     C_3   0.327001 0.142619 0.377546 -0.837893
H27   H     H_    0.332440 0.250913 0.379379 0.288724
H28   H     H_    0.342830 0.113149 0.307776 0.208482
H29   H     H_    0.229931 0.117120 0.392689 0.213723
C38   C     C_3   0.672998 0.857381 0.622455 -0.837892
H30   H     H_    0.667560 0.749087 0.620620 0.288725
H31   H     H_    0.770069 0.882881 0.607313 0.213723
H32   H     H_    0.657167 0.886850 0.692225 0.208482

loop_
_geom_bond_atom_site_label_1
_geom_bond_atom_site_label_2
_geom_bond_distance
_ccdc_geom_bond_type
C32   H12   1.110767 S    
C34   H19   1.108463 S    
C3    C8    1.438604 S    
C17   C19   1.391864 A    
O3    C2    1.294345 A    
O5    C3    1.297273 A    
C28   N1    1.378459 A    
O1    C1    1.295265 A    
C30   C38   1.512351 S    
C21   C23   1.370247 A    
C14   C16   1.407129 A    
C24   H8    1.082963 S    
C5    C15   1.375843 A    
C19   H3    1.086149 S    
O7    Zn1   2.017992 S    
C4    C7    1.438607 S    
C27   C35   1.512595 S    
C13   C14   1.398171 A    
O3    Zn1   1.999108 S    
C11   C17   1.425139 A    
C34   H20   1.112050 S    
C33   H15   1.110031 S    
C12   C18   1.425111 A    
C23   H7    1.082963 S    
O2    C2    1.295264 A    
C10   C32   1.519188 S    
O7    C4    1.298812 A    
C29   N2    1.378629 A    
C11   C13   1.427673 A    
C6    C16   1.375853 A    
C33   H16   1.112030 S    
C20   H4    1.086150 S    
C35   H21   1.083802 S    
C22   H6    1.083685 S    
O8    Zn2   2.017994 S    
C38   H31   1.109634 S    
O4    C1    1.294344 A    
C31   H9    1.110729 S    
C35   H22   1.109890 S    
C23   C25   1.397044 A    
C21   H5    1.083686 S    
C37   H27   1.083736 S    
C24   C26   1.397043 A    
C38   H32   1.109405 S    
O6    C4    1.297275 A    
C21   C26   1.397641 A    
C37   H28   1.109405 S    
C28   C36   1.512594 S    
Zn1   N1    2.038723 S    
C30   N1    1.378626 A    
C1    C26   1.421480 S    
C10   C12   1.412770 A    
C2    C25   1.421480 S    
C32   H13   1.109337 S    
C12   C14   1.427663 A    
O1    Zn1   2.001026 S    
C36   H25   1.109147 S    
C27   C30   1.432765 A    
C15   C20   1.393411 A    
C5    C7    1.388675 A    
C28   C29   1.432764 A    
C33   H17   1.108440 S    
O6    Zn2   2.016158 S    
C9    C11   1.412797 A    
C34   H18   1.110055 S    
C36   H26   1.109890 S    
C5    H1    1.085318 S    
C6    H2    1.085312 S    
C31   H11   1.109339 S    
C35   H23   1.109147 S    
C18   C20   1.391848 A    
C29   C37   1.512350 S    
C36   H24   1.083802 S    
C17   C33   1.513055 S    
Zn2   N2    2.038723 S    
C27   N2    1.378457 A    
C22   C24   1.370247 A    
C7    C9    1.410360 A    
C8    C10   1.410354 A    
C13   C15   1.407142 A    
O4    Zn2   1.999110 S    
O2    Zn2   2.001024 S    
C37   H29   1.109635 S    
O8    C3    1.298816 A    
C38   H30   1.083737 S    
C18   C34   1.513049 S    
C9    C31   1.519166 S    
O5    Zn1   2.016159 S    
C16   C19   1.393406 A    
C6    C8    1.388677 A    
C32   H14   1.109788 S    
C22   C25   1.397640 A    
C31   H10   1.109763 S    
