data_mof_unit_43185.cif
_audit_creation_date              2012-12-11T16:28:22-0500
_audit_creation_method            fapswitch 2.2
_symmetry_space_group_name_H-M    P1
_symmetry_Int_Tables_number       1
_space_group_crystal_system       triclinic
_cell_length_a                    16.597967
_cell_length_b                    7.25355
_cell_length_c                    15.195668
_cell_angle_alpha                 90.008347
_cell_angle_beta                  94.735421
_cell_angle_gamma                 89.999142
_cell_volume                      1823.2252016

loop_
_atom_site_label
_atom_site_type_symbol
_atom_type_description
_atom_site_fract_x
_atom_site_fract_y
_atom_site_fract_z
_atom_type_partial_charge
O1    O     O_R   0.663460 0.361760 0.165970 -0.533558
O2    O     O_R   0.336540 0.638240 0.834030 -0.532608
O3    O     O_R   0.836540 0.861760 0.334030 -0.531852
O4    O     O_R   0.163460 0.138240 0.665970 -0.532762
O5    O     O_R   0.827100 0.689870 0.163730 -0.532933
O6    O     O_R   0.172900 0.310130 0.836270 -0.532023
O7    O     O_R   0.672900 0.189870 0.336270 -0.531576
O8    O     O_R   0.327100 0.810130 0.663730 -0.530981
H1    H     H_    0.206862 0.117489 0.505957 0.117478
H2    H     H_    0.793085 0.883070 0.494019 0.118699
H3    H     H_    0.293529 0.621467 0.993466 0.118428
H4    H     H_    0.706450 0.378440 0.006553 0.117303
C1    C     C_R   0.853302 0.522918 0.143595 0.711162
C2    C     C_R   0.146749 0.477072 0.856465 0.706953
C3    C     C_R   0.646715 0.022936 0.356426 0.703701
C4    C     C_R   0.353284 0.977064 0.643573 0.705103
O9    O     O_R   0.663490 0.691370 0.155500 -0.537119
O10   O     O_R   0.336510 0.308630 0.844500 -0.537407
O11   O     O_R   0.836510 0.191370 0.344500 -0.535734
O12   O     O_R   0.163490 0.808630 0.655500 -0.535740
O13   O     O_R   0.671770 0.863320 0.325740 -0.535102
O14   O     O_R   0.328230 0.136680 0.674260 -0.534743
O15   O     O_R   0.828230 0.363320 0.174260 -0.535965
O16   O     O_R   0.171770 0.636680 0.825740 -0.537305
C5    C     C_R   0.636220 0.522870 0.133670 0.674962
C6    C     C_R   0.363773 0.477130 0.866337 0.676452
C7    C     C_R   0.863803 0.022902 0.366297 0.676826
C8    C     C_R   0.136228 0.977120 0.633658 0.678954
O17   O     O_3   0.752910 0.528800 0.305860 -0.372767
O18   O     O_3   0.247090 0.471200 0.694140 -0.372173
O19   O     O_3   0.747090 0.028800 0.194140 -0.374939
O20   O     O_3   0.252910 0.971200 0.805860 -0.374990
V1    V     V_3+5 0.749460 0.803010 0.239640 1.432305
V2    V     V_3+5 0.250540 0.196990 0.760360 1.427153
V3    V     V_3+5 0.750540 0.303010 0.260360 1.435112
V4    V     V_3+5 0.249460 0.696990 0.739640 1.430070
C9    C     C_1   0.468822 0.994782 0.530111 0.028027
C10   C     C_1   0.531176 0.005218 0.469886 0.027865
C11   C     C_1   0.031317 0.494674 0.970055 0.001464
C12   C     C_1   0.968951 0.505104 0.030265 0.026449
H5    H     H_    0.775710 0.751782 0.637545 0.133680
H6    H     H_    0.224175 0.250262 0.363111 0.119978
H7    H     H_    0.723346 0.242468 0.864304 0.121689
H8    H     H_    0.276626 0.757437 0.135714 0.117863
C13   C     C_R   0.023266 0.154558 0.332629 -0.142916
C14   C     C_R   0.976552 0.846914 0.667633 -0.181714
C15   C     C_R   0.477152 0.658068 0.166750 -0.148313
C16   C     C_R   0.522831 0.341920 0.833261 -0.148339
C17   C     C_R   0.099406 0.217251 0.313167 0.251288
C18   C     C_R   0.900074 0.784061 0.686909 0.249399
C19   C     C_R   0.401322 0.723546 0.185746 0.251025
C20   C     C_R   0.598656 0.276417 0.814266 0.251246
C21   C     C_R   0.164629 0.203340 0.377145 -0.155879
C22   C     C_R   0.835204 0.798144 0.622977 -0.119137
C23   C     C_R   0.336038 0.709267 0.121871 -0.158877
C24   C     C_R   0.663938 0.290658 0.878147 -0.147138
C25   C     C_R   0.153981 0.127532 0.459604 -0.170725
C26   C     C_R   0.845954 0.873060 0.540390 -0.192639
C27   C     C_R   0.346460 0.631615 0.039739 -0.175730
C28   C     C_R   0.653519 0.368314 0.960279 -0.171588
C29   C     C_R   0.077284 0.065018 0.481069 0.068675
C30   C     C_R   0.922695 0.935208 0.518922 0.071779
C31   C     C_R   0.422951 0.567157 0.018567 0.070783
C32   C     C_R   0.577032 0.432811 0.981447 0.069992
C33   C     C_R   0.010535 0.078502 0.416182 0.015910
C34   C     C_R   0.989407 0.921970 0.583883 0.032323
C35   C     C_R   0.489704 0.580435 0.083461 0.014826
C36   C     C_R   0.510281 0.419549 0.916551 0.014834
C37   C     C_R   0.066846 0.986870 0.565012 -0.150119
C38   C     C_R   0.933153 0.013234 0.434970 -0.149303
C39   C     C_R   0.433130 0.486888 0.935002 -0.151594
C40   C     C_R   0.566858 0.513104 0.065009 -0.150777
C41   C     C_1   0.416003 0.986213 0.581459 -0.184695
C42   C     C_1   0.583995 0.013787 0.418539 -0.185061
C43   C     C_1   0.084098 0.486181 0.918659 -0.199397
C44   C     C_1   0.916088 0.513713 0.081560 -0.170041
H9    H     H_    0.974538 0.165561 0.281043 0.124255
H10   H     H_    0.025447 0.837309 0.719052 0.111523
H11   H     H_    0.525751 0.668046 0.218529 0.127078
H12   H     H_    0.474235 0.331967 0.781478 0.127428
N1    N     N_3   0.109149 0.295585 0.227947 -0.669490
H13   H     H_    0.168763 0.339604 0.224149 0.226441
H14   H     H_    0.098874 0.190750 0.181131 0.223918
N2    N     N_3   0.886943 0.708279 0.771809 -0.668675
H15   H     H_    0.872232 0.569060 0.762611 0.227160
H16   H     H_    0.940278 0.712468 0.813491 0.226969
N3    N     N_3   0.391574 0.801428 0.271067 -0.666979
H17   H     H_    0.331397 0.840133 0.275869 0.225228
H18   H     H_    0.425844 0.922461 0.276523 0.223375
N4    N     N_3   0.608402 0.198560 0.728940 -0.665396
H19   H     H_    0.668578 0.159856 0.724134 0.228999
H20   H     H_    0.574129 0.077533 0.723475 0.224666

loop_
_geom_bond_atom_site_label_1
_geom_bond_atom_site_label_2
_ccdc_geom_bond_type
C26   C30   A    
N3    H17   S    
C23   C27   A    
C20   N4    S    
C8    C37   S    
O10   C6    A    
C15   H11   S    
N1    H13   S    
C18   N2    S    
C30   C38   A    
C18   C22   A    
C32   C36   A    
H2    C26   S    
N2    H16   S    
C14   C34   A    
H6    C21   S    
C22   C26   A    
C34   C37   A    
O13   V1    S    
O3    V1    S    
C2    O16   A    
C33   C38   A    
O2    V4    S    
C1    O15   A    
C35   C40   A    
O8    V4    S    
C17   N1    S    
C9    C41   T    
O4    C8    A    
O5    V1    S    
O19   V1    S    
C11   C43   T    
O11   C7    A    
O5    C1    A    
O7    C3    A    
O8    C4    A    
O1    C5    A    
C6    C39   S    
O9    V1    S    
H3    C27   S    
C15   C35   A    
N1    H14   S    
O4    V2    S    
O14   V2    S    
C31   C35   A    
C30   C34   A    
C4    C41   S    
N2    H15   S    
H1    C25   S    
C19   N3    S    
C11   C12   S    
C14   H10   S    
C21   C25   A    
C15   C19   A    
O12   C8    A    
O6    V2    S    
O20   V2    S    
C9    C10   S    
C29   C33   A    
O6    C2    A    
N4    H20   S    
C1    C44   S    
C13   C17   A    
O2    C6    A    
C5    C40   S    
O16   V4    S    
C16   C36   A    
O10   V2    S    
C7    C38   S    
H4    C28   S    
C31   C39   A    
O15   V3    S    
N3    H18   S    
C13   C33   A    
O1    V3    S    
C10   C42   T    
C29   C37   A    
C14   C18   A    
C4    O14   A    
O7    V3    S    
C25   C29   A    
O17   V3    S    
C27   C31   A    
O18   V4    S    
C28   C32   A    
O9    C5    A    
C2    C43   S    
C16   H12   S    
O3    C7    A    
O11   V3    S    
H8    C23   S    
N4    H19   S    
C3    O13   A    
C36   C39   A    
C17   C21   A    
C19   C23   A    
C32   C40   A    
H5    C22   S    
O12   V4    S    
C12   C44   T    
H7    C24   S    
C16   C20   A    
C3    C42   S    
C24   C28   A    
C13   H9    S    
C20   C24   A    
