data_mof_unit_55127.cif
_audit_creation_date              2012-12-11T17:06:37-0500
_audit_creation_method            fapswitch 2.2
_symmetry_space_group_name_H-M    P1
_symmetry_Int_Tables_number       1
_space_group_crystal_system       triclinic
_cell_length_a                    6.943285
_cell_length_b                    14.522557
_cell_length_c                    15.958902
_cell_angle_alpha                 90.479635
_cell_angle_beta                  89.96866
_cell_angle_gamma                 89.995928
_cell_volume                      1609.14731956

loop_
_atom_site_label
_atom_site_type_symbol
_atom_type_description
_atom_site_fract_x
_atom_site_fract_y
_atom_site_fract_z
_atom_type_partial_charge
O1    O     O_R   0.494400 0.415450 0.412630 -0.519139
O2    O     O_R   0.823940 0.405730 0.586760 -0.544305
O3    O     O_R   0.994240 0.584550 0.587370 -0.530532
C1    C     C_R   0.654933 0.383326 0.615169 0.711544
O4    O     O_R   0.824110 0.404430 0.413240 -0.532120
O5    O     O_R   0.994420 0.583240 0.412620 -0.527089
C2    C     C_R   0.655382 0.382521 0.384063 0.752509
O6    O     O_R   0.494230 0.416760 0.587380 -0.546652
O7    O     O_3   0.660800 0.558670 0.500000 -0.368244
V1    V     V_3+5 0.935650 0.489120 0.500000 1.510994
O8    O     O_R   0.324140 0.594270 0.413240 -0.535359
C3    C     C_R   0.154829 0.618060 0.385867 0.719651
O9    O     O_R   0.323960 0.595570 0.586760 -0.547353
C4    C     C_R   0.155103 0.616926 0.616068 0.726989
V2    V     V_3+5 0.435660 0.510880 0.500000 1.498553
O10   O     O_3   0.160640 0.441330 0.500000 -0.366996
C5    C     C_3   0.013433 0.677647 0.763954 0.385753
C6    C     C_3   0.182546 0.707175 0.821315 -0.162200
H1    H     H_    0.223007 0.674249 0.881318 0.196767
C7    C     C_3   0.122077 0.808836 0.810616 -0.088246
C8    C     C_3   0.955939 0.778661 0.753848 0.371102
C9    C     C_3   0.083677 0.787712 0.675429 -0.303135
C10   C     C_3   0.253756 0.817670 0.732895 -0.161972
C11   C     C_3   0.314297 0.715270 0.742860 -0.115500
C12   C     C_3   0.143958 0.686028 0.686364 -0.146730
H2    H     H_    0.040984 0.820543 0.615676 0.127602
H3    H     H_    0.353621 0.875722 0.720681 0.137728
H4    H     H_    0.462542 0.687316 0.737971 0.193065
C13   C     C_R   0.260735 0.744013 0.183787 0.050925
C14   C     C_R   0.117153 0.811407 0.179742 -0.173482
C15   C     C_R   0.975035 0.810983 0.242763 -0.140174
H5    H     H_    0.860449 0.861570 0.241335 0.119758
C16   C     C_R   0.989165 0.752489 0.312827 0.356606
C17   C     C_R   0.141940 0.686856 0.317700 -0.203092
C18   C     C_R   0.270452 0.682282 0.250053 -0.067107
C19   C     C_3   0.486452 0.684512 0.249564 0.174501
C20   C     C_3   0.474422 0.752255 0.176778 0.228652
H6    H     H_    0.546673 0.714952 0.307879 0.140161
H7    H     H_    0.527102 0.822414 0.193071 0.035605
C21   C     C_R   0.469742 0.292414 0.721047 -0.006834
C22   C     C_R   0.643261 0.310890 0.679613 -0.037031
C23   C     C_R   0.802733 0.254583 0.698682 -0.168295
H8    H     H_    0.937516 0.262628 0.665423 0.115552
C24   C     C_R   0.791550 0.188748 0.762905 -0.154475
H9    H     H_    0.918216 0.148244 0.776964 0.110554
C25   C     C_R   0.620868 0.177748 0.809965 -0.034708
C26   C     C_R   0.459105 0.228194 0.784827 -0.032718
C27   C     C_3   0.320260 0.286107 0.834059 0.298445
C28   C     C_3   0.332439 0.356438 0.763911 -0.365926
H10   H     H_    0.176180 0.253547 0.839915 0.098804
H11   H     H_    0.401078 0.422823 0.782214 0.230180
H12   H     H_    0.195541 0.363633 0.728581 0.145703
C29   C     C_R   0.516765 0.240378 0.315981 -0.009734
C30   C     C_R   0.647980 0.313495 0.315523 -0.153370
C31   C     C_R   0.779293 0.317107 0.248323 -0.140649
H13   H     H_    0.883433 0.372495 0.245869 0.190213
C32   C     C_R   0.768182 0.253940 0.180631 0.364965
C33   C     C_R   0.624510 0.184319 0.179362 -0.137639
C34   C     C_R   0.506084 0.177298 0.250094 -0.047776
C35   C     C_3   0.292538 0.167784 0.257414 -0.422963
C36   C     C_3   0.303360 0.237559 0.329455 0.237580
H14   H     H_    0.249920 0.097837 0.278205 0.129464
H15   H     H_    0.215561 0.192656 0.201011 0.230903
H16   H     H_    0.262213 0.209067 0.391335 0.097568
O11   O     O_R   0.771650 0.079500 0.908680 -0.541693
O12   O     O_R   0.441690 0.091800 0.082800 -0.535423
O13   O     O_R   0.271460 0.912980 0.083410 -0.544458
C37   C     C_R   0.610999 0.115559 0.110511 0.770050
O14   O     O_R   0.441930 0.090510 0.909280 -0.546527
O15   O     O_R   0.271690 0.911670 0.908660 -0.540375
C38   C     C_R   0.610908 0.112425 0.880497 0.739424
O16   O     O_R   0.771410 0.080810 0.083440 -0.533418
O17   O     O_3   0.605100 0.937580 0.996050 -0.351495
V3    V     V_3+5 0.330220 0.007110 0.996030 1.533867
O18   O     O_R   0.941980 0.900620 0.909250 -0.516317
C39   C     C_R   0.110881 0.878689 0.880373 0.729940
O19   O     O_R   0.941740 0.901920 0.082770 -0.534313
C40   C     C_R   0.110417 0.879968 0.111607 0.726376
V4    V     V_3+5 0.830220 0.985300 0.996000 1.577001
O20   O     O_3   0.105210 0.054870 0.996020 -0.361828
Cl1   Cl    Cl    0.559785 0.710130 0.077866 -0.524996
Cl2   Cl    Cl    0.417615 0.328114 0.930881 -0.492780
Cl3   Cl    Cl    0.850869 0.585731 0.785018 -0.603195
Cl4   Cl    Cl    0.922802 0.271369 0.094589 -0.565211
O21   O     O_3   0.211117 0.321591 0.312144 -0.623716
H17   H     H_    0.257872 0.344478 0.257266 0.323391
O22   O     O_3   0.767949 0.812317 0.760896 -0.631680
H18   H     H_    0.707725 0.800726 0.705514 0.275774
O23   O     O_3   0.859216 0.766856 0.377081 -0.661899
H19   H     H_    0.915716 0.744820 0.430183 0.273754
O24   O     O_3   0.571753 0.599151 0.229010 -0.590870
H20   H     H_    0.485337 0.564854 0.190198 0.353772

loop_
_geom_bond_atom_site_label_1
_geom_bond_atom_site_label_2
_ccdc_geom_bond_type
C21   C26   A    
O12   C37   A    
C31   H13   S    
C8    O22   S    
O11   V4    S    
O17   V3    S    
C18   C19   S    
C1    O6    A    
C29   C34   A    
C29   C30   A    
C35   H15   S    
C6    C11   S    
C19   C20   S    
C17   C18   A    
O16   V4    S    
O5    C3    A    
C14   C15   A    
C1    C22   S    
C21   C28   S    
O12   V3    S    
C7    C39   S    
C29   C36   S    
C35   H14   S    
C6    H1    S    
C22   C23   A    
O14   C38   A    
C25   C26   A    
O8    V2    S    
C26   C27   S    
C28   H11   S    
C9    C12   S    
O15   V3    S    
C10   C11   S    
C15   C16   A    
O1    V2    S    
C10   H3    S    
O7    V1    S    
C27   H10   S    
C34   C35   S    
V3    O20   S    
C8    C9    S    
C20   Cl1   S    
O13   C40   A    
C23   C24   A    
C24   C25   A    
C16   C17   A    
O19   V4    S    
C11   C12   S    
O24   H20   S    
O4    C2    A    
C33   C34   A    
O19   C40   A    
C5    C8    S    
C35   C36   S    
C5    Cl3   S    
C36   H16   S    
O2    C1    A    
O18   C39   A    
C13   C14   A    
C16   O23   S    
C15   H5    S    
C7    C10   S    
C37   O16   A    
C28   H12   S    
C5    C6    S    
O17   V4    S    
C32   Cl4   S    
O14   V3    S    
O13   V3    S    
C25   C38   S    
O3    C4    A    
C36   O21   S    
C19   O24   S    
C33   C37   S    
C27   C28   S    
O6    V2    S    
C31   C32   A    
O15   C39   A    
C23   H8    S    
C3    C17   S    
O2    V1    S    
C24   H9    S    
C30   C31   A    
C21   C22   A    
O1    C2    A    
C11   H4    S    
O21   H17   S    
O5    V1    S    
O8    C3    A    
C13   C18   A    
C5    C12   S    
O9    V2    S    
O7    V2    S    
O4    V1    S    
C20   H7    S    
O3    V1    S    
O11   C38   A    
C32   C33   A    
C19   H6    S    
C27   Cl2   S    
C6    C7    S    
C4    C12   S    
V4    O20   S    
C14   C40   S    
C7    C8    S    
O22   H18   S    
C9    H2    S    
C13   C20   S    
C9    C10   S    
V1    O10   S    
C2    C30   S    
O23   H19   S    
O9    C4    A    
O18   V4    S    
V2    O10   S    
