data_mof_unit_49433.cif
_audit_creation_date              2012-12-10T18:00:17-0500
_audit_creation_method            fapswitch 2.2
_symmetry_space_group_name_H-M    P1
_symmetry_Int_Tables_number       1
_space_group_crystal_system       triclinic
_cell_length_a                    10.828815
_cell_length_b                    9.626698
_cell_length_c                    10.615377
_cell_angle_alpha                 89.996458
_cell_angle_beta                  91.813143
_cell_angle_gamma                 90.030066
_cell_volume                      1106.05354262

loop_
_atom_site_label
_atom_site_type_symbol
_atom_type_description
_atom_site_fract_x
_atom_site_fract_y
_atom_site_fract_z
_atom_type_partial_charge
C1    C     C_R   0.871624 0.500024 0.499926 -0.039430
C2    C     C_R   0.128376 0.499976 0.500074 -0.039430
C3    C     C_R   0.262388 0.499980 0.499908 0.773912
C4    C     C_R   0.737612 0.500020 0.500092 0.773912
C5    C     C_R   0.500042 0.500136 0.259538 0.741759
C6    C     C_R   0.499958 0.499864 0.740462 0.741759
C7    C     C_3   0.525226 0.629016 0.041645 -0.146484
C8    C     C_3   0.474774 0.370983 0.958354 -0.146485
C9    C     C_3   0.611698 0.539633 0.961714 -0.192143
C10   C     C_3   0.388302 0.460367 0.038286 -0.192143
C11   C     C_3   0.413435 0.588547 0.955182 -0.161087
C12   C     C_3   0.586565 0.411453 0.044818 -0.161086
C13   C     C_3   0.499949 0.499326 0.877481 0.036186
C14   C     C_3   0.500050 0.500674 0.122519 0.036186
C15   C     C_R   0.404748 0.073852 0.443250 0.399100
C16   C     C_R   0.595252 0.926148 0.556750 0.399100
C17   C     C_R   0.594989 0.074313 0.557160 0.405225
C18   C     C_R   0.405011 0.925687 0.442840 0.405225
C19   C     C_R   0.063828 0.373853 0.501080 -0.184518
C20   C     C_R   0.936172 0.626147 0.498919 -0.184518
C21   C     C_R   0.936099 0.373872 0.500758 -0.184082
C22   C     C_R   0.063901 0.626128 0.499242 -0.184082
Cu1   Cu    Cu3+1 0.500000 0.640660 0.500000 0.983689
Cu2   Cu    Cu3+1 0.500000 0.359340 0.500000 0.983689
H1    H     H_    0.342620 0.661092 0.915591 0.123356
H2    H     H_    0.657380 0.338908 0.084409 0.123356
H3    H     H_    0.546288 0.734829 0.077903 0.120497
H4    H     H_    0.453711 0.265170 0.922097 0.120497
H5    H     H_    0.703836 0.570803 0.928672 0.106582
H6    H     H_    0.296164 0.429196 0.071328 0.106582
H7    H     H_    0.111557 0.275116 0.502344 0.203556
H8    H     H_    0.888443 0.724884 0.497655 0.203556
H9    H     H_    0.888313 0.275130 0.501025 0.203284
H10   H     H_    0.111686 0.724870 0.498975 0.203284
N1    N     N_R   0.500000 0.852070 0.500000 -0.286248
N2    N     N_R   0.500000 0.147930 0.500000 -0.286248
O1    O     O_R   0.319640 0.618740 0.499990 -0.536065
O2    O     O_R   0.680360 0.381260 0.500010 -0.536065
O3    O     O_R   0.680360 0.618740 0.500010 -0.536507
O4    O     O_R   0.319640 0.381260 0.499990 -0.536507
O5    O     O_R   0.499970 0.618770 0.316850 -0.583055
O6    O     O_R   0.500030 0.381230 0.683150 -0.583055
O7    O     O_R   0.500030 0.618770 0.683150 -0.583509
O8    O     O_R   0.499970 0.381230 0.316850 -0.583508
O9    O     O_3   0.300023 0.141742 0.398523 -0.541958
C23   C     C_3   0.308351 0.171738 0.268801 -0.213548
H11   H     H_    0.397982 0.143668 0.226237 0.117189
H12   H     H_    0.291716 0.284188 0.254731 0.171640
H13   H     H_    0.232292 0.118544 0.216037 0.137262
O10   O     O_3   0.699977 0.858258 0.601476 -0.541958
C24   C     C_3   0.691649 0.828261 0.731199 -0.213549
H14   H     H_    0.708284 0.715812 0.745269 0.171640
H15   H     H_    0.602018 0.856332 0.773763 0.117189
H16   H     H_    0.767708 0.881455 0.783963 0.137262
O11   O     O_3   0.698257 0.143224 0.604601 -0.540448
C25   C     C_3   0.688869 0.167494 0.735305 -0.214721
H17   H     H_    0.599887 0.134417 0.776390 0.105664
H18   H     H_    0.702593 0.279818 0.753965 0.175336
H19   H     H_    0.766041 0.114505 0.786423 0.139566
O12   O     O_3   0.301742 0.856776 0.395399 -0.540448
C26   C     C_3   0.311130 0.832506 0.264695 -0.214722
H20   H     H_    0.297407 0.720182 0.246035 0.175336
H21   H     H_    0.400113 0.865583 0.223610 0.105663
H22   H     H_    0.233958 0.885495 0.213577 0.139567

loop_
_geom_bond_atom_site_label_1
_geom_bond_atom_site_label_2
_ccdc_geom_bond_type
C2    C22   A    
C15   C18   A    
Cu2   O2    S    
O11   C25   S    
C25   H19   S    
C1    C21   A    
C8    C13   S    
C17   N2    A    
Cu1   O1    S    
C26   H22   S    
Cu2   O6    S    
C18   N1    A    
C10   H6    S    
Cu1   O5    S    
C4    O3    A    
C9    H5    S    
C8    C12   S    
C24   H16   S    
C19   H7    S    
C1    C4    S    
C26   H21   S    
O10   C24   S    
C20   C22   A    
C7    H3    S    
C22   H10   S    
O9    C23   S    
C6    C13   S    
C7    C11   S    
C11   C13   S    
C23   H13   S    
C5    C14   S    
Cu2   N2    S    
Cu1   O3    S    
C18   O12   S    
Cu2   O4    S    
C5    O8    A    
C16   O10   S    
C3    O4    A    
C2    C3    S    
Cu1   N1    S    
C6    O7    A    
C25   H18   S    
C16   N1    A    
C20   H8    S    
C26   H20   S    
Cu2   O8    S    
C9    C12   S    
C23   H12   S    
C21   H9    S    
C10   C11   S    
C11   H1    S    
Cu1   Cu2   S    
C9    C13   S    
C24   H14   S    
C15   N2    A    
Cu1   O7    S    
C25   H17   S    
C3    O1    A    
C8    H4    S    
C8    C10   S    
C10   C14   S    
C12   H2    S    
C7    C9    S    
C17   O11   S    
C23   H11   S    
C16   C17   A    
C1    C20   A    
C5    O5    A    
C19   C21   A    
C2    C19   A    
C4    O2    A    
C6    O6    A    
C7    C14   S    
C12   C14   S    
O12   C26   S    
C24   H15   S    
C15   O9    S    
