data_mof_unit_30881.cif
_audit_creation_date              2012-10-26T18:29:53-0400
_audit_creation_method            fapswitch 2.2
_symmetry_space_group_name_H-M    P1
_symmetry_Int_Tables_number       1
_space_group_crystal_system       triclinic
_cell_length_a                    10.828611
_cell_length_b                    13.039449
_cell_length_c                    11.830802
_cell_angle_alpha                 99.709413
_cell_angle_beta                  92.857614
_cell_angle_gamma                 93.587057
_cell_volume                      1640.24343125

loop_
_atom_site_label
_atom_site_type_symbol
_atom_type_description
_atom_site_fract_x
_atom_site_fract_y
_atom_site_fract_z
_atom_type_partial_charge
C1    C     C_R   0.498538 0.299252 0.478077 0.540931
C2    C     C_R   0.526373 0.030444 0.547073 0.017939
C3    C     C_R   0.467988 0.967455 0.447311 0.016484
C4    C     C_R   0.260219 0.499987 0.500038 0.537698
C5    C     C_R   0.448229 0.859439 0.442659 0.072895
C6    C     C_R   0.558863 0.876907 0.630478 -0.114408
C7    C     C_R   0.570226 0.984687 0.638524 -0.120748
C8    C     C_R   0.382276 0.401996 0.024391 -0.122238
C9    C     C_R   0.384596 0.416925 0.144892 0.237570
C10   C     C_R   0.553375 0.544514 0.154967 0.193695
C11   C     C_R   0.539906 0.542532 0.033067 0.016667
C12   C     C_3   0.877751 0.496135 0.500116 0.010586
C13   C     C_R   0.461821 0.462756 0.967154 -0.071420
C14   C     C_R   0.459713 0.448746 0.845153 0.196902
C15   C     C_R   0.590307 0.602577 0.853113 0.041370
C16   C     C_R   0.499283 0.700276 0.521316 0.602406
C17   C     C_R   0.600425 0.617013 0.973846 0.079589
C18   C     C_R   0.739416 0.497510 0.499375 0.561312
C19   C     C_3   0.069450 0.408913 0.560548 0.000643
C20   C     C_3   0.925844 0.411589 0.568945 0.009385
C21   C     C_3   0.085047 0.603335 0.564820 -0.245362
C22   C     C_3   0.061571 0.483073 0.371472 -0.000847
C23   C     C_3   0.940529 0.609813 0.556856 0.014210
C24   C     C_3   0.121817 0.498366 0.498043 0.001238
C25   C     C_2   0.903787 0.691298 0.483283 0.588161
C26   C     C_2   0.365070 0.796255 0.349656 0.578236
C27   C     C_2   0.393950 0.353046 0.779759 0.603628
C28   C     C_2   0.658674 0.610932 0.216851 0.667697
C29   C     C_2   0.900626 0.649119 0.679206 0.566690
C30   C     C_3   0.919024 0.466863 0.373733 -0.006945
C31   C     C_R   0.499587 0.813747 0.532623 0.014547
C32   C     C_R   0.495054 0.185034 0.463277 0.045198
C33   C     C_R   0.431066 0.013958 0.354091 -0.097722
C34   C     C_R   0.447203 0.121063 0.359842 0.087334
C35   C     C_R   0.538308 0.138597 0.554690 -0.149164
Cu1   Cu    Cu3+1 0.509350 0.507730 0.615930 1.013626
Cu2   Cu    Cu3+1 0.490650 0.492270 0.384070 1.031742
H1    H     H_    0.109585 0.424812 0.650551 0.200643
H2    H     H_    0.907144 0.433763 0.660683 0.170699
H3    H     H_    0.121862 0.610483 0.655599 0.134502
H4    H     H_    0.096795 0.412703 0.320376 0.170701
H5    H     H_    0.954277 0.800321 0.388326 0.352896
H6    H     H_    0.339391 0.729386 0.182844 0.331460
H7    H     H_    0.321610 0.138843 0.234034 0.217718
H8    H     H_    0.468777 0.131558 0.193629 0.245202
H9    H     H_    0.378635 0.195749 0.749607 0.336155
H10   H     H_    0.070264 0.285287 0.423195 0.271967
H11   H     H_    0.201834 0.304581 0.508561 0.255903
H12   H     H_    0.875959 0.519615 0.323200 0.199594
H13   H     H_    0.619151 0.774577 0.010406 0.229875
H14   H     H_    0.754176 0.715970 0.006918 0.246940
H15   H     H_    0.220377 0.326843 0.137773 0.194091
H16   H     H_    0.317233 0.323240 0.250906 0.285128
H17   H     H_    0.841297 0.651046 0.216054 0.342173
H18   H     H_    0.767278 0.311751 0.546334 0.223208
H19   H     H_    0.893739 0.257380 0.583747 0.259228
H20   H     H_    0.822920 0.760773 0.787291 0.317420
H21   H     H_    0.183573 0.571178 0.288193 0.297549
H22   H     H_    0.041101 0.561685 0.234647 0.230225
H23   H     H_    0.136077 0.668963 0.534549 0.216557
H24   H     H_    0.901200 0.349242 0.232887 0.225555
H25   H     H_    0.781072 0.348687 0.314753 0.274892
H26   H     H_    0.598104 0.842770 0.700292 0.149338
H27   H     H_    0.390363 0.968113 0.274747 0.157338
H28   H     H_    0.615493 0.032084 0.715250 0.133520
H29   H     H_    0.581574 0.186688 0.631912 0.156916
H30   H     H_    0.635163 0.659592 0.809354 0.144785
H31   H     H_    0.311738 0.347246 0.975974 0.135972
N1    N     N_R   0.523430 0.519360 0.790130 -0.272170
N2    N     N_R   0.476570 0.480640 0.209880 -0.255214
N3    N     N_3   0.414212 0.163203 0.259437 -0.627634
N4    N     N_3   0.105409 0.305125 0.508345 -0.588121
N5    N     N_3   0.663781 0.711833 0.033967 -0.578803
N6    N     N_3   0.283538 0.372382 0.198536 -0.613417
N7    N     N_3   0.861133 0.307865 0.530905 -0.569107
N8    N     N_3   0.092856 0.572037 0.313278 -0.557071
N9    N     N_3   0.877536 0.359582 0.318545 -0.606095
O1    O     O_R   0.506640 0.354460 0.582000 -0.500295
O2    O     O_R   0.992362 0.749376 0.433430 -0.652032
O3    O     O_2   0.262811 0.763193 0.372049 -0.502771
O4    O     O_R   0.403791 0.774459 0.237702 -0.672788
O5    O     O_2   0.300366 0.357873 0.720127 -0.530388
O6    O     O_R   0.433939 0.256057 0.794563 -0.729977
O7    O     O_2   0.641509 0.692553 0.279144 -0.413972
O8    O     O_R   0.777635 0.592224 0.181849 -0.735316
O9    O     O_2   0.927938 0.603900 0.758485 -0.559301
O10   O     O_R   0.837901 0.740417 0.702818 -0.665002
O11   O     O_R   0.490840 0.341410 0.386200 -0.489458
O12   O     O_R   0.325590 0.506510 0.597900 -0.480608
O13   O     O_R   0.309790 0.493450 0.402100 -0.501667
O14   O     O_R   0.509160 0.658590 0.613800 -0.523960
O15   O     O_R   0.493360 0.645540 0.418000 -0.435169
O16   O     O_R   0.690210 0.506550 0.597900 -0.497028
O17   O     O_R   0.674410 0.493490 0.402100 -0.510757
O18   O     O_2   0.794713 0.708511 0.470944 -0.459552

loop_
_geom_bond_atom_site_label_1
_geom_bond_atom_site_label_2
_ccdc_geom_bond_type
Cu1   O12   S    
C2    C35   A    
C8    C13   A    
C5    C26   S    
C28   O7    D    
H25   N9    S    
C19   C20   S    
C22   N8    S    
H21   N8    S    
C16   C31   S    
C12   C23   S    
Cu2   O13   S    
C23   C29   S    
Cu1   Cu2   S    
H15   N6    S    
C4    C24   S    
C22   H4    S    
H8    N3    S    
C3    C33   A    
H7    N3    S    
Cu2   O11   S    
C2    C7    A    
C30   N9    S    
Cu1   O16   S    
H16   N6    S    
H24   N9    S    
C8    C9    A    
C14   C27   S    
H18   N7    S    
C1    O11   A    
C6    C31   A    
H5    O2    S    
H19   N7    S    
Cu2   N2    S    
C17   N5    S    
C1    O1    A    
C19   N4    S    
H11   N4    S    
C4    O13   A    
C15   N1    A    
C32   C35   A    
C9    N2    A    
C21   H23   S    
H13   N5    S    
C20   H2    S    
C35   H29   S    
C1    C32   S    
C26   O3    D    
H20   O10   S    
C20   N7    S    
C32   C34   A    
C6    H26   S    
C19   H1    S    
C7    H28   S    
C15   H30   S    
C12   C20   S    
C33   C34   A    
C29   O9    D    
C10   N2    A    
Cu1   O14   S    
C30   H12   S    
C25   O18   D    
C26   O4    S    
C21   C23   S    
H6    O4    S    
C14   N1    A    
C22   C24   S    
C16   O15   A    
C9    N6    S    
Cu1   N1    S    
C4    O12   A    
C10   C28   S    
C15   C17   A    
C11   C17   A    
C22   C30   S    
Cu2   O15   S    
C12   C30   S    
C25   O2    S    
C27   O5    D    
H14   N5    S    
C3    C5    A    
H17   O8    S    
C8    H31   S    
C6    C7    A    
C27   O6    S    
C2    C3    A    
Cu1   O1    S    
C11   C13   A    
C21   H3    S    
C33   H27   S    
C18   O17   A    
H22   N8    S    
Cu2   O17   S    
C19   C24   S    
C23   C25   S    
H10   N4    S    
C29   O10   S    
C10   C11   A    
H9    O6    S    
C16   O14   A    
C21   C24   S    
C12   C18   S    
C28   O8    S    
C18   O16   A    
C13   C14   A    
C34   N3    S    
C5    C31   A    
