data_mof_unit_15189.cif
_audit_creation_date              2012-12-10T19:07:05-0500
_audit_creation_method            fapswitch 2.2
_symmetry_space_group_name_H-M    P1
_symmetry_Int_Tables_number       1
_space_group_crystal_system       triclinic
_cell_length_a                    27.741399
_cell_length_b                    10.882478
_cell_length_c                    9.611247
_cell_angle_alpha                 90.947906
_cell_angle_beta                  90.076799
_cell_angle_gamma                 91.839836
_cell_volume                      2899.69120148

loop_
_atom_site_label
_atom_site_type_symbol
_atom_type_description
_atom_site_fract_x
_atom_site_fract_y
_atom_site_fract_z
_atom_type_partial_charge
C1    C     C_R   0.501577 0.262955 0.498576 0.796105
C2    C     C_R   0.278408 0.397463 0.445629 -0.147249
C3    C     C_R   0.253529 0.494028 0.506258 0.194828
C4    C     C_R   0.101262 0.477743 0.491135 -0.043059
C5    C     C_R   0.126114 0.403082 0.583176 -0.022999
C6    C     C_R   0.100024 0.330162 0.676700 -0.211492
C7    C     C_R   0.127602 0.562195 0.409110 -0.029918
C8    C     C_R   0.354742 0.501172 0.501074 -0.146508
C9    C     C_R   0.645295 0.485253 0.495415 -0.101612
C10   C     C_R   0.973434 0.370380 0.548366 0.072909
C11   C     C_R   0.974821 0.531817 0.371425 0.036057
C12   C     C_R   0.407720 0.500256 0.500093 0.845102
C13   C     C_R   0.948843 0.449524 0.459336 0.048948
C14   C     C_R   0.947243 0.268860 0.602094 -0.188993
C15   C     C_R   0.896969 0.258896 0.594174 -0.005811
C16   C     C_R   0.871303 0.354644 0.532338 -0.057272
C17   C     C_R   0.897667 0.444535 0.456595 -0.061530
C18   C     C_R   0.872907 0.529876 0.377663 -0.013964
C19   C     C_R   0.822738 0.535573 0.389428 0.565776
C20   C     C_R   0.820638 0.365087 0.542439 0.640751
C21   C     C_R   0.723731 0.488435 0.611437 0.489745
C22   C     C_R   0.673163 0.495746 0.617042 -0.309836
C23   C     C_R   0.500415 0.737517 0.500943 0.784959
C24   C     C_R   0.668177 0.461068 0.368045 -0.160270
C25   C     C_R   0.717863 0.448723 0.362328 -0.168555
C26   C     C_R   0.746064 0.463755 0.482824 0.296776
C27   C     C_R   0.023958 0.387450 0.570075 0.035334
C28   C     C_R   0.050148 0.469320 0.482315 0.040435
C29   C     C_R   0.025744 0.545853 0.388593 0.063082
C30   C     C_R   0.049643 0.329429 0.678916 -0.030128
C31   C     C_R   0.102934 0.645999 0.329495 -0.127002
C32   C     C_R   0.948161 0.593961 0.268053 -0.037189
C33   C     C_R   0.898303 0.602431 0.282189 -0.200432
C34   C     C_R   0.592450 0.496615 0.499510 0.817823
C35   C     C_R   0.052892 0.641242 0.324464 -0.124643
C36   C     C_R   0.479686 0.065823 0.603283 0.014028
C37   C     C_R   0.501698 0.129613 0.494262 -0.159576
C38   C     C_R   0.520755 0.061989 0.380288 -0.029156
C39   C     C_R   0.518797 0.933280 0.384236 -0.137782
C40   C     C_R   0.500310 0.871047 0.500202 -0.120259
C41   C     C_R   0.479447 0.938821 0.607462 -0.037503
C42   C     C_3   0.489513 0.939962 0.760675 -0.290773
C43   C     C_3   0.487467 0.079587 0.757332 0.286438
C44   C     C_R   0.537816 0.551252 0.075133 0.259477
C45   C     C_R   0.176795 0.409730 0.586372 0.558155
C46   C     C_R   0.464331 0.439862 0.072635 -0.045532
C47   C     C_R   0.464094 0.440889 0.924675 0.497401
C48   C     C_R   0.538556 0.548841 0.927704 0.116215
C49   C     C_3   0.556156 0.679690 0.925314 -0.304319
C50   C     C_3   0.553899 0.682555 0.083843 0.184889
C51   C     C_R   0.178166 0.564550 0.413645 0.540989
C52   C     C_R   0.278948 0.595809 0.567203 -0.007093
C53   C     C_R   0.330195 0.598524 0.566902 -0.136351
C54   C     C_R   0.328859 0.399892 0.442626 0.415658
Cu1   Cu    Cu3+1 0.500000 0.499980 0.640670 0.972384
Cu2   Cu    Cu3+1 0.500000 0.500020 0.359330 0.973207
H1    H     H_    0.122158 0.717800 0.273383 0.192364
H2    H     H_    0.647665 0.450301 0.272406 0.200669
H3    H     H_    0.878765 0.657417 0.209273 0.186622
H4    H     H_    0.734683 0.428574 0.263276 0.183011
H5    H     H_    0.036093 0.715578 0.272099 0.144020
H6    H     H_    0.535210 0.881712 0.300981 0.174964
H7    H     H_    0.258063 0.320151 0.400186 0.157077
H8    H     H_    0.526227 0.908584 0.783282 0.145557
H9    H     H_    0.456139 0.120386 0.810685 0.183502
H10   H     H_    0.528653 0.736022 0.878324 0.091521
H11   H     H_    0.525552 0.742638 0.125900 0.114651
H12   H     H_    0.118969 0.281178 0.756331 0.187012
H13   H     H_    0.655690 0.509932 0.715812 0.198876
H14   H     H_    0.966016 0.192383 0.644647 0.123494
N1    N     N_R   0.201686 0.489007 0.501583 -0.471875
N2    N     N_R   0.797698 0.455410 0.472822 -0.458998
N3    N     N_R   0.500300 0.500930 0.147930 -0.299295
N4    N     N_R   0.500310 0.500890 0.852020 -0.262786
O1    O     O_R   0.500000 0.319640 0.618810 -0.564743
O2    O     O_2   0.794520 0.288496 0.623840 -0.460358
O3    O     O_2   0.203677 0.641626 0.330939 -0.502651
O4    O     O_2   0.799179 0.622046 0.319570 -0.506284
O5    O     O_R   0.500010 0.319680 0.381230 -0.631545
O6    O     O_R   0.430260 0.500000 0.618780 -0.573966
O7    O     O_R   0.430270 0.500040 0.381190 -0.573107
O8    O     O_R   0.499990 0.680320 0.618770 -0.615765
O9    O     O_R   0.500000 0.680360 0.381190 -0.572609
O10   O     O_R   0.569730 0.499960 0.618810 -0.579937
O11   O     O_R   0.569740 0.500000 0.381220 -0.558405
O12   O     O_2   0.201025 0.338515 0.674377 -0.502862
O13   O     O_3   0.353690 0.302240 0.388064 -0.722257
H15   H     H_    0.330288 0.238561 0.352135 0.349980
C55   C     C_2   0.250801 0.698198 0.626502 0.543100
H16   H     H_    0.216119 0.678768 0.674879 0.047389
O14   O     O_2   0.264628 0.805214 0.615383 -0.477425
C56   C     C_2   0.968115 0.632521 0.131873 0.371672
H17   H     H_    0.952288 0.707707 0.076848 0.071945
O15   O     O_2   0.000286 0.575890 0.075855 -0.482809
C57   C     C_2   0.547266 0.121183 0.263473 0.391230
H18   H     H_    0.564470 0.211478 0.276409 0.089346
O16   O     O_2   0.551090 0.068069 0.151248 -0.521156
C58   C     C_2   0.450035 0.875965 0.842164 0.430398
H19   H     H_    0.441868 0.779183 0.822115 0.107315
O17   O     O_2   0.428086 0.929688 0.933524 -0.482393
O18   O     O_3   0.531531 0.139376 0.795050 -0.675587
H20   H     H_    0.557698 0.105770 0.736636 0.332299
C59   C     C_2   0.425754 0.367545 0.142579 0.574673
H21   H     H_    0.433927 0.308559 0.227832 0.117851
O19   O     O_2   0.383862 0.372505 0.104394 -0.464237
O20   O     O_3   0.426238 0.380641 0.857372 -0.668386
H22   H     H_    0.439193 0.337914 0.775664 0.358880
C60   C     C_2   0.605128 0.696963 0.859436 0.495715
H23   H     H_    0.608251 0.745924 0.762277 0.046267
O21   O     O_2   0.641129 0.654709 0.911122 -0.511203
O22   O     O_3   0.598485 0.696859 0.151866 -0.648867
H24   H     H_    0.605676 0.786720 0.156454 0.345558
O23   O     O_3   0.751969 0.506380 0.728880 -0.682738
H25   H     H_    0.730822 0.523089 0.809663 0.353890
C61   C     C_2   0.874237 0.142688 0.643988 0.474306
H26   H     H_    0.888497 0.099418 0.735619 0.061997
O24   O     O_2   0.842051 0.089506 0.577745 -0.477820
C62   C     C_2   0.027066 0.284879 0.809427 0.375996
H27   H     H_    0.043230 0.211183 0.866178 0.067720
O25   O     O_2   0.992183 0.335034 0.859402 -0.485379
C63   C     C_2   0.358753 0.699956 0.636559 0.518679
H28   H     H_    0.392605 0.732502 0.591796 0.010879
O26   O     O_2   0.345934 0.744038 0.747589 -0.475650

loop_
_geom_bond_atom_site_label_1
_geom_bond_atom_site_label_2
_ccdc_geom_bond_type
C10   C27   A    
Cu1   Cu2   S    
C40   C41   A    
O18   H20   S    
C23   O8    A    
C45   N1    A    
C26   N2    S    
C41   C42   S    
O22   H24   S    
C21   C26   A    
C43   O18   S    
C19   N2    A    
Cu2   O7    S    
C2    H7    S    
C28   C29   A    
Cu2   O5    S    
C23   O9    A    
C5    C6    A    
C16   C20   A    
C42   C58   S    
C54   O13   S    
C9    C22   A    
O20   H22   S    
C61   H26   S    
C34   O10   A    
C60   H23   S    
C20   O2    S    
C18   C19   A    
C62   H27   S    
C56   H17   S    
Cu1   N4    S    
C57   H18   S    
C16   C17   A    
C61   O24   D    
C38   C57   S    
C25   H4    S    
C55   O14   D    
C50   H11   S    
C22   H13   S    
C43   H9    S    
Cu1   O1    S    
C6    H12   S    
C33   H3    S    
C21   C22   A    
C27   C30   A    
C14   H14   S    
C36   C41   A    
C51   N1    A    
C4    C7    A    
C4    C28   A    
C49   C60   S    
C38   C39   A    
C7    C31   A    
C49   H10   S    
C1    O1    A    
C48   N4    A    
C24   C25   A    
C35   H5    S    
C10   C14   A    
C8    C54   A    
C39   C40   A    
C30   C62   S    
C25   C26   A    
C5    C45   A    
C34   O11   A    
C19   O4    S    
C3    N1    S    
C51   O3    S    
C37   C38   A    
C8    C12   S    
C47   O20   S    
C56   O15   D    
C17   C18   A    
C59   O19   D    
Cu1   O8    S    
C63   H28   S    
C21   O23   S    
C48   C49   S    
C6    C30   A    
C11   C32   A    
C58   H19   S    
C58   O17   D    
C2    C54   A    
C9    C34   S    
C1    O5    A    
C31   C35   A    
C42   C43   S    
C42   H8    S    
C59   H21   S    
C52   C53   A    
Cu2   O9    S    
O23   H25   S    
C44   C50   S    
C39   H6    S    
C46   C47   A    
C36   C37   A    
C52   C55   S    
Cu2   N3    S    
C47   N4    A    
C4    C5    A    
C10   C13   A    
C8    C53   A    
C3    C52   A    
C57   O16   D    
C9    C24   A    
C1    C37   S    
C46   C59   S    
C29   C35   A    
C13   C17   A    
C32   C33   A    
C31   H1    S    
C2    C3    A    
Cu1   O10   S    
C7    C51   A    
C53   C63   S    
Cu1   O6    S    
C11   C13   A    
Cu2   O11   S    
C32   C56   S    
C15   C16   A    
C12   O6    A    
C50   O22   S    
C60   O21   D    
C12   O7    A    
C45   O12   S    
C15   C61   S    
C44   N3    A    
C18   C33   A    
C62   O25   D    
C63   O26   D    
C44   C48   A    
C11   C29   A    
O13   H15   S    
C24   H2    S    
C49   C50   S    
C27   C28   A    
C14   C15   A    
C20   N2    A    
C36   C43   S    
C55   H16   S    
C46   N3    A    
C23   C40   S    
