data_mof_unit_8563.cif
_audit_creation_date              2012-12-10T19:08:05-0500
_audit_creation_method            fapswitch 2.2
_symmetry_space_group_name_H-M    P1
_symmetry_Int_Tables_number       1
_space_group_crystal_system       triclinic
_cell_length_a                    9.074602
_cell_length_b                    10.82368
_cell_length_c                    9.554848
_cell_angle_alpha                 89.928165
_cell_angle_beta                  89.665386
_cell_angle_gamma                 90.180814
_cell_volume                      938.461353546

loop_
_atom_site_label
_atom_site_type_symbol
_atom_type_description
_atom_site_fract_x
_atom_site_fract_y
_atom_site_fract_z
_atom_type_partial_charge
C1    C     C_R   0.502511 0.262324 0.500023 0.790434
C2    C     C_R   0.536898 0.935838 0.373377 -0.229671
C3    C     C_R   0.516783 0.870774 0.499558 -0.092683
C4    C     C_R   0.517137 0.936145 0.625337 0.122058
C5    C     C_3   0.413241 0.929113 0.746948 -0.465664
C6    C     C_3   0.413889 0.069348 0.747456 -0.485240
C7    C     C_R   0.552653 0.599523 0.072586 0.179629
C8    C     C_R   0.434811 0.407330 0.074892 -0.070481
C9    C     C_R   0.434875 0.407304 0.926121 -0.063092
C10   C     C_R   0.549422 0.600719 0.925568 0.183016
C11   C     C_3   0.697664 0.658858 0.914395 -0.540926
C12   C     C_R   0.220699 0.500067 0.500252 0.843256
C13   C     C_3   0.704757 0.653808 0.073650 0.255012
C14   C     C_R   0.502555 0.737647 0.499861 0.785767
C15   C     C_R   0.779297 0.500170 0.499793 0.846953
C16   C     C_1   0.065546 0.500194 0.500507 -0.208759
C17   C     C_1   0.934431 0.500217 0.499813 -0.186897
C18   C     C_R   0.517373 0.063337 0.625504 0.136520
C19   C     C_R   0.516888 0.129207 0.499803 -0.093549
C20   C     C_R   0.536987 0.064643 0.373497 -0.220389
Cu1   Cu    Cu3+1 0.499990 0.499980 0.640670 0.944061
Cu2   Cu    Cu3+1 0.500010 0.500020 0.359330 0.959451
N1    N     N_R   0.500920 0.500930 0.147930 -0.165199
N2    N     N_R   0.500930 0.500890 0.852020 -0.165429
O1    O     O_R   0.500000 0.319640 0.618810 -0.584513
O2    O     O_R   0.500020 0.319680 0.381230 -0.590318
O3    O     O_R   0.288380 0.499980 0.618770 -0.578144
O4    O     O_R   0.288400 0.500020 0.381190 -0.589582
O5    O     O_R   0.499980 0.680320 0.618770 -0.577786
O6    O     O_R   0.500000 0.680360 0.381190 -0.599785
O7    O     O_R   0.711600 0.499980 0.618810 -0.583850
O8    O     O_R   0.711620 0.500020 0.381230 -0.522608
H1    H     H_    0.545629 0.112927 0.274402 0.164327
H2    H     H_    0.692184 0.754668 0.872938 0.147232
O9    O     O_3   0.810319 0.567296 0.119202 -0.520409
C21   C     C_3   0.949735 0.625178 0.128662 0.078745
H3    H     H_    0.960520 0.669540 0.233030 0.146498
H4    H     H_    0.968443 0.696570 0.045934 0.121944
C22   C     C_3   0.069352 0.528244 0.111848 -0.749285
H5    H     H_    0.062798 0.485779 0.006294 0.233673
H6    H     H_    0.179197 0.572306 0.123645 0.208953
H7    H     H_    0.055840 0.454855 0.192183 0.258775
H8    H     H_    0.708301 0.745431 0.126769 0.045662
H9    H     H_    0.545301 0.887956 0.274227 0.151769
H10   H     H_    0.304697 0.888474 0.718745 0.197364
H11   H     H_    0.465465 0.888433 0.841199 0.188465
H12   H     H_    0.305614 0.110417 0.720066 0.194262
H13   H     H_    0.467237 0.109045 0.841750 0.193048
H14   H     H_    0.383650 0.331419 0.130738 0.135059
H15   H     H_    0.383715 0.331478 0.871064 0.132442
H16   H     H_    0.779524 0.598704 0.860972 0.239885

loop_
_geom_bond_atom_site_label_1
_geom_bond_atom_site_label_2
_ccdc_geom_bond_type
Cu1   O5    S    
C7    C10   A    
C9    N2    A    
C15   O7    A    
Cu1   O7    S    
C5    H11   S    
C19   C20   A    
C7    C13   S    
C4    C18   A    
C21   H4    S    
C2    C3    A    
Cu1   O3    S    
C15   O8    A    
C22   H6    S    
Cu2   O4    S    
Cu1   Cu2   S    
C1    O1    A    
C11   C13   S    
C6    H13   S    
C3    C14   S    
Cu2   O8    S    
C12   O4    A    
C7    N1    A    
C20   H1    S    
C21   H3    S    
C14   O6    A    
C13   O9    S    
C22   H7    S    
C21   C22   S    
C12   O3    A    
C5    C6    S    
C6    C18   S    
C1    O2    A    
C1    C19   S    
C10   C11   S    
C14   O5    A    
C2    C20   A    
C3    C4    A    
C6    H12   S    
C13   H8    S    
C8    N1    A    
C11   H16   S    
C18   C19   A    
Cu2   O2    S    
Cu1   N2    S    
C22   H5    S    
C15   C17   S    
Cu1   O1    S    
Cu2   N1    S    
C8    C9    A    
Cu2   O6    S    
C10   N2    A    
C5    H10   S    
C8    H14   S    
C11   H2    S    
C9    H15   S    
C12   C16   S    
C16   C17   T    
C2    H9    S    
C4    C5    S    
O9    C21   S    
