data_mof_unit_8128.cif
_audit_creation_date              2012-12-10T20:49:08-0500
_audit_creation_method            fapswitch 2.2
_symmetry_space_group_name_H-M    P1
_symmetry_Int_Tables_number       1
_space_group_crystal_system       triclinic
_cell_length_a                    8.918437
_cell_length_b                    8.123662
_cell_length_c                    10.538436
_cell_angle_alpha                 90.342881
_cell_angle_beta                  89.992047
_cell_angle_gamma                 89.94934
_cell_volume                      763.499585562

loop_
_atom_site_label
_atom_site_type_symbol
_atom_type_description
_atom_site_fract_x
_atom_site_fract_y
_atom_site_fract_z
_atom_type_partial_charge
C1    C     C_R   0.218086 0.500042 0.499978 0.946174
C2    C     C_3   0.626162 0.567265 0.040967 0.516027
C3    C     C_3   0.499421 0.501778 0.877511 -0.176226
C4    C     C_3   0.500478 0.498248 0.122464 -0.177906
C5    C     C_1   0.065239 0.500056 0.500317 -0.114058
C6    C     C_1   0.934766 0.499929 0.500535 -0.097840
C7    C     C_R   0.781914 0.499957 0.500370 0.972154
C8    C     C_R   0.500427 0.499427 0.256848 0.952493
C9    C     C_R   0.499567 0.500577 0.743142 0.961657
C10   C     C_3   0.381355 0.587305 0.043504 -0.272979
C11   C     C_3   0.618485 0.412708 0.956474 -0.221441
C12   C     C_3   0.509193 0.657656 0.960133 -0.241290
C13   C     C_3   0.490663 0.342385 0.039826 -0.280366
C14   C     C_3   0.373710 0.432786 0.958963 0.439549
H1    H     H_    0.284052 0.656219 0.082684 0.201313
H2    H     H_    0.715750 0.343696 0.917332 0.222960
H3    H     H_    0.518309 0.785720 0.924725 0.206381
H4    H     H_    0.481536 0.214321 0.075232 0.198711
H5    H     H_    0.158032 0.219632 0.077887 0.347555
H6    H     H_    0.985874 0.567443 0.205755 0.373325
N1    N     N_1   0.500000 0.073640 0.500000 -0.005977
N2    N     N_1   0.500000 0.926360 0.500000 -0.005459
O1    O     O_R   0.285350 0.636850 0.500000 -0.622460
O2    O     O_2   0.237969 0.194017 0.822729 -0.277060
O3    O     O_3   0.094319 0.291349 0.024597 -0.476039
O4    O     O_2   0.892316 0.703300 0.986909 -0.241452
O5    O     O_2   0.761786 0.805416 0.176896 -0.289025
O6    O     O_3   0.887570 0.516303 0.186659 -0.546354
O7    O     O_R   0.714650 0.363150 0.500000 -0.614236
O8    O     O_R   0.714650 0.636850 0.500000 -0.602437
O9    O     O_R   0.285350 0.363150 0.500000 -0.602410
O10   O     O_R   0.499970 0.636850 0.313950 -0.602086
O11   O     O_R   0.500030 0.363150 0.686050 -0.597517
O12   O     O_R   0.500030 0.636850 0.686050 -0.622571
O13   O     O_R   0.499970 0.363150 0.313950 -0.628512
O14   O     O_2   0.122530 0.468002 0.821514 -0.259941
S1    S     S_3+6 0.203709 0.344157 0.901538 0.060816
S2    S     S_3+6 0.796389 0.655476 0.097968 0.054801
Zn1   Zn    Zn3+2 0.500000 0.682780 0.500000 1.060110
Zn2   Zn    Zn3+2 0.500000 0.317220 0.500000 1.061616

loop_
_geom_bond_atom_site_label_1
_geom_bond_atom_site_label_2
_ccdc_geom_bond_type
C12   H3    S    
C2    C4    S    
C6    C7    S    
C7    O7    A    
C11   H2    S    
C2    S2    S    
O6    S2    S    
C4    C8    S    
C2    C12   S    
O2    S1    D    
C7    O8    A    
C13   C14   S    
C14   S1    S    
C9    O11   A    
C11   C13   S    
C5    C6    T    
C3    C14   S    
C10   C12   S    
C13   H4    S    
C3    C9    S    
N2    Zn1   S    
O7    Zn2   S    
O14   S1    D    
O8    Zn1   S    
C1    O1    A    
C10   H1    S    
C9    O12   A    
H5    O3    S    
C1    C5    S    
O11   Zn2   S    
C3    C11   S    
C2    C11   S    
O5    S2    D    
O13   Zn2   S    
O12   Zn1   S    
C8    O10   A    
C1    O9    A    
O9    Zn2   S    
C10   C14   S    
O10   Zn1   S    
C4    C13   S    
O4    S2    D    
C3    C12   S    
H6    O6    S    
O3    S1    S    
N1    N2    T    
C4    C10   S    
O1    Zn1   S    
C8    O13   A    
N1    Zn2   S    
