data_mof_unit_6867.cif
_audit_creation_date              2012-12-11T14:01:08-0500
_audit_creation_method            fapswitch 2.2
_symmetry_space_group_name_H-M    P1
_symmetry_Int_Tables_number       1
_space_group_crystal_system       triclinic
_cell_length_a                    18.858283
_cell_length_b                    10.976789
_cell_length_c                    18.72864
_cell_angle_alpha                 90.202099
_cell_angle_beta                  90.609191
_cell_angle_gamma                 90.316358
_cell_volume                      3876.58887628

loop_
_atom_site_label
_atom_site_type_symbol
_atom_type_description
_atom_site_fract_x
_atom_site_fract_y
_atom_site_fract_z
_atom_type_partial_charge
Br1   Br    Br    0.152628 0.839400 0.550370 -0.522283
Br2   Br    Br    0.844485 0.845208 0.451026 -0.504573
Br3   Br    Br    0.652625 0.339394 0.550377 -0.522144
Br4   Br    Br    0.344487 0.345206 0.451022 -0.504346
C1    C     C_R   0.288902 0.001991 0.861682 0.550158
C2    C     C_R   0.987094 0.666918 0.969134 -0.128856
C3    C     C_R   0.476168 0.160630 0.039982 -0.130065
C4    C     C_R   0.492395 0.167050 0.967834 -0.127831
C5    C     C_2   0.264032 0.635026 0.932168 -0.110361
C6    C     C_2   0.757922 0.560320 0.088045 -0.110127
C7    C     C_2   0.741771 0.061699 0.912162 -0.109992
C8    C     C_2   0.258176 0.059634 0.088316 -0.111610
C9    C     C_2   0.256009 0.607495 0.085778 -0.106653
C10   C     C_2   0.771455 0.535990 0.934517 -0.101909
C11   C     C_2   0.730054 0.038602 0.065930 -0.101151
C12   C     C_R   0.712054 0.004118 0.138299 0.564702
C13   C     C_2   0.272073 0.034675 0.934762 -0.101309
C14   C     C_2   0.308486 0.560746 0.046733 -0.157834
C15   C     C_2   0.724344 0.472233 0.972880 -0.168982
C16   C     C_2   0.775616 0.973467 0.026741 -0.167569
C17   C     C_2   0.224776 0.971205 0.973078 -0.175539
C18   C     C_2   0.319448 0.601602 0.973055 -0.163683
C19   C     C_2   0.707990 0.508703 0.046363 -0.158849
C20   C     C_2   0.791556 0.009401 0.953161 -0.157812
C21   C     C_2   0.208391 0.007643 0.046600 -0.163387
C22   C     C_2   0.517659 0.836115 0.587640 -0.102271
C23   C     C_R   0.788698 0.502475 0.861709 0.566080
C24   C     C_2   0.548973 0.831162 0.434827 -0.100552
C25   C     C_2   0.017655 0.336114 0.587637 -0.100499
C26   C     C_2   0.048972 0.331161 0.434827 -0.099531
C27   C     C_2   0.560283 0.736580 0.478155 -0.166456
C28   C     C_2   0.538995 0.736009 0.552850 -0.147628
C29   C     C_2   0.060284 0.236580 0.478155 -0.166230
C30   C     C_2   0.038993 0.236008 0.552848 -0.147180
C31   C     C_2   0.274660 0.678405 0.561946 -0.077502
C32   C     C_2   0.730179 0.667058 0.437580 -0.085930
C33   C     C_2   0.774648 0.178373 0.561949 -0.076107
C34   C     C_R   0.228706 0.545757 0.148324 0.557126
C35   C     C_2   0.230182 0.167051 0.437579 -0.085658
C36   C     C_2   0.259596 0.618178 0.409703 -0.119656
C37   C     C_2   0.741116 0.616725 0.590380 -0.124581
C38   C     C_2   0.759590 0.118172 0.409705 -0.119147
C39   C     C_2   0.241121 0.116718 0.590376 -0.123797
C40   C     C_R   0.472775 0.823013 0.852449 0.527583
C41   C     C_R   0.528741 0.821445 0.146396 0.542990
C42   C     C_R   0.972688 0.323149 0.852492 0.537220
C43   C     C_R   0.028778 0.321351 0.146408 0.550581
C44   C     C_2   0.219521 0.700840 0.442757 -0.121984
C45   C     C_R   0.477107 0.048616 0.074813 -0.094547
C46   C     C_2   0.782878 0.696377 0.556756 -0.116814
C47   C     C_2   0.719505 0.200813 0.442766 -0.122186
C48   C     C_2   0.282888 0.196361 0.556749 -0.115907
C49   C     C_2   0.227138 0.733515 0.518260 0.123530
C50   C     C_2   0.774498 0.729066 0.481873 0.126663
C51   C     C_2   0.727127 0.233489 0.518266 0.123944
C52   C     C_2   0.274503 0.229057 0.481869 0.127306
C53   C     C_R   0.272979 0.679126 0.859858 0.542918
C54   C     C_R   0.740100 0.632493 0.150356 0.555883
C55   C     C_R   0.759778 0.132916 0.849627 0.553061
C56   C     C_R   0.505178 0.060672 0.929262 -0.087104
C57   C     C_R   0.240159 0.132301 0.150435 0.564546
C58   C     C_R   0.270151 0.050766 0.650756 0.578693
C59   C     C_R   0.729854 0.050848 0.349434 0.568305
C60   C     C_R   0.770150 0.550770 0.650759 0.576320
C61   C     C_R   0.229850 0.550837 0.349444 0.557187
C62   C     C_R   0.472980 0.824074 0.649814 0.548934
C63   C     C_R   0.563561 0.820062 0.359521 0.549991
C64   C     C_R   0.972977 0.324073 0.649811 0.549541
C65   C     C_R   0.063561 0.320062 0.359521 0.548992
C66   C     C_R   0.275966 0.694550 0.639101 0.597317
C67   C     C_R   0.974113 0.546718 0.075726 -0.091645
C68   C     C_R   0.725139 0.691680 0.361731 0.566857
C69   C     C_R   0.775964 0.194540 0.639100 0.594513
C70   C     C_R   0.225139 0.191678 0.361731 0.565718
C71   C     C_R   0.503892 0.827685 0.072517 0.001474
C72   C     C_R   0.504657 0.834182 0.923532 -0.000648
C73   C     C_R   0.004113 0.327253 0.072517 0.002949
C74   C     C_R   0.004405 0.334945 0.923594 0.001280
C75   C     C_R   0.493965 0.940562 0.037473 0.017728
C76   C     C_R   0.501616 0.945333 0.962547 0.020538
C77   C     C_R   0.992461 0.439906 0.037906 0.021297
C78   C     C_R   0.001648 0.561637 0.930182 -0.079104
C79   C     C_R   0.999872 0.445714 0.962990 0.023492
C80   C     C_R   0.514951 0.724580 0.959474 -0.160646
C81   C     C_R   0.512590 0.720837 0.032325 -0.154665
C82   C     C_R   0.016208 0.225483 0.959145 -0.149865
C83   C     C_R   0.014364 0.221143 0.031996 -0.146956
C84   C     C_R   0.971150 0.658966 0.041286 -0.132732
Cr1   Cr    Cr6+3 0.230530 0.836340 0.748870 1.057933
Cr2   Cr    Cr6+3 0.614360 0.677860 0.250770 1.028749
Cr3   Cr    Cr6+3 0.885640 0.177860 0.749230 1.032498
Cr4   Cr    Cr6+3 0.114360 0.177860 0.250770 1.033961
Cr5   Cr    Cr6+3 0.769470 0.836340 0.251130 1.059887
Cr6   Cr    Cr6+3 0.730530 0.336340 0.748870 1.058237
Cr7   Cr    Cr6+3 0.269470 0.336340 0.251130 1.060289
Cr8   Cr    Cr6+3 0.387420 0.989430 0.750820 1.022984
Cr9   Cr    Cr6+3 0.612580 0.989430 0.249180 1.029475
Cr10  Cr    Cr6+3 0.887420 0.489430 0.750820 1.026066
Cr11  Cr    Cr6+3 0.112580 0.489430 0.249180 1.034678
Cr12  Cr    Cr6+3 0.385640 0.677860 0.749230 1.034161
H1    H     H_    0.519872 0.638804 0.931132 0.141799
H2    H     H_    0.689369 0.590627 0.569942 0.137948
H3    H     H_    0.810714 0.090826 0.430253 0.151676
H4    H     H_    0.189371 0.090631 0.569941 0.137696
H5    H     H_    0.314715 0.618034 0.541278 0.103845
H6    H     H_    0.696426 0.594662 0.456908 0.095793
H7    H     H_    0.814693 0.117981 0.541282 0.103870
H8    H     H_    0.196431 0.094652 0.456906 0.095398
H9    H     H_    0.463278 0.047270 0.130700 0.136708
H10   H     H_    0.519400 0.070013 0.873765 0.137838
H11   H     H_    0.960666 0.544096 0.131700 0.135359
H12   H     H_    0.520704 0.632824 0.057036 0.141522
H13   H     H_    0.015853 0.572491 0.874787 0.141420
H14   H     H_    0.957671 0.740271 0.070958 0.117413
H15   H     H_    0.987428 0.754767 0.943047 0.111914
H16   H     H_    0.463971 0.242887 0.069338 0.116438
H17   H     H_    0.494221 0.254571 0.941438 0.114617
H18   H     H_    0.340418 0.485816 0.066561 0.149780
H19   H     H_    0.694273 0.397700 0.948845 0.152066
H20   H     H_    0.804417 0.897584 0.049972 0.150022
H21   H     H_    0.194296 0.897362 0.948860 0.143414
H22   H     H_    0.372490 0.597609 0.951186 0.154076
H23   H     H_    0.022204 0.140223 0.930490 0.142686
H24   H     H_    0.653375 0.501565 0.063803 0.147315
H25   H     H_    0.845827 0.000904 0.935001 0.151847
H26   H     H_    0.153757 0.000469 0.063967 0.146640
H27   H     H_    0.226627 0.686230 0.066944 0.111221
H28   H     H_    0.799114 0.614296 0.957332 0.117261
H29   H     H_    0.703657 0.117957 0.043802 0.116419
H30   H     H_    0.300109 0.112427 0.957736 0.124630
H31   H     H_    0.210428 0.633480 0.952906 0.115729
H32   H     H_    0.812921 0.562521 0.071379 0.110080
H33   H     H_    0.686988 0.065028 0.929528 0.108723
H34   H     H_    0.024015 0.133357 0.056422 0.142544
H35   H     H_    0.313233 0.061774 0.071809 0.110096
H36   H     H_    0.578627 0.650799 0.456309 0.159841
H37   H     H_    0.533237 0.646518 0.576795 0.183997
H38   H     H_    0.078631 0.150800 0.456309 0.159750
H39   H     H_    0.033234 0.146516 0.576793 0.183914
H40   H     H_    0.528959 0.917633 0.453712 0.128593
H41   H     H_    0.526211 0.927042 0.567033 0.123820
H42   H     H_    0.028956 0.417631 0.453711 0.128764
H43   H     H_    0.026208 0.427041 0.567030 0.124149
H44   H     H_    0.171188 0.732620 0.416962 0.198028
H45   H     H_    0.831867 0.727701 0.582006 0.198503
H46   H     H_    0.671168 0.232584 0.416975 0.198297
H47   H     H_    0.331881 0.227674 0.581995 0.198913
H48   H     H_    0.310716 0.590820 0.430254 0.152183
O1    O     O_R   0.215090 0.709860 0.828130 -0.517955
O2    O     O_R   0.543740 0.718170 0.330000 -0.494110
O3    O     O_R   0.956260 0.218170 0.670000 -0.515343
O4    O     O_R   0.043740 0.218170 0.330000 -0.494219
O5    O     O_R   0.320940 0.626760 0.674370 -0.488252
O6    O     O_R   0.679060 0.626760 0.325630 -0.514060
O7    O     O_R   0.820940 0.126760 0.674370 -0.496578
O8    O     O_R   0.179060 0.126760 0.325630 -0.517302
O9    O     O_3   0.334530 0.834540 0.749640 -0.311394
O10   O     O_3   0.665470 0.834540 0.250360 -0.313634
O11   O     O_3   0.834530 0.334540 0.749640 -0.295124
O12   O     O_R   0.784910 0.709860 0.171870 -0.527000
O13   O     O_3   0.165470 0.334540 0.250360 -0.297889
O14   O     O_R   0.236990 0.958390 0.823710 -0.504097
O15   O     O_R   0.763010 0.958390 0.176290 -0.492293
O16   O     O_R   0.736990 0.458390 0.823710 -0.495363
O17   O     O_R   0.263010 0.458390 0.176290 -0.497039
O18   O     O_R   0.332380 0.074750 0.830850 -0.503637
O19   O     O_R   0.667620 0.074750 0.169150 -0.507211
O20   O     O_R   0.832380 0.574750 0.830850 -0.511645
O21   O     O_R   0.167620 0.574750 0.169150 -0.509590
O22   O     O_R   0.445800 0.917770 0.825070 -0.523260
O23   O     O_R   0.715090 0.209860 0.828130 -0.528477
O24   O     O_R   0.554200 0.917770 0.174930 -0.511656
O25   O     O_R   0.945800 0.417770 0.825070 -0.523107
O26   O     O_R   0.054200 0.417770 0.174930 -0.496676
O27   O     O_R   0.456410 0.716580 0.829970 -0.526643
O28   O     O_R   0.543590 0.716580 0.170030 -0.516508
O29   O     O_R   0.956410 0.216580 0.829970 -0.516584
O30   O     O_R   0.043590 0.216580 0.170030 -0.516017
O31   O     O_R   0.321080 0.625290 0.822650 -0.477300
O32   O     O_R   0.678920 0.625290 0.177350 -0.490763
O33   O     O_R   0.821080 0.125290 0.822650 -0.490203
O34   O     O_R   0.284910 0.209860 0.171870 -0.515929
O35   O     O_R   0.178920 0.125290 0.177350 -0.491410
O36   O     O_R   0.214930 0.711450 0.668160 -0.442038
O37   O     O_R   0.785070 0.711450 0.331840 -0.439352
O38   O     O_R   0.714930 0.211450 0.668160 -0.449352
O39   O     O_R   0.285070 0.211450 0.331840 -0.441257
O40   O     O_R   0.236850 0.959870 0.675420 -0.470947
O41   O     O_R   0.763150 0.959870 0.324580 -0.469333
O42   O     O_R   0.736850 0.459870 0.675420 -0.471001
O43   O     O_R   0.263150 0.459870 0.324580 -0.474761
O44   O     O_R   0.332230 0.076350 0.670880 -0.509178
O45   O     O_R   0.445660 0.919250 0.676780 -0.490689
O46   O     O_R   0.667770 0.076350 0.329120 -0.518802
O47   O     O_R   0.832230 0.576350 0.670880 -0.511157
O48   O     O_R   0.167770 0.576350 0.329120 -0.523434
O49   O     O_R   0.554340 0.919250 0.323220 -0.484187
O50   O     O_R   0.945660 0.419250 0.676780 -0.491198
O51   O     O_R   0.054340 0.419250 0.323220 -0.484765
O52   O     O_R   0.456260 0.718170 0.670000 -0.514775

loop_
_geom_bond_atom_site_label_1
_geom_bond_atom_site_label_2
_ccdc_geom_bond_type
Cr4   O13   S    
Cr12  O5    S    
C34   O17   A    
C22   C28   D    
Cr6   O11   S    
C2    C78   A    
C31   C49   D    
C66   O5    A    
C30   H39   S    
C24   H40   S    
C40   O27   A    
Cr2   O2    S    
C81   H12   S    
C59   O46   A    
C38   H3    S    
C72   C80   A    
C69   O38   A    
Cr7   O39   S    
C3    C4    A    
C47   C51   S    
C57   O34   A    
C46   C50   S    
Cr9   O24   S    
C9    C14   D    
C58   O40   A    
C6    C54   S    
C33   H7    S    
C43   O30   A    
C7    H33   S    
Cr6   O23   S    
C7    C55   S    
C39   C48   D    
C1    C13   S    
Cr5   O15   S    
C12   O19   A    
C11   C12   S    
C25   H43   S    
C60   O47   A    
Cr2   O28   S    
C7    C20   D    
C10   H28   S    
C37   H2    S    
C44   H44   S    
C64   O50   A    
C35   C70   S    
C40   C72   S    
Br1   C49   S    
C39   H4    S    
C33   C69   S    
Cr11  O13   S    
Br3   C51   S    
Cr12  O9    S    
C71   C81   A    
C2    C84   A    
C61   O43   A    
C31   C66   S    
C62   O45   A    
C8    H35   S    
C67   H11   S    
Cr4   O4    S    
C10   C23   S    
Cr2   O6    S    
C22   H41   S    
C14   H18   S    
Cr3   O11   S    
Cr7   O43   S    
C23   O20   A    
C61   O48   A    
C74   C82   A    
Cr1   O1    S    
Cr8   O9    S    
C15   H19   S    
Cr8   O22   S    
Br4   C52   S    
C63   O2    A    
C17   H21   S    
C80   H1    S    
C83   H34   S    
C11   C16   D    
C55   O23   A    
C74   C79   A    
Cr6   O38   S    
C77   C79   A    
C42   O29   A    
C4    H17   S    
C18   H22   S    
C40   O22   A    
C5    H31   S    
C12   O15   A    
C35   H8    S    
C68   O37   A    
Cr2   O32   S    
C57   O35   A    
C68   O6    A    
C36   H48   S    
C32   H6    S    
C22   C62   S    
Cr1   O36   S    
Cr9   O49   S    
Cr7   O17   S    
C24   C63   S    
Cr11  O48   S    
C80   C81   A    
C3    C45   A    
C3    H16   S    
Br2   C50   S    
C41   O28   A    
C42   C74   S    
Cr10  O25   S    
Cr10  O50   S    
C82   C83   A    
C58   O44   A    
C47   H46   S    
Cr9   O19   S    
C25   C30   D    
C13   C17   D    
C45   C75   A    
C53   O1    A    
C33   C51   D    
Cr9   O46   S    
Cr2   O10   S    
Cr5   O12   S    
C15   C19   S    
C21   H26   S    
Cr6   O42   S    
Cr3   O7    S    
C31   H5    S    
Cr10  O20   S    
C23   O16   A    
C25   C64   S    
C60   O42   A    
C27   C28   S    
C11   H29   S    
C73   C77   A    
C29   H38   S    
C69   O7    A    
Cr12  O27   S    
C29   C30   S    
C42   O25   A    
C70   O8    A    
Cr4   O8    S    
C35   C52   D    
C1    O18   A    
C9    C34   S    
Cr4   O30   S    
Cr12  O52   S    
C46   H45   S    
C66   O36   A    
Cr8   O45   S    
C48   H47   S    
C36   C61   S    
Cr3   O33   S    
C20   H25   S    
C6    C19   D    
Cr1   O40   S    
Cr8   O18   S    
C75   C76   A    
C43   C73   S    
C41   O24   A    
Cr6   O16   S    
C37   C46   D    
C16   H20   S    
C26   C65   S    
C34   O21   A    
C45   H9    S    
C70   O39   A    
C36   C44   D    
C17   C21   S    
C56   C76   A    
C26   C29   D    
C13   H30   S    
C14   C18   S    
C65   O4    A    
C10   C15   D    
C24   C27   D    
Cr1   O14   S    
C72   C76   A    
C78   H13   S    
C59   O41   A    
C27   H36   S    
C63   O49   A    
Cr4   O35   S    
C55   O33   A    
C53   O31   A    
Cr7   O34   S    
Cr1   O9    S    
C19   H24   S    
Cr11  O21   S    
Cr5   O41   S    
C44   C49   S    
C38   C47   D    
C26   H42   S    
C8    C21   D    
C41   C71   S    
C1    O14   A    
Cr8   O44   S    
Cr7   O13   S    
C28   H37   S    
C64   O3    A    
C54   O12   A    
C4    C56   A    
Cr9   O10   S    
Cr3   O3    S    
C8    C57   S    
Cr11  O26   S    
C56   H10   S    
Cr3   O29   S    
Cr10  O47   S    
C5    C53   S    
C84   H14   S    
Cr5   O10   S    
C5    C18   D    
C6    H32   S    
C2    H15   S    
C43   O26   A    
C32   C50   D    
C67   C84   A    
C9    H27   S    
C32   C68   S    
Cr10  O11   S    
C73   C83   A    
C78   C79   A    
Cr11  O51   S    
C82   H23   S    
C65   O51   A    
C54   O32   A    
C37   C60   S    
Cr12  O31   S    
C71   C75   A    
C38   C59   S    
C16   C20   S    
C62   O52   A    
C48   C52   S    
C39   C58   S    
C67   C77   A    
Cr5   O37   S    
