data_mof_unit_20172.cif
_audit_creation_date              2013-03-05T15:45:30-0500
_audit_creation_method            fapswitch 2.2
_symmetry_space_group_name_H-M    P1
_symmetry_Int_Tables_number       1
_space_group_crystal_system       triclinic
_cell_length_a                    10.930863
_cell_length_b                    10.884503
_cell_length_c                    18.820287
_cell_angle_alpha                 90.009019
_cell_angle_beta                  89.706402
_cell_angle_gamma                 60.029393
_cell_volume                      1939.7271493

loop_
_atom_site_label
_atom_site_type_symbol
_atom_site_description
_atom_site_fract_x
_atom_site_fract_y
_atom_site_fract_z
_atom_type_partial_charge
O1    O     O_R   0.507430 0.255570 0.581420 -0.530214
O2    O     O_R   0.280190 0.527390 0.578910 -0.492014
C1    C     C_R   0.288490 0.623761 0.615665 0.547803
O3    O     O_R   0.260310 0.739740 0.584580 -0.520141
O4    O     O_R   0.532250 0.695150 0.573830 -0.516157
C2    C     C_R   0.653645 0.622186 0.601135 0.555888
O5    O     O_R   0.744930 0.503430 0.576380 -0.509916
O6    O     O_R   0.699250 0.276390 0.571950 -0.507621
C3    C     C_R   0.627327 0.229551 0.603482 0.538814
O7    O     O_R   0.499020 0.256400 0.419850 -0.514743
O8    O     O_R   0.272400 0.528160 0.429140 -0.456690
C4    C     C_R   0.224153 0.648720 0.400283 0.595410
O9    O     O_R   0.251910 0.740570 0.423020 -0.531060
O10   O     O_R   0.524460 0.695920 0.424060 -0.508805
C5    C     C_R   0.616894 0.590969 0.385797 0.553711
O11   O     O_R   0.736530 0.504260 0.414810 -0.439122
O12   O     O_R   0.691460 0.277160 0.422180 -0.521258
C6    C     C_R   0.614905 0.232120 0.394171 0.541409
Cr1   Cr    Cr6+3 0.392930 0.397900 0.502230 1.058384
Cr2   Cr    Cr6+3 0.398240 0.708600 0.501260 1.021715
Cr3   Cr    Cr6+3 0.708800 0.393470 0.496460 1.051663
O13   O     O_3   0.499990 0.499990 0.499980 -0.303923
C7    C     C_3   0.566886 0.807242 0.783185 -0.233550
H1    H     H_    0.569068 0.906551 0.794507 0.131743
H2    H     H_    0.471732 0.817491 0.810220 0.177318
C8    C     C_3   0.554591 0.795883 0.702475 -0.252030
H3    H     H_    0.448249 0.813283 0.690274 0.136392
H4    H     H_    0.565423 0.880585 0.674997 0.131226
H5    H     H_    0.831655 0.767919 0.772442 0.126321
H6    H     H_    0.827586 0.714638 0.654521 0.142145
C9    C     C_3   0.829840 0.666857 0.767472 -0.282118
C10   C     C_3   0.702932 0.535495 0.798351 0.097830
C11   C     C_3   0.704216 0.675584 0.811284 0.042247
H7    H     H_    0.813119 0.445676 0.804784 0.119801
C12   C     C_3   0.671194 0.648088 0.676242 0.017361
C13   C     C_3   0.816366 0.637216 0.688577 -0.252423
C14   C     C_3   0.660322 0.532545 0.720976 -0.209743
H8    H     H_    0.550933 0.550463 0.718221 0.149993
H9    H     H_    0.731459 0.424833 0.699124 0.122598
H10   H     H_    0.932310 0.580759 0.787790 0.127027
H11   H     H_    0.903240 0.529222 0.674164 0.142995
C15   C     C_R   0.789513 0.147029 0.708545 -0.159247
H12   H     H_    0.878915 0.130051 0.676218 0.127089
C16   C     C_R   0.804427 0.129939 0.782289 -0.135919
H13   H     H_    0.907511 0.090734 0.805798 0.123384
C17   C     C_R   0.686726 0.157828 0.824443 0.082902
C18   C     C_R   0.555218 0.205919 0.792630 -0.108147
H14   H     H_    0.461951 0.229226 0.823434 0.137199
C19   C     C_R   0.544083 0.209802 0.720286 -0.149681
H15   H     H_    0.442776 0.236521 0.698303 0.127924
C20   C     C_R   0.658796 0.185274 0.677302 0.019513
C21   C     C_R   0.232674 0.535160 0.726454 -0.142199
H16   H     H_    0.242486 0.443829 0.698685 0.118761
C22   C     C_R   0.201561 0.550221 0.798828 -0.128850
H17   H     H_    0.188303 0.469796 0.825894 0.115552
C23   C     C_R   0.179891 0.672597 0.834592 0.085321
C24   C     C_R   0.193492 0.777164 0.797794 -0.091692
H18   H     H_    0.175069 0.874195 0.823340 0.130588
C25   C     C_R   0.225051 0.761596 0.726481 -0.140594
H19   H     H_    0.229884 0.846944 0.699700 0.119324
C26   C     C_R   0.245871 0.640387 0.690119 0.026374
C27   C     C_R   0.693120 0.505780 0.263954 -0.108501
H20   H     H_    0.740968 0.398499 0.283390 0.142605
C28   C     C_R   0.704062 0.528778 0.192301 -0.099401
H21   H     H_    0.761733 0.438136 0.157485 0.145293
C29   C     C_R   0.649479 0.667361 0.166834 0.066659
C30   C     C_R   0.578312 0.782743 0.213457 -0.068918
H22   H     H_    0.539334 0.890413 0.195332 0.160309
C31   C     C_R   0.564278 0.759473 0.285014 -0.112693
H23   H     H_    0.510922 0.849787 0.320391 0.148975
C32   C     C_R   0.624739 0.620316 0.310781 0.025025
C33   C     C_R   0.514180 0.225033 0.280139 -0.129496
H24   H     H_    0.410544 0.265975 0.304026 0.170846
C34   C     C_R   0.524176 0.210507 0.207605 -0.137974
H25   H     H_    0.431165 0.232800 0.177418 0.153552
C35   C     C_R   0.655026 0.160837 0.175116 0.025399
C36   C     C_R   0.775026 0.131822 0.215394 -0.139073
H26   H     H_    0.878243 0.092143 0.191259 0.170385
C37   C     C_R   0.765261 0.144892 0.288268 -0.152344
H27   H     H_    0.857915 0.122072 0.318905 0.149531
C38   C     C_R   0.634926 0.191574 0.320725 0.025571
C39   C     C_R   0.241458 0.724837 0.282595 -0.166074
H28   H     H_    0.298880 0.773320 0.304292 0.170648
C40   C     C_R   0.232208 0.721348 0.210028 0.187255
C41   C     C_R   0.157248 0.660622 0.180795 -0.028110
C42   C     C_R   0.106674 0.589868 0.223845 -0.171140
H29   H     H_    0.046599 0.545307 0.200853 0.180365
C43   C     C_R   0.117874 0.591223 0.297440 0.172057
C44   C     C_R   0.184049 0.661999 0.326704 -0.026268
O14   O     O_R   0.089490 0.825610 0.930610 -0.510056
O15   O     O_R   0.818370 0.054540 0.929880 -0.496295
C45   C     C_R   0.701972 0.102537 0.896217 0.577788
O16   O     O_R   0.605870 0.077310 0.915530 -0.539041
O17   O     O_R   0.646440 0.806700 0.917570 -0.500394
C46   C     C_R   0.727670 0.690632 0.886841 0.601882
O18   O     O_R   0.837200 0.593290 0.915250 -0.509559
O19   O     O_R   0.065330 0.635370 0.931590 -0.520708
C47   C     C_R   0.117135 0.707214 0.905242 0.567450
O20   O     O_R   0.068300 0.828790 0.091860 -0.453373
O21   O     O_R   0.798730 0.057480 0.079370 -0.508217
C48   C     C_R   0.675245 0.107608 0.103703 0.556708
O22   O     O_R   0.584680 0.080480 0.076790 -0.514140
O23   O     O_R   0.626790 0.809640 0.067050 -0.472281
C49   C     C_R   0.694603 0.689297 0.097249 0.583040
O24   O     O_R   0.816010 0.596460 0.076500 -0.518096
O25   O     O_R   0.045680 0.638310 0.081070 -0.519466
C50   C     C_R   0.096008 0.706543 0.111638 0.592210
Cr4   Cr    Cr6+3 0.937620 0.938540 0.007640 1.081100
Cr5   Cr    Cr6+3 0.625150 0.937450 0.994520 1.064638
Cr6   Cr    Cr6+3 0.937990 0.625080 0.001190 1.045019
O26   O     O_3   0.833590 0.833690 0.001120 -0.286240
N1    N     N_R   0.291167 0.787846 0.166766 0.085698
O27   O     O_R   0.357078 0.728495 0.107802 -0.321462
O28   O     O_R   0.270949 0.912481 0.183953 -0.357062
N2    N     N_R   0.055289 0.528313 0.341068 0.089297
O29   O     O_R   0.996719 0.585333 0.401733 -0.311710
O30   O     O_R   0.041127 0.424323 0.316499 -0.342635
N3    N     N_R   0.613667 0.513854 0.849387 0.073185
O31   O     O_R   0.671979 0.415631 0.897419 -0.335466
O32   O     O_R   0.478378 0.600125 0.852236 -0.362160

loop_
_geom_bond_atom_site_label_1
_geom_bond_atom_site_label_2
_geom_bond_distance
_ccdc_geom_bond_type
O24   Cr6   2.068697 S    
C48   O22   1.273138 A    
C12   C13   1.549901 S    
C3    C20   1.456107 S    
C23   C47   1.453551 S    
N1    O28   1.301305 A    
O19   C47   1.271897 A    
C18   C19   1.366369 A    
O4    Cr2   1.959309 S    
C36   H26   1.083348 S    
C2    C12   1.473437 S    
O20   Cr4   2.073346 S    
O8    Cr1   1.947071 S    
C8    H3    1.105711 S    
O11   Cr3   2.066020 S    
C39   C44   1.405140 A    
C34   C35   1.389345 A    
C45   O16   1.263058 A    
C12   C14   1.566267 S    
C14   H8    1.112707 S    
C21   C26   1.401633 A    
Cr5   O26   1.978430 S    
C41   C42   1.405738 A    
O4    C2    1.268790 A    
C42   C43   1.391831 A    
C24   C25   1.373243 A    
C17   C45   1.454984 S    
O25   C50   1.263527 A    
C5    O11   1.293602 A    
C6    C38   1.433033 S    
C9    H10   1.111206 S    
C7    C11   1.563890 S    
C17   C18   1.398568 A    
C7    C8    1.536019 S    
C31   C32   1.403384 A    
N3    O31   1.300694 A    
N1    O27   1.301712 A    
C27   C28   1.387046 A    
Cr6   O26   1.967011 S    
C46   O18   1.257463 A    
C21   C22   1.391890 A    
O6    C3    1.275122 A    
N2    O30   1.301751 A    
C7    H1    1.113597 S    
C9    C11   1.559671 S    
C33   C38   1.410068 A    
C15   C20   1.405370 A    
C36   C37   1.376919 A    
C29   C30   1.403154 A    
C25   H19   1.081077 S    
Cr3   O13   1.978070 S    
C13   H11   1.113143 S    
C31   H23   1.082951 S    
C15   C16   1.399841 A    
C11   C46   1.469806 S    
C49   O24   1.260744 A    
C16   C17   1.405731 A    
O6    Cr3   1.945601 S    
C1    C26   1.456790 S    
C22   C23   1.402220 A    
C25   C26   1.399575 A    
O21   Cr4   1.953988 S    
C34   H25   1.083878 S    
C30   H22   1.083537 S    
O10   Cr2   1.955182 S    
C4    C44   1.440008 S    
Cr1   O13   1.976056 S    
O1    C3    1.266889 A    
C35   C36   1.411137 A    
C33   C34   1.371702 A    
O15   C45   1.279612 A    
C37   C38   1.388785 A    
C42   H29   1.083879 S    
C19   C20   1.397521 A    
O5    Cr3   2.080529 S    
O1    Cr1   2.066473 S    
O18   Cr6   2.085311 S    
O12   Cr3   1.958275 S    
C30   C31   1.392190 A    
C28   C29   1.401775 A    
C27   H20   1.078329 S    
C29   C49   1.458272 S    
C18   H14   1.084113 S    
O7    Cr1   2.077746 S    
O12   C6    1.277795 A    
C40   N1    1.436313 S    
C10   C14   1.536356 S    
C40   C41   1.398767 A    
Cr2   O13   1.967192 S    
C19   H15   1.079348 S    
C39   C40   1.371896 A    
C23   C24   1.401921 A    
C1    O3    1.282303 A    
C5    C32   1.459072 S    
C21   H16   1.079624 S    
O25   Cr6   1.963144 S    
C35   C48   1.435161 S    
C22   H17   1.083008 S    
O9    Cr2   2.077493 S    
O2    Cr1   1.957957 S    
C9    C13   1.542739 S    
O15   Cr4   1.952129 S    
C16   H13   1.082712 S    
C10   N3    1.466382 S    
C33   H24   1.083671 S    
O8    C4    1.267582 A    
C2    O5    1.260928 A    
O20   C50   1.264686 A    
O17   Cr5   1.960063 S    
C8    H4    1.113545 S    
Cr4   O26   1.977003 S    
H6    C13   1.112939 S    
O23   Cr5   1.942903 S    
C10   C11   1.551044 S    
C43   N2    1.439964 S    
O2    C1    1.297133 A    
O14   Cr4   2.074727 S    
H5    C9    1.113984 S    
C28   H21   1.083640 S    
O19   Cr6   1.950120 S    
C24   H18   1.083276 S    
O7    C6    1.251886 A    
O21   C48   1.259821 A    
C27   C32   1.396937 A    
C7    H2    1.109864 S    
O17   C46   1.261997 A    
N3    O32   1.297425 A    
C37   H27   1.083789 S    
O3    Cr2   2.076541 S    
C8    C12   1.549476 S    
C43   C44   1.407376 A    
C14   H9    1.110867 S    
C39   H28   1.082918 S    
C15   H12   1.082922 S    
O16   Cr5   2.062824 S    
O23   C49   1.273856 A    
O10   C5    1.297500 A    
O22   Cr5   2.078671 S    
C4    O9    1.256553 A    
C41   C50   1.437657 S    
O14   C47   1.260638 A    
N2    O29   1.301501 A    
C10   H7    1.116320 S    
